Mass Spectrum: Pyridine, 2-ethyl-
Formula: C7 H9 N
CAS: 100-71-0
Molecular weight: 107
Origin: Japan AIST/NIMC Database- Spectrum MS-IW- 363
m/z	RELATIVE INTENSITY
15	10
26	80
27	259
28	129
29	30
37	40
38	99
39	449
40	50
41	60
42	10
49	20
50	279
51	749
52	959
53	359
54	99
55	10
56	10
61	10
62	30
63	109
64	80
65	519
66	99
67	20
74	20
75	30
76	50
77	419
78	1569
79	2509
80	459
81	20
91	20
92	199
93	99
104	139
105	40
106	9999
107	5429
108	459
109	20
