Mass Spectrum: Ethanethiol, 2-(diethylamino)-
Formula: C6 H15 N S
CAS: 100-38-9
Molecular weight: 133
Origin: Japan AIST/NIMC Database- Spectrum MS-NW-6476
m/z	RELATIVE INTENSITY
15	99
26	60
27	479
28	479
29	579
30	1779
31	20
32	10
33	10
34	20
35	149
36	60
37	50
38	20
39	20
40	20
41	109
42	489
43	90
44	649
45	90
46	20
47	70
54	60
55	30
56	389
57	119
58	2529
59	109
60	70
61	569
62	20
63	20
68	10
70	99
71	90
72	439
73	60
75	30
76	10
84	90
85	30
86	9999
87	599
88	10
90	10
98	20
99	40
100	439
101	30
102	10
104	20
116	40
118	40
130	30
131	10
132	40
133	279
134	30
135	10
