Mass Spectrum: Benzene, 1-(bromomethyl)-4-nitro-
Formula: C7 H6 Br N O2
CAS: 100-11-8
Molecular weight: 215
Origin: Japan AIST/NIMC Database- Spectrum MS-NW-4792
m/z	RELATIVE INTENSITY
26	30
27	50
28	70
30	1769
31	10
32	10
36	10
37	60
38	169
39	459
40	99
43	20
44	30
45	20
46	20
49	30
50	259
51	369
52	139
53	10
60	10
61	80
62	279
63	809
64	369
65	30
73	10
74	40
75	50
76	30
77	139
78	2269
79	149
80	50
81	30
82	40
85	30
86	60
87	60
88	30
89	1679
90	2269
91	179
104	10
105	30
106	1149
107	99
108	10
117	10
119	10
120	129
121	30
126	10
128	10
136	9999
137	839
138	70
143	10
145	10
157	10
169	109
170	20
171	109
172	10
199	10
201	10
215	349
216	30
217	359
218	30
