Mass Spectrum: Benzene, 1-ethoxy-4-nitro-
Formula: C8 H9 N O3
CAS: 100-29-8
Molecular weight: 167
Origin: Japan AIST/NIMC Database- Spectrum MS-IW-4116
m/z	RELATIVE INTENSITY
15	40
26	169
27	1219
28	319
29	3159
30	609
31	10
37	80
38	519
39	2129
40	90
41	99
42	30
43	139
44	10
45	20
46	10
49	20
50	1079
51	449
52	249
53	669
54	119
55	129
60	10
61	99
62	399
63	1589
64	1249
65	5409
66	379
67	60
68	50
69	30
73	30
74	349
75	769
76	929
77	509
78	149
79	179
80	90
81	1979
82	139
89	20
90	20
91	369
92	579
93	3419
94	259
95	30
96	20
103	10
105	10
106	60
107	70
108	70
109	6239
110	419
111	60
115	10
118	10
119	40
120	80
121	90
122	189
123	819
124	60
127	10
135	10
137	80
138	10
139	9429
140	669
141	80
149	10
150	10
151	199
152	179
153	10
166	40
167	9999
168	1049
169	109
