Mass Spectrum: Benzene, 1-methoxy-4-nitro-
Formula: C7 H7 N O3
CAS: 100-17-4
Molecular weight: 153
Origin: NIST Mass Spectrometry Data Center, 2010
m/z	RELATIVE INTENSITY
14	10
15	70
25	10
26	90
27	80
28	60
29	90
30	360
31	20
36	10
37	180
38	631
39	300
40	20
41	500
42	30
43	20
45	10
46	110
48	10
49	80
50	1321
51	781
52	480
53	380
54	140
55	50
56	10
59	10
60	30
61	280
62	781
63	3013
64	3353
65	500
66	150
67	110
68	30
69	70
72	10
73	140
74	811
75	641
76	751
77	5985
78	561
79	290
80	420
81	30
82	60
86	10
87	10
88	10
90	10
92	6156
93	410
94	40
95	1922
96	140
97	10
104	10
105	10
106	110
107	1091
108	250
109	20
120	10
121	20
123	6005
124	450
125	40
128	10
133	10
135	10
137	540
138	50
153	9999
154	801
155	90
