Mass Spectrum: 1,2-Ethanediamine, N,N-diethyl-
Formula: C6 H16 N2
CAS: 100-36-7
Molecular weight: 116
Origin: RADIAN CORP
m/z	RELATIVE INTENSITY
18	20
26	40
27	190
28	100
29	250
30	800
39	10
40	30
41	150
42	470
43	170
54	80
55	60
56	360
57	170
58	1980
59	80
68	30
69	60
70	110
71	130
72	340
73	70
82	10
83	20
84	80
86	9999
87	700
88	20
97	30
98	30
99	100
100	20
101	20
113	50
116	260
117	30
