Mass Spectrum: Mercury, chlorophenyl-
Formula: C6 H5 Cl Hg
CAS: 100-56-1
Molecular weight: 314
Origin: MASS SPECTROMETRY CENTER, UNIV. OF UTAH EPA-PTSEL 5480
m/z	RELATIVE INTENSITY
36	481
37	479
38	639
39	458
40	64
49	448
50	3136
51	5429
52	330
61	72
62	47
73	297
74	1043
75	675
76	583
77	9999
78	889
112	1058
113	46
114	355
198	170
199	302
200	412
201	241
202	517
204	102
234	56
235	158
236	98
237	221
239	87
275	124
276	228
277	340
278	176
279	405
281	70
310	468
311	805
312	1272
313	989
314	1752
315	340
316	787
318	74
