Mass Spectrum: 2H-Pyran-2-methanol, tetrahydro-
Formula: C6 H12 O2
CAS: 100-72-1
Molecular weight: 116
Origin: Japan AIST/NIMC Database- Spectrum MS-NW-1261
m/z	RELATIVE INTENSITY
14	20
15	159
17	20
18	70
19	10
26	119
27	1029
28	589
29	2599
30	99
31	1549
32	269
33	10
37	20
38	50
39	679
40	159
41	3849
42	229
43	2519
44	219
45	139
50	30
51	50
52	10
53	169
54	80
55	1179
56	429
57	2279
58	119
59	20
60	90
61	90
65	40
66	10
67	1949
68	129
69	60
70	30
71	20
75	10
77	10
79	30
81	10
82	10
83	60
84	339
85	9999
86	559
87	30
97	30
98	20
99	10
115	10
116	10
