Mass Spectrum: Benzenemethanethiol
Formula: C7 H8 S
CAS: 100-53-8
Molecular weight: 124
Origin: Japan AIST/NIMC Database- Spectrum MS-NW-3729
m/z	RELATIVE INTENSITY
18	20
26	30
27	70
28	30
32	20
33	40
34	30
37	60
38	129
39	609
40	40
41	119
43	10
44	30
45	829
46	40
47	60
49	20
50	209
51	459
52	109
53	40
58	20
59	10
60	50
61	109
62	229
63	409
64	109
65	1159
66	70
69	90
70	10
71	20
73	10
74	50
75	40
76	20
77	319
78	139
79	109
80	10
81	10
82	10
84	10
85	20
86	30
87	20
88	10
89	329
90	159
91	9999
92	829
93	30
95	10
97	30
121	159
122	30
123	99
124	3199
125	289
126	159
