Mass Spectrum: 3-Cyclohexene-1-carboxaldehyde
Formula: C7 H10 O
CAS: 100-50-5
Molecular weight: 110
Origin: Japan AIST/NIMC Database- Spectrum MS-NW-3009
m/z	RELATIVE INTENSITY
14	20
15	70
17	10
18	40
25	20
26	299
27	2379
28	289
29	569
30	10
31	149
32	50
36	10
37	149
38	309
39	3229
40	429
41	4459
42	239
43	209
44	50
45	30
49	70
50	579
51	1089
52	529
53	4159
54	3369
55	1209
56	109
57	149
58	20
60	10
61	50
62	70
63	159
64	30
65	769
66	1699
67	3269
68	669
69	459
70	70
71	10
73	30
74	80
75	70
76	30
77	2349
78	1689
79	9999
80	1369
81	7669
82	989
83	229
84	20
86	10
89	10
90	20
91	1959
92	3099
93	409
94	60
95	2439
96	159
97	20
105	40
106	40
107	60
108	50
109	719
110	7129
111	579
112	40
