Mass Spectrum: Benzene, 1-(chloromethyl)-4-nitro-
Formula: C7 H6 Cl N O2
CAS: 100-14-1
Molecular weight: 171
Origin: NIST Mass Spectrometry Data Center, 1998.
m/z	RELATIVE INTENSITY
26	40
27	60
30	730
35	40
36	10
37	130
38	300
39	790
40	110
41	10
43	60
44	20
46	210
49	160
50	730
51	940
52	250
53	30
60	30
61	290
62	850
63	2500
64	630
65	210
66	10
72	10
73	330
74	200
75	360
76	120
77	1450
78	1700
79	120
80	10
84	30
85	140
86	260
87	250
88	80
89	5699
90	2200
91	160
92	10
97	50
99	1280
100	60
101	430
102	20
103	10
104	50
105	40
106	1270
107	100
108	10
111	10
112	60
113	440
114	40
115	140
116	10
120	10
121	10
123	30
124	170
125	3300
126	310
127	1060
128	60
136	9999
137	860
138	60
141	250
142	10
143	60
144	10
154	70
155	110
156	30
157	20
171	4410
172	370
173	1460
174	120
175	10
