Mass Spectrum: N,N-Diethyl-2-aminoethanol
Formula: C6 H15 N O
CAS: 100-37-8
Molecular weight: 117
Origin: NIST Mass Spectrometry Data Center, 1998.
m/z	RELATIVE INTENSITY
15	60
18	30
19	20
26	70
27	510
28	470
29	750
30	1750
31	240
38	10
39	40
40	50
41	270
42	1170
43	420
44	630
45	490
46	10
51	10
52	30
53	10
54	150
55	80
56	960
57	210
58	4310
59	190
60	100
68	30
69	10
70	220
71	120
72	360
73	30
74	70
84	60
86	9999
87	610
88	200
89	10
98	10
99	10
100	30
102	690
103	40
116	260
117	440
118	40
