Mass Spectrum: Benzene, 1-isocyanato-4-nitro-
Formula: C7 H4 N2 O3
CAS: 100-28-7
Molecular weight: 164
Origin: MUS174 A. Mujsce, AT&T Bell Labs., Murray Hill, N.J., USA
m/z	RELATIVE INTENSITY
25	87
26	333
27	212
28	1396
30	1488
32	318
33	53
34	50
36	76
37	1202
38	1228
39	2567
41	71
42	86
44	186
45	74
46	359
49	262
50	1318
51	1381
52	942
53	118
54	97
55	74
57	47
60	144
61	821
62	1765
63	4747
64	2328
65	181
67	82
73	173
74	494
75	417
76	226
77	178
78	1386
79	134
80	221
81	45
86	139
87	267
88	409
90	9999
91	696
92	53
97	61
99	47
106	2562
107	208
108	63
117	82
118	1355
119	145
121	42
124	107
130	45
134	5513
135	504
137	45
138	50
148	646
149	105
161	57
162	48
164	7876
165	641
