Mass Spectrum: Pyridine, 2-ethenyl-
Formula: C7 H7 N
CAS: 100-69-6
Molecular weight: 105
Origin: D.HENNEBERG, MAX-PLANCK INSTITUTE, MULHEIM, WEST GERMANY
m/z	RELATIVE INTENSITY
26	385
27	711
28	363
29	25
34	22
36	11
38	147
39	988
40	92
41	75
43	12
44	31
45	13
49	7
50	892
51	2923
52	3056
53	414
54	210
55	28
62	59
63	230
64	99
65	269
66	147
67	70
68	8
74	58
75	138
76	420
77	1061
78	2081
79	7723
80	493
81	32
89	17
90	25
91	189
92	150
93	28
94	17
95	5
102	79
103	271
104	4996
105	9999
106	758
107	53
108	9
