Mass Spectrum: 2-Pyridinecarbonitrile
Formula: C6 H4 N2
CAS: 100-70-9
Molecular weight: 104
Origin: NIST Mass Spectrometry Data Center, 1994
m/z	RELATIVE INTENSITY
12	152
13	68
14	89
24	120
25	295
26	1859
27	488
28	544
36	184
37	845
38	1090
39	558
40	97
48	187
49	937
50	3702
51	3286
52	1710
53	859
54	38
60	52
61	102
62	145
63	170
64	561
65	84
66	12
74	140
75	1326
76	1911
77	5527
78	953
79	44
86	11
100	29
101	28
104	9999
105	724
106	24
