Mass Spectrum: Benzenamine, N,N-dimethyl-4-nitro-
Formula: C8 H10 N2 O2
CAS: 100-23-2
Molecular weight: 166
Origin: Japan AIST/NIMC Database- Spectrum MS-NW- 200
m/z	RELATIVE INTENSITY
14	10
15	299
18	10
26	40
27	129
28	119
29	20
30	179
37	60
38	169
39	419
40	60
41	139
42	2249
43	149
44	209
46	60
47	10
49	20
50	719
51	649
52	269
53	109
54	60
55	50
56	10
58	20
59	10
61	50
62	149
63	649
64	239
65	529
66	279
67	199
68	179
69	159
70	10
73	40
74	269
75	279
76	569
77	1799
78	839
79	949
80	179
81	70
82	50
86	10
87	20
88	40
89	90
90	349
91	859
92	559
93	359
94	99
95	10
99	10
102	50
103	219
104	1039
105	1729
106	219
107	60
108	499
109	40
111	10
116	10
117	149
118	849
119	2899
120	1729
121	169
122	20
133	30
134	20
135	30
136	2569
137	249
138	20
139	30
141	10
147	10
149	50
150	269
151	30
152	10
163	109
164	30
165	2289
166	9999
167	999
168	90
