Mass Spectrum: 4-Pyridinecarbonitrile
Formula: C6 H4 N2
CAS: 100-48-1
Molecular weight: 104
Origin: Japan AIST/NIMC Database- Spectrum MS-NW-1377
m/z	RELATIVE INTENSITY
12	20
13	10
14	10
24	20
25	80
26	1009
27	119
28	289
36	60
37	339
38	289
39	119
40	60
41	20
44	10
48	70
49	329
50	2129
51	1189
52	589
53	529
54	20
57	20
60	20
61	50
62	99
63	119
64	1379
65	60
74	80
75	609
76	1529
77	5449
78	569
79	20
100	20
101	20
102	10
103	449
104	9999
105	729
106	20
