Mass Spectrum: Benzoic acid, 4-methoxy-
Formula: C8 H8 O3
CAS: 100-09-4
Molecular weight: 152
Origin: Japan AIST/NIMC Database- Spectrum MS-IW-8017
m/z	RELATIVE INTENSITY
15	40
17	20
18	70
26	30
27	149
28	139
29	50
31	99
37	80
38	239
39	339
40	10
41	10
42	10
43	20
44	10
45	99
46	20
49	30
50	379
51	279
52	80
53	329
54	20
55	50
60	10
61	70
62	219
63	649
64	629
65	429
66	70
67	30
69	20
73	40
74	209
75	169
76	199
77	1829
78	239
79	209
80	30
81	509
82	30
91	30
92	939
93	109
94	20
95	20
103	20
104	50
105	219
106	80
107	1569
108	149
109	329
110	20
119	70
120	40
121	90
122	50
123	10
124	30
134	20
135	9999
136	899
137	109
138	10
151	40
152	9489
153	859
154	90
