Mass Spectrum: Silane, butyltrimethyl-
Formula: C7 H18 Si
CAS: 1000-49-3
Molecular weight: 130
Origin: D.HENNEBERG, MAX-PLANCK INSTITUTE, MULHEIM, WEST GERMANY
m/z	RELATIVE INTENSITY
25	10
26	11
27	96
29	163
31	225
33	7
39	52
41	57
42	60
43	644
44	234
45	780
46	66
47	33
48	5
49	6
50	3
51	5
53	45
54	14
55	111
56	33
57	116
58	239
59	4451
60	298
61	142
62	3
65	3
66	11
67	15
68	4
69	14
70	27
71	63
72	138
73	9999
74	791
75	309
76	9
81	3
83	10
85	42
86	35
87	110
88	10
89	3
97	5
99	8
101	81
102	13
103	3
113	16
114	6
115	1522
116	167
117	52
130	55
131	5
