Mass Spectrum: Pentadecanoic acid, 2,6,10,14-tetramethyl-, methyl ester
Formula: C20 H40 O2
CAS: 1001-80-5
Molecular weight: 312
Origin: R.T.HOLMAN,UNIVERSITY OF MINNESOTA
m/z	RELATIVE INTENSITY
26	100
27	1940
28	580
29	3900
30	100
31	220
32	70
39	1400
40	320
41	7500
42	1780
43	9999
44	310
45	280
51	60
52	50
53	530
54	250
55	5250
56	1670
57	3910
58	410
59	1500
60	80
61	50
65	90
66	50
67	430
68	250
69	2440
70	530
71	1500
72	110
73	380
74	160
75	30
77	70
78	20
79	110
80	30
81	270
82	120
83	750
84	120
85	400
86	40
87	410
88	6880
89	310
90	50
91	50
93	50
95	200
96	80
97	1000
98	180
99	80
101	1750
102	140
109	110
110	70
111	210
112	70
113	70
115	110
123	50
125	120
126	70
127	40
129	220
130	50
137	30
139	50
157	220
158	30
167	30
195	30
222	40
281	30
312	214
313	50
