Mass Spectrum: 1H-Pyrazole, 3-methyl-5-(trifluoromethyl)-
Formula: C5 H5 F3 N2
CAS: 10010-93-2
Molecular weight: 150
Origin: A.A.Kutin, Moscow, Russia
m/z	RELATIVE INTENSITY
29	420
30	247
31	360
32	724
37	131
38	261
39	633
40	488
41	468
42	1165
46	76
49	96
50	749
51	1674
52	907
53	470
54	1656
55	168
56	133
57	306
65	314
66	332
69	1670
70	274
71	154
72	75
75	1615
76	246
77	200
79	164
81	3052
82	246
83	244
85	134
95	154
99	284
101	3088
102	289
103	79
123	80
129	537
130	970
131	1922
132	102
149	4586
150	9999
151	618
