Mass Spectrum: Benzenemethanamine, .alpha.-methyl-N-(1-phenylethyl)-
Formula: C16 H19 N
CAS: 10024-74-5
Molecular weight: 225
Origin: Drug Lab
m/z	RELATIVE INTENSITY
36	10
38	50
39	270
40	40
41	90
42	490
43	30
44	490
50	230
51	771
52	170
53	90
54	10
56	10
62	20
63	200
64	70
65	230
66	30
70	10
74	60
75	80
76	130
77	2572
78	771
79	2112
80	170
81	10
82	20
87	10
89	130
90	70
91	470
92	60
93	10
94	10
97	20
101	20
102	140
103	1201
104	921
105	9999
106	7957
107	641
108	20
115	30
116	20
117	40
118	60
119	30
120	961
121	70
126	10
128	10
130	30
131	20
132	60
141	10
146	50
148	140
149	10
152	20
153	10
165	70
166	20
167	20
178	10
193	20
194	20
195	10
206	10
207	10
208	70
210	5085
211	851
212	70
222	50
223	30
224	10
225	80
226	20
