Mass Spectrum: 1,3,6-Heptatriene
Formula: C7 H10
CAS: 1002-27-3
Molecular weight: 94
Origin: NIST Mass Spectrometry Data Center, 1990.
m/z	RELATIVE INTENSITY
14	72
15	153
16	1
25	50
26	466
27	2566
28	369
29	241
31	34
37	295
38	805
39	5362
40	1026
41	2265
42	196
43	68
44	50
45	118
46	100
49	130
50	862
51	1309
52	761
53	1456
54	576
55	192
61	174
62	412
63	671
64	199
65	1853
66	3275
67	979
68	69
74	100
75	57
77	6973
78	1302
79	9999
80	618
85	35
86	52
87	39
89	52
91	2204
92	248
93	867
94	2424
95	208
