Mass Spectrum: Sulfur monochloride
Formula: Cl2 S2
CAS: 10025-67-9
Molecular weight: 134
Origin: J.C.BLAIS THE CURIE LAB. INST. OF RADIUM, PARIS, FRANCE
m/z	RELATIVE INTENSITY
32	2350
33	20
34	105
35	1250
37	400
64	4330
65	70
66	410
67	1540
68	20
69	580
71	23
99	9999
100	180
101	4220
102	180
103	330
104	83
106	16
134	6940
135	100
136	5080
137	80
138	1150
139	15
