Mass Spectrum: Ethanol, 2-(octyloxy)-
Formula: C10 H22 O2
CAS: 10020-43-6
Molecular weight: 174
m/z	RELATIVE INTENSITY
15	150
17	100
18	440
19	210
26	40
27	1361
28	260
29	1892
30	70
31	1011
32	50
33	140
38	20
39	871
40	170
41	4644
42	1311
43	6996
44	550
45	6015
46	170
47	40
50	20
51	60
52	30
53	310
54	140
55	4394
56	3363
57	9999
58	540
59	190
60	200
61	150
62	90
63	851
64	20
65	50
66	20
67	270
68	330
69	6466
70	3483
71	5365
72	350
73	851
74	90
75	1661
76	70
77	80
79	40
81	130
82	350
83	2512
84	6196
85	1111
86	110
87	200
88	40
89	70
90	20
91	80
95	100
96	60
97	1341
98	270
99	120
100	50
101	110
102	20
103	40
104	110
105	20
109	100
110	120
111	3103
112	2692
113	470
114	30
115	40
117	190
118	80
119	30
125	20
126	30
127	130
128	20
129	70
131	240
132	30
143	130
145	60
159	20
174	10
175	50
