Mass Spectrum: Phosphorus oxychloride
Formula: Cl3 O P
CAS: 10025-87-3
Molecular weight: 152
m/z	RELATIVE INTENSITY
31	631
35	871
37	300
47	2532
48	10
51	20
66	671
68	300
69	80
70	40
71	10
72	10
73	20
77	30
79	30
81	10
82	761
83	20
84	290
85	50
87	10
88	10
91	20
92	20
97	10
101	250
102	10
103	130
104	20
105	50
106	10
107	20
109	10
117	9999
119	6446
120	20
121	1001
124	30
136	60
138	40
140	10
152	3803
154	3673
156	1131
158	130
