Mass Spectrum: 8-Aminocaprylic acid
Formula: C8 H17 N O2
CAS: 1002-57-9
Molecular weight: 159
Origin: Japan AIST/NIMC Database- Spectrum MS-NW-6132
m/z	RELATIVE INTENSITY
15	60
17	90
18	159
26	50
27	499
28	189
29	309
30	9999
31	239
32	20
37	10
38	30
39	399
40	80
41	779
42	279
43	249
44	339
45	669
46	20
50	20
51	50
52	30
53	109
54	109
55	499
56	349
57	60
58	60
59	149
60	129
62	10
63	10
64	10
65	20
66	20
67	129
68	119
69	159
70	70
71	20
72	129
73	99
74	20
75	10
77	30
78	20
79	50
80	60
81	80
82	90
83	90
84	40
85	20
86	299
87	109
88	10
91	10
92	10
93	20
94	50
95	80
96	70
97	40
98	30
99	10
100	1159
101	90
103	10
105	20
106	10
108	20
109	10
110	10
111	20
112	10
113	20
114	20
116	10
117	10
118	10
119	10
120	10
121	10
122	20
123	30
124	50
125	10
126	10
130	10
140	20
141	20
142	40
158	20
159	60
160	10
