Mass Spectrum: 1,3-Octadiene
Formula: C8 H14
CAS: 1002-33-1
Molecular weight: 110
Origin: NIST Mass Spectrometry Data Center, 1990.
m/z	RELATIVE INTENSITY
15	106
26	246
27	1887
28	671
29	646
37	117
38	397
39	4305
40	851
41	5707
42	385
43	763
44	109
50	525
51	983
52	603
53	2064
54	9999
55	1778
56	534
62	134
63	313
65	1827
66	959
67	8362
68	2882
69	819
77	860
78	272
79	1934
80	432
81	3466
82	761
91	175
93	89
95	806
110	4387
111	393
