Mass Spectrum: Disulfide, bis(2-chloroethyl)
Formula: C4 H8 Cl2 S2
CAS: 1002-41-1
Molecular weight: 190
Origin: VERIFINN
m/z	RELATIVE INTENSITY
26	1151
27	9999
28	981
32	240
33	170
34	120
35	120
45	2352
46	871
47	320
49	561
58	921
59	1351
63	7767
64	2172
65	2612
66	420
78	80
79	1111
81	90
91	130
92	1651
93	150
94	400
96	130
99	781
101	330
113	200
115	80
127	621
128	1351
129	270
130	550
132	50
141	370
143	160
155	591
157	260
162	100
164	70
190	3103
191	100
192	2272
194	550
