Mass Spectrum: Decane, 2,9-dimethyl-
Formula: C12 H26
CAS: 1002-17-1
Molecular weight: 170
Origin: D.HENNEBERG, MAX-PLANCK INSTITUTE, MULHEIM, WEST GERMANY
m/z	RELATIVE INTENSITY
23	3
24	6
25	16
26	97
27	1171
29	1493
30	47
33	36
35	25
36	7
37	59
38	28
39	737
40	68
41	3615
42	1889
43	9999
44	252
51	103
52	7
53	167
54	84
55	1105
56	1849
57	7992
58	368
65	11
66	4
67	75
68	83
69	627
70	345
71	4222
72	227
81	3
82	36
83	149
84	218
85	2485
86	151
97	31
98	89
99	524
100	33
111	100
112	15
113	186
114	6
126	177
127	589
128	58
155	153
156	10
