Mass Spectrum: cis-1,4-Bis(aminomethyl)cyclohexane
Formula: C8 H18 N2
CAS: 10029-09-1
Molecular weight: 142
Origin: H. SUESS, CIBA-GEIGY AG, MUNCHWILEN, SWITZER
m/z	RELATIVE INTENSITY
30	5500
41	700
54	1100
55	1000
56	1500
67	1800
68	1000
79	900
81	1500
82	1000
95	1500
96	1700
112	2000
113	9999
114	700
125	3200
142	300
