Mass Spectrum: Nitric acid, pentyl ester
Formula: C5 H11 N O3
CAS: 1002-16-0
Molecular weight: 133
Origin: MINISTRY OF TECH. E.R.D.E., WALTHAM ABBEY, UK
m/z	RELATIVE INTENSITY
12	10
13	10
14	90
15	360
24	20
25	30
26	260
27	290
28	2210
29	9999
30	1500
31	950
37	60
38	120
39	1570
40	270
41	7950
42	1020
43	2860
44	560
45	320
46	4760
47	40
50	20
51	30
52	20
53	60
54	60
55	910
56	340
57	6800
58	1310
59	70
60	100
69	950
70	260
71	1180
72	70
76	3950
77	70
85	40
90	40
104	20
115	30
