Mass Spectrum: Nitrous oxide
Formula: N2 O
CAS: 10024-97-2
Molecular weight: 44
m/z	RELATIVE INTENSITY
14	1291
15	10
16	500
28	1081
29	10
30	3113
31	10
44	9999
45	70
