Mass Spectrum: Decane, 3-chloro-
Formula: C10 H21 Cl
CAS: 1002-11-5
Molecular weight: 176
Origin: DM6-171-F29
m/z	RELATIVE INTENSITY
41	8289
42	4196
43	9999
44	311
53	622
54	829
55	9585
56	8626
57	5051
58	207
69	6113
70	6528
71	1813
72	130
76	130
77	311
79	130
82	984
83	3238
84	4015
85	1217
86	130
96	492
97	3834
98	2254
99	130
105	466
107	207
111	2746
112	1425
113	104
119	104
140	518
141	622
