Mass Spectrum: trans-1,4-Bis(aminomethyl)cyclohexane
Formula: C8 H18 N2
CAS: 10029-07-9
Molecular weight: 142
Origin: H. SUESS, CIBA-GEIGY AG, MUNCHWILEN
m/z	RELATIVE INTENSITY
30	9999
41	700
54	1200
55	1200
56	1500
67	2000
68	1200
70	600
79	1300
81	2000
82	1000
93	500
94	600
95	2000
96	2000
108	1400
112	6000
113	4600
125	7500
142	400
