Mass Spectrum: 2(1H)-Pyridinone, 3-methyl-
Formula: C6 H7 N O
CAS: 1003-56-1
Molecular weight: 109
Origin: James Little,Eastman Chem.Co.,Kingsport,TN
m/z	RELATIVE INTENSITY
27	1742
29	270
37	310
38	611
39	1762
40	340
41	440
50	721
51	991
52	971
53	2662
54	861
63	360
64	290
65	290
66	170
67	80
75	70
78	170
79	230
80	9579
81	1621
82	180
91	901
92	210
108	591
109	9999
110	741
