Mass Spectrum: Thiophene, 2-bromo-
Formula: C4 H3 Br S
CAS: 1003-09-4
Molecular weight: 162
Origin: Japan AIST/NIMC Database- Spectrum MS-NW-1138
m/z	RELATIVE INTENSITY
24	30
25	90
26	159
27	20
28	10
29	10
32	70
33	30
34	20
36	99
37	659
38	1059
39	5249
40	169
41	99
44	299
45	2379
46	60
47	99
48	40
49	269
50	429
51	90
56	179
57	1879
58	939
59	99
60	50
68	90
69	259
70	10
71	10
76	10
79	149
80	109
81	829
82	879
83	6399
84	379
85	279
91	40
93	50
104	60
105	10
106	60
111	10
113	10
116	30
117	399
118	60
119	369
120	20
123	139
125	149
128	20
129	10
130	20
135	20
136	209
137	20
138	199
161	10
162	9669
163	499
164	9999
165	529
166	419
167	20
