Mass Spectrum: 4H-Thiopyran-4-one
Formula: C5 H4 O S
CAS: 1003-41-4
Molecular weight: 112
Origin: R.C. DOUGHERTY
m/z	RELATIVE INTENSITY
28	2602
39	601
44	601
45	1201
53	601
57	2302
58	5705
84	3003
85	300
86	7206
87	300
88	300
112	9999
113	701
114	500
