Mass Spectrum: Tetrafluorohydrazine
Formula: F4 N2
CAS: 10036-47-2
Molecular weight: 104
m/z	RELATIVE INTENSITY
14	1251
19	701
28	160
29	10
33	9999
34	10
52	5325
53	30
66	40
85	20
104	10
