Mass Spectrum: Cyclopentanamine
Formula: C5 H11 N
CAS: 1003-03-8
Molecular weight: 85
Origin: Japan AIST/NIMC Database- Spectrum MS-NW-4935
m/z	RELATIVE INTENSITY
14	10
15	149
26	70
27	289
28	909
29	319
30	1549
31	20
32	10
36	10
37	20
38	50
39	389
40	70
41	539
42	619
43	1099
44	70
50	20
51	30
52	30
53	50
54	119
55	70
56	9999
57	1739
58	60
65	40
66	20
67	249
68	109
69	40
70	109
80	20
82	60
83	20
84	199
85	929
86	60
