Mass Spectrum: Cyclopropane, 1,1-diethyl-
Formula: C7 H14
CAS: 1003-19-6
Molecular weight: 98
Origin: NIST Mass Spectrometry Data Center, 1990.
m/z	RELATIVE INTENSITY
15	407
26	316
27	2481
28	990
29	1489
38	404
39	3350
41	9625
42	1825
43	567
51	612
53	1269
54	730
55	7640
56	2782
57	398
65	430
67	1262
69	9999
70	3757
83	1252
98	2671
