Mass Spectrum: Hexanoic acid, 3,7-dimethyl-2,6-octadienyl ester, (E)-
Formula: C16 H28 O2
CAS: 10032-02-7
Molecular weight: 252
Origin: W.Jennings, T.Shibamoto
m/z	RELATIVE INTENSITY
24	190
26	70
29	190
41	2462
42	70
43	2953
47	190
51	390
53	190
54	70
55	390
57	70
60	190
64	190
65	70
66	280
67	791
68	7257
69	9999
70	991
71	2993
72	70
73	70
77	70
79	280
80	3813
81	1191
82	190
83	70
84	280
85	190
91	70
92	1661
93	5935
94	1391
95	390
97	70
99	4634
100	280
104	70
105	70
107	1191
108	591
109	70
117	70
121	3453
122	280
123	480
135	70
136	2793
137	480
154	190
183	190
