Mass Spectrum: 2-Nonynoic acid, ethyl ester
Formula: C11 H18 O2
CAS: 10031-92-2
Molecular weight: 182
Origin: NIST Mass Spectrometry Data Center
m/z	RELATIVE INTENSITY
12	20
14	100
15	550
16	20
17	30
18	70
19	80
26	661
27	6196
28	1291
29	9999
30	300
31	90
37	200
38	981
39	4504
40	741
41	7717
42	1411
43	6466
44	280
45	751
47	711
48	20
49	40
50	490
51	1101
52	931
53	2352
54	500
55	4364
56	540
57	390
58	50
60	50
61	90
62	80
63	230
64	110
65	1061
66	3803
67	8768
68	1822
69	2692
70	540
71	470
72	40
73	230
75	40
77	1061
79	5725
80	951
81	3493
82	581
83	671
84	2522
85	751
86	2212
87	140
88	80
89	20
91	520
92	160
93	1461
94	1271
95	1141
96	240
97	1621
98	520
99	611
100	110
101	70
102	10
103	30
105	130
107	2202
108	961
109	2302
110	290
111	1712
112	661
113	360
114	1231
115	90
117	90
118	20
119	30
121	581
122	50
123	80
125	1892
126	601
127	150
128	20
135	821
136	561
137	4814
138	450
139	591
140	70
141	20
151	20
153	681
154	280
155	70
167	50
