Mass Spectrum: Dihydro-2(3H)-thiophenone
Formula: C4 H6 O S
CAS: 1003-10-7
Molecular weight: 102
Origin: NIST Mass Spectrometry Data Center, 1992
m/z	RELATIVE INTENSITY
12	49
13	99
14	293
15	249
16	3
17	9
18	35
24	31
25	161
26	872
27	1987
28	1258
29	259
30	13
31	3
32	441
33	140
34	91
35	88
36	98
37	435
38	698
39	2492
40	978
41	4473
42	4996
43	265
44	250
45	2743
46	2566
47	556
48	151
49	46
50	47
51	18
52	10
53	58
54	10
55	5740
56	370
57	323
58	568
59	898
60	713
61	120
62	32
64	6
68	153
69	257
70	37
71	203
72	47
73	188
74	177
75	15
76	12
81	13
85	20
87	13
99	9
102	9999
103	492
104	461
105	25
