Mass Spectrum: trans-1-Methoxy-1-butene
Formula: C5 H10 O
CAS: 10034-13-6
Molecular weight: 86
Origin: B. Derendyaev, Novosibirsk Institute of Organic Chemistry
m/z	RELATIVE INTENSITY
12	20
13	40
14	159
15	1149
16	99
17	179
18	669
25	40
26	519
27	3289
28	959
29	2249
30	99
31	489
37	169
38	379
39	2799
40	309
41	8639
42	559
43	1609
44	249
45	849
50	229
51	249
52	80
53	1049
54	409
55	1669
56	699
57	399
58	209
59	90
69	259
70	70
71	9999
72	609
85	629
86	4539
87	239
88	20
