Mass Spectrum: Tetrahydrofuran, 2,2-dimethyl-
Formula: C6 H12 O
CAS: 1003-17-4
Molecular weight: 100
Origin: NIST Mass Spectrometry Data Center, 1990.
m/z	RELATIVE INTENSITY
14	86
15	203
26	149
27	838
28	110
29	620
30	67
31	258
37	68
38	226
39	1681
40	371
41	1627
42	1779
43	9999
44	263
50	136
51	167
52	66
53	349
54	66
55	1736
56	207
57	179
58	720
59	2753
60	94
65	45
67	160
69	154
70	726
71	81
72	113
81	104
83	67
85	7543
86	416
