Mass Spectrum: Butanoic acid, 3-methyl-, hexyl ester
Formula: C11 H22 O2
CAS: 10032-13-0
Molecular weight: 186
Origin: Japan AIST/NIMC Database- Spectrum MS-NW- 664
m/z	RELATIVE INTENSITY
14	10
15	99
17	40
18	199
26	70
27	1569
28	409
29	2489
30	50
31	129
32	30
37	20
38	60
39	1249
40	269
41	4899
42	2549
43	7879
44	279
45	239
50	30
51	60
52	20
53	229
54	269
55	3109
56	6649
57	6689
58	329
59	479
60	1689
61	2659
62	70
63	20
65	20
66	10
67	139
68	90
69	2209
70	209
71	169
72	70
73	30
74	20
77	10
79	10
81	30
82	90
83	399
84	8119
85	9999
86	589
87	1619
88	90
89	90
97	10
98	109
99	109
100	149
101	199
102	809
103	9269
104	549
105	50
111	10
112	20
113	20
114	40
115	249
116	40
117	20
128	20
129	319
130	30
140	10
141	20
142	20
143	70
144	259
145	20
153	10
156	20
157	10
158	10
168	10
171	10
186	50
187	10
