Mass Spectrum: (Z)-CH3CH2CH=CH(OCH3)
Formula: C5 H10 O
CAS: 10034-12-5
Molecular weight: 86
Origin: B. Derendyaev, Novosibirsk Institute of Organic Chemistry
m/z	RELATIVE INTENSITY
12	20
13	30
14	139
15	1049
16	90
17	339
18	1379
25	40
26	539
27	3109
28	999
29	2019
30	90
31	399
37	169
38	379
39	2539
40	309
41	8309
42	539
43	1109
44	199
45	779
50	219
51	219
52	80
53	909
54	349
55	1609
56	669
57	309
58	199
59	80
69	239
70	70
71	9999
72	499
85	629
86	4359
87	249
88	20
