Mass Spectrum: 4-Nitrobenzoic acid, 2-pentyl ester
Formula: C12 H15 N O4
CAS: 100391-69-3
Molecular weight: 237
Origin: V.Zaikin,Topchiev Inst.Petrochem.Synth.,Moscow
m/z	RELATIVE INTENSITY
26	40
27	380
28	90
29	390
30	150
36	40
37	20
38	60
39	400
40	60
41	681
42	801
43	1341
44	50
45	180
46	10
49	20
50	641
51	180
52	40
53	100
54	30
55	1531
56	70
57	10
62	30
63	120
64	200
65	671
66	50
67	30
68	10
69	1041
70	5175
71	430
72	10
73	20
74	200
75	601
76	1461
77	170
78	30
79	30
81	50
87	270
88	10
90	10
91	20
92	701
93	130
94	10
103	120
104	1912
105	170
106	20
109	70
120	571
121	561
122	120
123	30
134	180
135	30
137	250
138	30
149	10
150	9999
151	1301
152	140
153	20
165	90
167	470
168	320
169	170
170	10
173	20
176	70
190	10
192	20
194	210
195	20
221	30
222	20
237	10
