Mass Spectrum: Borazine, 1,3,5-trimethyl-
Formula: C3 H12 B3 N3
CAS: 1004-35-9
Molecular weight: 123
Origin: API 1503
m/z	RELATIVE INTENSITY
2	30
10	10
11	20
12	20
13	80
14	20
15	120
16	10
23	10
24	10
25	30
26	110
27	250
28	420
36	70
37	360
38	601
39	240
40	340
41	380
42	330
43	30
44	10
45	60
46	210
47	10
48	10
49	40
50	40
51	591
52	921
53	681
54	320
55	60
56	20
57	20
59	10
60	70
61	60
62	110
63	170
64	410
65	1381
66	3443
67	3833
68	110
69	10
73	10
74	30
75	90
77	200
78	120
79	130
80	250
81	460
82	20
87	10
88	60
89	320
90	951
91	1281
92	460
93	130
94	60
103	10
104	20
105	200
106	1942
107	7547
108	9999
109	330
110	10
111	10
118	10
119	20
120	80
121	571
122	2202
123	2973
124	130
125	10
