Mass Spectrum: 1H-Imidazole-2-carboxaldehyde, 1-(phenylmethyl)-
Formula: C11 H10 N2 O
CAS: 10045-65-5
Molecular weight: 186
m/z	RELATIVE INTENSITY
51	500
65	1401
91	9999
92	801
130	500
157	7507
158	1201
186	4304
187	500
