Mass Spectrum: Cyclohexanemethanol, 4-methylene-
Formula: C8 H14 O
CAS: 1004-24-6
Molecular weight: 126
Origin: NIST Mass Spectrometry Data Center, 1990.
m/z	RELATIVE INTENSITY
27	726
28	58
29	528
30	58
31	644
38	155
39	1612
40	394
41	1474
42	213
43	476
50	258
51	680
52	316
53	1322
54	264
55	1565
56	189
57	402
62	86
63	231
65	801
66	393
67	4023
68	1021
69	292
70	207
71	123
77	2530
78	551
79	2650
80	1283
81	424
82	91
83	130
91	2650
93	9999
94	946
95	1612
96	148
97	163
105	158
106	106
107	465
108	2150
109	193
126	1160
127	100
