Mass Spectrum: 1-Heptanol, 2-propyl-
Formula: C10 H22 O
CAS: 10042-59-8
Molecular weight: 158
m/z	RELATIVE INTENSITY
13	10
14	50
15	350
16	20
17	20
18	50
19	50
24	10
25	20
26	210
27	3603
28	550
29	4394
30	150
31	2112
32	30
33	20
37	50
38	90
39	1932
40	380
41	6406
42	1872
43	9999
44	490
45	330
46	10
50	50
51	120
52	70
53	520
54	360
55	5325
56	2813
57	6976
58	340
59	100
60	10
62	10
63	30
64	10
65	90
66	70
67	360
68	350
69	2552
70	2913
71	6456
72	370
73	50
75	10
77	60
78	20
79	60
80	30
81	130
82	350
83	1091
84	1992
85	3944
86	340
87	80
91	20
93	10
95	30
96	170
97	1551
98	791
99	80
100	10
101	10
110	50
111	440
112	290
113	30
114	10
115	20
125	30
126	410
127	140
128	20
129	10
140	380
141	40
