Mass Spectrum: 4(1H)-Pyrimidinone, 6-amino-2,3-dihydro-2-thioxo-
Formula: C4 H5 N3 O S
CAS: 1004-40-6
Molecular weight: 143
Origin: Japan AIST/NIMC Database- Spectrum MS-NW-2981
m/z	RELATIVE INTENSITY
12	90
13	70
14	109
15	50
16	50
17	30
18	109
24	30
25	40
26	209
27	1169
28	1509
29	269
30	40
32	719
33	309
34	719
35	20
36	70
38	539
39	1069
40	1159
41	1279
42	1299
43	3049
44	299
45	179
46	119
47	70
48	50
50	40
51	50
52	40
53	119
54	50
55	589
56	239
57	99
58	179
59	1199
60	589
61	70
62	20
64	259
65	149
66	1459
67	1109
68	3969
69	379
70	60
71	40
72	50
73	409
74	30
75	50
76	139
77	10
78	10
79	40
80	109
81	30
82	109
83	159
84	969
85	549
86	60
87	60
88	60
92	10
93	70
95	20
97	20
98	20
99	10
100	40
101	10
109	30
110	439
111	90
112	10
114	30
115	2549
116	259
117	119
118	10
125	90
126	20
127	70
128	10
142	40
143	9999
144	679
145	489
146	30
