Mass Spectrum: p-Decyl-.alpha.-.alpha.-.alpha.-trifluoroacetophenone
Formula: C18 H25 F3 O
CAS: 100444-41-5
Molecular weight: 314
Origin: NIST Mass Spectrometry Data Center, 1994
m/z	RELATIVE INTENSITY
14	5
27	1167
29	2555
30	67
39	781
41	3774
42	550
43	4397
44	148
50	89
51	180
52	49
53	251
54	107
55	1262
56	268
57	1388
58	75
63	170
64	80
65	271
67	107
69	380
70	82
71	492
72	38
75	51
76	114
77	487
78	253
79	102
83	71
85	164
89	556
90	1620
91	3594
92	266
101	27
102	94
103	432
104	379
105	329
109	129
115	305
116	129
117	233
118	1290
119	398
120	40
127	37
128	56
129	64
130	37
131	1173
132	166
133	107
145	134
159	547
160	59
173	99
187	632
188	1638
189	157
201	147
202	91
215	64
217	30
229	84
230	75
245	9999
246	1894
247	208
314	863
315	171
316	15
