Mass Spectrum: Chlorine dioxide
Formula: Cl O2
CAS: 10049-04-4
Molecular weight: 67
m/z	RELATIVE INTENSITY
16	2242
35	971
37	340
51	4034
52	130
53	1321
67	9999
69	3163
