Mass Spectrum: 2-Undecanethiol, 2-methyl-
Formula: C12 H26 S
CAS: 10059-13-9
Molecular weight: 202
m/z	RELATIVE INTENSITY
37	70
38	140
39	3643
41	9999
42	1191
43	7176
44	250
45	80
46	10
47	100
48	10
49	10
50	110
51	350
52	200
53	400
54	561
55	8498
56	2823
57	6045
58	280
59	60
60	60
61	160
62	30
63	80
64	20
65	300
66	150
67	1331
68	601
69	8267
70	4364
71	2112
72	110
73	20
74	70
75	70
76	10
77	320
78	70
79	330
80	70
81	751
82	430
83	4874
84	3123
85	1121
86	70
87	20
88	20
89	40
90	10
91	170
92	20
93	100
94	30
95	480
96	230
97	1932
98	1491
99	240
100	10
101	10
102	10
103	30
104	10
105	30
106	10
107	50
108	20
109	280
110	120
111	641
112	571
113	90
114	10
115	20
116	10
117	20
119	10
121	20
122	10
123	190
124	50
125	230
126	120
127	30
128	10
129	20
130	10
131	20
133	20
135	10
137	120
138	30
139	110
140	90
141	20
143	20
145	10
147	10
148	10
149	10
151	70
152	20
153	20
154	180
155	30
157	10
159	10
165	30
166	30
167	10
168	510
169	70
170	10
