Mass Spectrum: Cyclopentane, (3-methylbutyl)-
Formula: C10 H20
CAS: 1005-68-1
Molecular weight: 140
Origin: D.HENNEBERG, MAX-PLANCK INSTITUTE, MULHEIM, WEST GERMANY
m/z	RELATIVE INTENSITY
27	2030
28	2900
29	2400
36	500
38	200
39	2100
40	400
41	7400
42	1510
43	4700
44	1510
45	100
50	100
51	350
52	100
53	700
54	600
55	7180
56	8490
57	4890
58	310
65	200
66	200
67	1900
68	5600
69	9999
70	3000
71	600
77	300
78	500
79	200
80	100
81	410
82	1300
83	2900
84	2000
85	300
91	200
92	100
95	100
96	300
97	1300
98	500
110	100
111	900
112	700
125	400
140	400
