Mass Spectrum: Pentafluoroguanidine
Formula: C F5 N3
CAS: 10051-06-6
Molecular weight: 149
Origin: A.Pleshkova, Nesmeyanov Inst.Org.Elem.Cpds, Moscow
m/z	RELATIVE INTENSITY
14	1471
15	10
26	1872
27	30
28	1311
29	10
31	8458
32	100
33	7196
34	30
40	1381
41	30
45	1001
46	20
50	1271
51	20
52	5985
53	20
59	2272
60	40
64	3914
65	60
78	8277
79	160
97	9999
98	190
