Mass Spectrum: 2-Propanone, 1-(5-methyl-3H-1,2-dithiol-3-ylidene)-
Formula: C7 H8 O S2
CAS: 1005-55-6
Molecular weight: 172
m/z	RELATIVE INTENSITY
43	2753
44	674
45	899
58	281
59	1292
69	449
71	337
72	449
76	1011
78	281
85	899
97	337
129	393
140	225
157	9999
158	786
159	899
172	7752
173	674
174	674
