Mass Spectrum: 4-Ethyl-2,6,7-trioxa-1-phosphabicyclo[2.2.2]octane 1-oxide
Formula: C6 H11 O4 P
CAS: 1005-93-2
Molecular weight: 178
Origin: NIST Mass Spectrometry Data Center, 1994
m/z	RELATIVE INTENSITY
12	53
15	833
18	37
26	967
27	6955
28	947
29	7018
30	951
31	786
37	207
38	624
39	7878
40	2328
41	5896
42	1554
43	1026
44	184
45	87
46	87
47	3169
48	192
49	105
50	492
51	808
52	466
53	3874
54	869
55	3884
56	1175
57	591
58	63
61	34
62	91
63	496
64	213
65	1858
66	819
67	9999
68	8661
69	1597
70	122
71	259
73	29
77	311
79	7362
80	2117
81	688
82	185
83	1331
84	1910
85	244
86	46
89	49
90	40
91	211
92	40
93	1012
94	30
95	119
96	201
97	163
98	30
99	2404
100	54
101	67
102	115
103	265
104	63
105	273
106	66
107	77
109	104
111	835
113	1417
115	170
116	69
117	96
118	69
119	477
120	236
121	121
122	90
123	675
124	282
125	180
129	71
130	45
131	51
132	45
133	1957
134	107
135	109
136	109
137	128
147	360
148	330
149	1525
150	7544
151	3069
152	198
163	1321
164	94
178	583
179	117
