Mass Spectrum: Quizalofop--p-ethyl
Formula: C19 H17 Cl N2 O4
CAS: 100646-51-3
Molecular weight: 372
Origin: Richard Turcotte. Direction des laboratoires d'expertises et d'analyses alimentaires, Quebec, Canada.
m/z	RELATIVE INTENSITY
50	240
51	100
52	60
53	110
54	90
55	260
56	90
57	30
61	40
62	110
63	390
64	420
65	430
66	50
69	20
73	360
74	180
75	420
76	340
77	100
79	100
80	70
81	230
82	140
84	20
85	60
86	30
87	30
88	70
89	30
90	60
91	611
92	130
93	70
94	50
95	20
97	20
98	30
99	80
100	1131
101	430
102	70
106	20
107	70
108	70
109	370
110	591
111	100
112	40
113	20
114	20
118	20
119	170
120	110
121	170
124	330
125	70
126	150
127	140
128	150
129	50
132	20
134	30
135	80
136	2292
137	330
138	771
139	100
140	30
142	20
149	601
150	100
151	20
152	140
153	100
154	80
155	30
162	40
163	4054
164	641
165	1471
166	200
167	30
173	20
174	30
175	20
179	140
180	150
181	180
182	120
183	30
187	20
188	30
189	80
190	80
191	80
192	811
193	100
200	40
201	30
202	50
203	40
204	20
208	170
209	80
210	20
213	20
214	30
215	360
216	160
217	170
218	70
219	60
220	70
221	50
226	120
227	80
228	100
229	60
230	30
231	20
235	70
236	180
237	190
238	30
241	50
242	50
243	3403
244	3293
245	1521
246	1091
247	150
253	30
254	40
255	1431
256	330
257	500
258	110
259	20
263	20
264	80
270	60
271	1451
272	1521
273	701
274	500
275	80
285	200
286	40
287	60
297	30
298	90
299	9999
300	1862
301	3403
302	591
303	70
337	20
338	20
343	20
372	8858
373	1932
374	3083
375	631
376	90
