Mass Spectrum: 6H-Purine-6-thione, 1,9-dihydro-9-methyl-
Formula: C6 H6 N4 S
CAS: 1006-20-8
Molecular weight: 166
Origin: F. BERGMANN
m/z	RELATIVE INTENSITY
40	1000
41	1000
42	5700
45	1900
52	1400
53	1400
67	1400
70	1900
77	1000
79	1400
82	1000
83	1000
98	1000
106	1000
111	1400
112	1000
133	1000
137	1400
138	1400
139	1400
165	1400
166	9999
167	1400
168	1000
