Mass Spectrum: 1-Propene, 1,3-dichloro-, (E)-
Formula: C3 H4 Cl2
CAS: 10061-02-6
Molecular weight: 110
Origin: NIST Mass Spectrometry Data Center, 1998.
m/z	RELATIVE INTENSITY
12	10
13	10
14	10
15	10
24	20
25	70
26	230
27	150
35	270
36	290
37	1040
38	1290
39	5129
40	300
41	10
47	350
48	350
49	2430
50	140
51	760
52	10
53	10
54	20
55	10
59	20
60	110
61	170
62	50
63	60
71	50
72	140
73	670
74	140
75	9999
76	360
77	3280
78	110
82	10
83	210
84	10
85	130
87	20
107	10
109	150
110	2690
111	180
112	1720
113	70
114	280
115	10
