Mass Spectrum: Isoxazole, 3-phenyl-
Formula: C9 H7 N O
CAS: 1006-65-1
Molecular weight: 145
m/z	RELATIVE INTENSITY
25	521
26	237
27	426
37	142
38	332
39	1066
50	1351
51	4099
52	237
61	261
62	616
63	1185
64	261
65	190
74	640
75	521
76	829
77	7890
78	782
86	118
87	118
88	95
89	2346
90	1540
91	213
103	403
104	166
105	166
116	2654
117	1445
118	118
144	9999
145	9738
146	853
