Mass Spectrum: 3-Pyridinol, 4-methyl-, acetate (ester)
Formula: C8 H9 N O2
CAS: 1006-96-8
Molecular weight: 151
Origin: L.BAUER UNIV. OF ILLINOIS, CHICAGO, ILLINOIS, USA
m/z	RELATIVE INTENSITY
39	900
43	8100
50	700
51	900
52	900
53	1800
80	2800
81	500
91	600
108	400
109	9999
110	800
123	500
151	1500
152	100
