Mass Spectrum: Naphthalene, 1,4-bis(methylthio)-
Formula: C12 H12 S2
CAS: 10075-73-7
Molecular weight: 220
m/z	RELATIVE INTENSITY
24	10
25	10
26	70
27	180
28	80
29	10
30	10
31	10
32	70
33	110
34	40
35	20
36	10
37	60
38	150
39	510
40	30
41	20
42	10
43	10
44	100
45	1722
46	460
47	430
48	130
49	40
50	430
51	470
52	90
53	20
54	10
55	10
56	10
57	50
58	90
59	30
60	20
61	130
62	410
63	811
64	120
65	70
66	70
67	50
68	20
69	991
70	120
71	120
72	50
73	110
74	561
75	530
76	310
77	210
78	40
79	360
80	70
81	140
82	420
83	60
84	40
85	220
86	601
87	410
88	280
89	230
90	30
91	30
92	70
93	390
94	220
95	571
96	70
97	30
98	170
99	140
100	90
101	260
102	711
103	90
104	10
105	60
106	90
107	40
108	90
109	30
110	771
111	100
112	30
113	591
114	1641
115	821
116	100
117	120
118	30
119	80
120	220
121	130
122	60
123	20
124	10
125	40
126	310
127	290
128	601
129	230
130	30
131	10
132	70
133	20
134	40
135	10
136	10
137	10
138	10
139	80
140	20
141	130
142	20
143	10
144	50
145	961
146	1321
147	230
148	70
149	10
150	10
151	10
152	10
153	10
154	10
155	10
156	40
157	120
158	2552
159	530
160	200
161	1121
162	140
163	60
164	30
165	10
166	10
167	10
168	10
169	50
170	100
171	1011
172	591
173	220
174	200
175	50
176	20
177	20
178	10
179	10
187	20
188	30
189	440
190	1792
191	280
192	190
193	20
194	10
195	10
201	30
202	50
203	170
204	160
205	9208
206	1151
207	881
208	100
209	30
210	10
219	20
220	9999
221	1301
222	941
223	120
224	30
225	10
