Mass Spectrum: Urea, N-methyl-N'-phenyl-
Formula: C8 H10 N2 O
CAS: 1007-36-9
Molecular weight: 150
Origin: James Little,Eastman Chem.Co.,Kingsport,TN
m/z	RELATIVE INTENSITY
27	470
28	1932
30	641
38	781
39	1661
40	370
41	370
50	601
51	801
52	460
58	2052
62	380
63	761
64	681
65	2282
66	1201
74	160
76	100
77	611
78	120
91	550
92	1071
93	9999
94	671
106	70
119	310
120	90
134	20
149	30
150	941
151	130
152	10
