Mass Spectrum: Cyclopropyl phenylmethanol
Formula: C10 H12 O
CAS: 1007-03-0
Molecular weight: 148
Origin: NIST Mass Spectrometry Data Center, 1992
m/z	RELATIVE INTENSITY
13	13
14	44
15	155
16	5
17	46
18	222
19	14
25	14
26	175
27	976
28	235
29	434
30	31
31	143
37	92
38	285
39	1765
40	191
41	927
42	170
43	342
44	8
45	40
46	19
47	6
50	828
51	2098
52	459
53	382
54	45
55	418
56	24
57	74
59	13
60	23
61	54
62	203
63	548
64	250
65	664
66	166
69	480
70	36
71	41
72	18
73	52
74	260
75	221
76	13
77	3986
78	1874
79	2699
80	177
81	10
85	23
86	49
87	45
88	37
89	289
90	10
91	5519
92	830
93	70
94	14
97	8
98	27
99	8
100	9
101	46
102	222
103	347
104	2510
105	1998
106	223
107	927
108	67
109	11
113	19
115	802
116	230
117	473
118	142
119	11
120	9999
121	891
122	61
125	6
126	41
127	201
128	404
129	386
130	223
131	106
132	27
133	53
134	6
144	12
145	35
146	45
147	95
148	117
149	20
