Mass Spectrum: (CH3)3CCH2N(CH3)2
Formula: C7 H17 N
CAS: 10076-31-0
Molecular weight: 115
Origin: V.V.Takhistov
m/z	RELATIVE INTENSITY
29	320
30	530
39	250
42	851
43	270
44	751
55	140
56	130
57	210
58	9999
59	420
70	140
82	30
84	130
85	300
100	801
101	60
115	621
116	60
