Mass Spectrum: Pyridine, 3-phenyl-
Formula: C11 H9 N
CAS: 1008-88-4
Molecular weight: 155
Origin: Japan AIST/NIMC Database- Spectrum MS-NW-8385
m/z	RELATIVE INTENSITY
17	20
18	20
26	60
27	90
28	30
37	30
38	70
39	269
40	20
41	10
43	10
44	10
49	30
50	469
51	929
52	259
53	40
61	60
62	169
63	489
64	499
65	50
73	30
74	319
75	349
76	509
77	559
78	229
79	20
85	20
86	60
87	109
88	40
89	109
90	20
91	30
97	10
98	80
99	50
100	60
101	219
102	999
103	139
104	30
105	10
113	30
114	20
115	289
116	60
117	10
125	40
126	369
127	1129
128	959
129	289
130	30
140	129
141	20
152	70
153	219
154	3889
155	9999
156	1219
157	70
