Mass Spectrum: 5-(4-Aminophenyl)oxazole
Formula: C9 H8 N2 O
CAS: 1008-95-3
Molecular weight: 160
Origin: NIST Mass Spectrometry Data Center, 1994
m/z	RELATIVE INTENSITY
13	61
15	4
18	91
26	67
27	138
29	199
30	66
37	176
38	460
39	1140
40	1031
41	561
42	147
44	27
49	100
50	715
51	1349
52	1110
54	231
55	31
61	185
62	397
63	716
64	421
65	1848
66	682
68	136
73	42
74	62
75	356
76	600
77	1575
78	1181
79	137
80	371
86	63
87	72
88	72
89	144
90	117
91	184
92	1592
93	195
102	170
104	4364
105	2907
106	236
116	34
117	51
120	2497
121	185
129	75
131	1386
132	1554
133	213
160	9999
161	1051
162	76
