Mass Spectrum: Isoxazole, 5-methyl-3-phenyl-
Formula: C10 H9 N O
CAS: 1008-74-8
Molecular weight: 159
m/z	RELATIVE INTENSITY
27	405
38	190
39	1809
43	2357
44	95
50	738
51	2309
52	238
62	309
63	952
64	286
74	524
75	524
76	667
77	5380
78	524
89	1428
90	1286
91	238
102	143
103	286
104	190
105	238
106	190
116	3119
117	2309
118	238
126	95
127	262
128	238
144	9999
145	1024
146	167
159	6833
160	881
161	167
