Mass Spectrum: Isoxazole, 3-methyl-5-phenyl-
Formula: C10 H9 N O
CAS: 1008-75-9
Molecular weight: 159
m/z	RELATIVE INTENSITY
37	141
38	329
39	941
40	188
41	165
50	1929
51	4517
52	682
53	353
54	1129
55	282
61	1388
62	612
63	1176
64	635
65	188
74	894
75	753
76	965
77	8870
78	1223
82	3011
83	259
89	2212
90	1929
91	518
92	118
102	635
103	894
104	3882
105	9999
106	753
127	94
128	141
130	1953
131	282
158	235
159	8987
160	1059
161	71
