Mass Spectrum: 2,4,6-Triethyltriazine
Formula: C9 H15 N3
CAS: 1009-74-1
Molecular weight: 165
Origin: NIST Mass Spectrometry Data Center, 1990.
m/z	RELATIVE INTENSITY
14	13
15	82
26	217
27	950
28	2155
29	1115
32	57
39	244
40	305
41	321
42	179
51	85
52	383
53	627
54	2644
55	4213
56	9999
57	401
66	174
67	159
68	96
75	170
79	118
80	85
81	740
82	551
83	61
95	209
109	160
110	82
111	41
122	665
123	69
136	70
137	222
138	83
150	1278
151	129
164	2340
165	4943
166	487
