Mass Spectrum: 1-Butanone, 1-(4-hydroxyphenyl)-
Formula: C10 H12 O2
CAS: 1009-11-6
Molecular weight: 164
Origin: RADIAN CORP
m/z	RELATIVE INTENSITY
26	20
27	150
37	20
38	110
39	730
41	200
42	50
43	140
50	90
51	60
52	30
53	200
54	20
55	140
61	40
62	130
63	370
64	240
65	1670
66	180
67	30
69	20
71	20
72	10
74	90
75	60
76	30
77	170
78	30
79	30
89	20
91	50
92	210
93	1750
94	180
95	20
103	20
105	10
107	90
115	10
119	20
120	80
121	9999
122	770
123	70
131	20
135	10
136	780
137	70
146	70
147	30
149	80
163	130
164	990
165	110
