Mass Spectrum: 1,3-Dioxolane, 2-(phenylmethyl)-
Formula: C10 H12 O2
CAS: 101-49-5
Molecular weight: 164
Origin: D.H.WILLIAMS CHEMISTRY DEPT., UNIVERSITY OF CAMBRIDGE
m/z	RELATIVE INTENSITY
27	200
28	500
29	200
31	130
32	150
39	400
41	100
43	250
44	100
45	850
46	200
47	200
50	200
51	300
52	100
62	100
63	200
64	100
65	500
73	9999
74	450
75	230
76	100
77	300
78	200
79	100
87	100
89	200
90	100
91	2100
92	300
102	200
103	350
104	200
105	300
106	100
117	100
120	200
121	100
149	100
163	100
164	150
