Mass Spectrum: Benzenamine, N-phenyl-4-(phenylazo)-
Formula: C18 H15 N3
CAS: 101-75-7
Molecular weight: 273
Origin: NIST Mass Spectrometry Data Center, 1994
m/z	RELATIVE INTENSITY
26	18
27	158
28	102
32	2
37	43
38	127
39	458
40	35
41	44
50	453
51	1695
52	265
53	20
62	89
63	428
64	302
65	502
66	68
70	21
74	93
75	124
77	3246
78	318
79	39
80	11
84	101
87	22
88	47
89	161
90	176
91	137
92	64
93	23
101	61
102	74
103	67
104	44
105	96
106	10
113	62
114	115
115	576
116	111
117	64
125	14
126	46
127	85
128	208
129	43
130	41
137	106
139	548
140	425
141	262
142	59
150	12
151	39
152	95
153	82
154	19
155	10
164	45
166	1401
167	8329
168	9999
169	1266
170	88
178	14
179	30
181	89
182	2
183	6
184	4
185	13
196	630
197	89
202	22
204	11
215	15
217	18
228	13
241	34
242	45
243	49
244	41
245	36
273	5334
274	1119
275	111
276	6
