Mass Spectrum: Benzeneacetic acid, ethyl ester
Formula: C10 H12 O2
CAS: 101-97-3
Molecular weight: 164
Origin: V.Zaikin,Topchiev Inst.Petrochem.Synth.,Moscow
m/z	RELATIVE INTENSITY
27	480
28	100
29	1141
30	90
36	40
37	60
38	170
39	781
40	110
41	220
42	60
43	70
44	100
45	70
46	20
50	280
51	410
52	140
53	60
55	50
57	30
61	60
62	230
63	701
64	260
65	1421
66	70
74	50
75	40
76	30
77	170
78	50
79	50
81	20
83	40
85	30
86	90
87	40
88	50
89	540
90	500
91	9999
92	1241
93	50
105	130
106	30
107	20
118	90
119	170
136	40
163	30
164	1301
165	190
