Mass Spectrum: 2,5-Cyclohexadien-1-one, 2,6-dichloro-4-(chloroimino)-
Formula: C6 H2 Cl3 N O
CAS: 101-38-2
Molecular weight: 209
Origin: Japan AIST/NIMC Database- Spectrum MS-NW-1678
m/z	RELATIVE INTENSITY
12	80
13	10
16	10
18	20
24	149
25	649
26	189
27	40
28	179
29	40
31	10
35	309
36	569
37	719
38	289
39	80
40	20
41	20
43	30
44	90
47	429
48	369
49	639
50	929
51	2599
52	1379
53	3659
54	189
55	229
56	80
57	20
59	149
60	3349
61	599
62	1459
63	349
64	129
65	109
66	90
67	50
69	10
71	99
72	399
73	229
74	289
75	839
76	1339
77	119
78	149
79	40
80	109
81	10
83	169
84	349
85	1109
86	5539
87	979
88	2079
89	229
90	149
91	70
92	30
94	60
95	219
96	119
97	219
98	80
99	60
100	10
104	40
105	30
106	20
107	149
108	10
109	139
110	3399
111	899
112	1699
113	609
114	3109
115	249
116	949
117	50
118	40
119	619
120	519
121	1629
122	409
123	5549
124	289
125	3109
126	139
127	479
128	20
130	10
131	10
132	20
133	10
134	10
138	10
139	129
140	949
141	139
142	309
143	30
145	40
146	4349
147	489
148	3489
149	359
150	969
151	80
152	90
153	20
154	30
155	10
156	30
157	10
158	10
167	10
169	10
174	2419
175	1889
176	1759
177	1209
178	379
179	189
180	30
181	1199
182	90
183	1189
184	90
185	369
186	30
187	40
188	20
190	20
209	9999
210	729
211	9459
212	719
213	3119
214	229
215	329
216	30
