Mass Spectrum: Carbamic acid, phenyl-, ethyl ester
Formula: C9 H11 N O2
CAS: 101-99-5
Molecular weight: 165
Origin: NIST Mass Spectrometry Data Center, 1994
m/z	RELATIVE INTENSITY
14	78
15	291
16	30
18	43
19	44
26	393
27	2387
28	781
29	6457
30	279
31	237
37	243
38	734
39	2536
40	451
41	323
42	109
43	176
44	125
45	393
46	59
50	506
51	1195
52	513
53	134
54	124
60	31
61	100
62	248
63	894
64	1237
65	3749
66	2672
67	248
73	32
74	113
75	91
76	31
77	1972
78	319
79	957
80	134
81	25
87	19
88	21
91	990
92	2403
93	9999
94	773
95	32
103	49
104	108
106	6027
107	487
108	28
119	898
120	998
121	112
136	123
137	550
138	44
165	4458
166	434
167	39
