Mass Spectrum: 3-Hydroxydiphenylamine
Formula: C12 H11 N O
CAS: 101-18-8
Molecular weight: 185
Origin: NIST Mass Spectrometry Data Center
m/z	RELATIVE INTENSITY
27	50
29	10
37	20
38	80
39	410
40	40
41	30
42	10
43	10
50	140
51	500
52	200
53	170
54	40
55	40
61	20
62	80
63	310
64	210
65	490
66	230
67	30
68	60
69	60
70	70
74	60
75	70
76	90
77	721
78	210
79	70
80	140
81	110
82	190
83	320
85	20
87	10
88	20
89	110
90	80
91	220
92	190
94	30
101	40
102	90
103	110
104	110
105	20
106	10
107	10
108	10
109	10
113	20
114	40
115	250
116	140
117	280
118	40
119	10
120	30
126	50
127	340
128	631
129	711
130	410
131	90
132	10
133	10
138	10
139	280
140	190
141	90
142	60
143	30
144	90
145	30
146	10
152	10
153	40
154	801
155	270
156	1001
157	220
158	100
159	50
164	20
165	20
166	1181
167	841
168	440
169	60
170	130
171	10
182	80
183	771
184	4114
185	9999
186	1431
187	110
