Mass Spectrum: Benzeneacetic acid, methyl ester
Formula: C9 H10 O2
CAS: 101-41-7
Molecular weight: 150
Origin: NIST Mass Spectrometry Data Center
m/z	RELATIVE INTENSITY
14	10
15	100
26	10
27	30
28	10
29	70
30	30
31	20
37	30
38	100
39	561
40	50
41	120
42	20
43	20
44	20
45	100
49	10
50	200
51	360
52	110
53	30
59	631
60	20
61	60
62	200
63	581
64	170
65	1511
66	90
73	10
74	50
75	40
76	30
77	150
78	100
79	70
85	20
86	40
87	30
88	10
89	691
90	390
91	9999
92	981
93	40
103	10
104	10
105	170
106	30
107	20
108	30
118	160
119	270
120	20
121	30
122	10
135	30
149	80
150	3683
151	380
152	30
