Mass Spectrum: Anilazine
Formula: C9 H5 Cl3 N4
CAS: 101-05-3
Molecular weight: 274
Origin: MASS SPECTROMETRY CENTER, UNIV. OF UTAH EPA-PTSEL 2920
m/z	RELATIVE INTENSITY
12	48
14	17
16	5
26	244
27	505
28	1116
29	39
32	442
35	404
36	522
37	591
38	1143
39	1167
40	231
41	265
44	180
45	100
47	251
49	353
50	1039
51	766
52	693
53	457
58	76
61	699
62	2332
63	1639
64	1485
65	405
66	60
67	54
68	58
72	39
73	716
74	569
75	1904
76	423
77	272
78	261
84	108
85	216
86	58
87	1934
88	977
89	1758
90	1863
91	347
97	41
98	58
99	1019
100	127
101	350
102	94
106	370
107	236
111	1069
112	129
113	364
115	167
116	260
117	420
124	246
125	408
126	151
127	139
142	74
143	3323
144	315
151	201
152	715
153	69
154	261
169	156
172	190
174	63
177	463
178	3504
179	538
180	1126
181	72
197	62
203	83
212	68
235	10
239	9999
240	1262
241	6642
242	795
243	1126
244	134
274	940
275	187
276	889
277	171
278	296
