Mass Spectrum: Phenacaine
Formula: C18 H22 N2 O2
CAS: 101-93-9
Molecular weight: 298
Origin: Dr. Jiri Zamecnik, DCIEM, North York, Canada, GP Library
m/z	RELATIVE INTENSITY
39	230
53	80
63	110
64	370
65	1080
76	160
77	420
78	80
91	200
92	130
93	450
105	270
108	370
109	280
117	80
121	120
133	330
134	1190
137	1860
146	20
162	9999
163	1080
164	50
170	20
183	10
198	10
200	10
211	20
212	10
223	10
225	10
228	20
239	10
240	20
241	30
253	10
257	20
267	20
268	20
269	80
297	140
298	1660
299	330
