Mass Spectrum: Butanamide, N-(4-chlorophenyl)-3-oxo-
Formula: C10 H10 Cl N O2
CAS: 101-92-8
Molecular weight: 211
Origin: Japan AIST/NIMC Database- Spectrum MS-NW-5917
m/z	RELATIVE INTENSITY
14	40
15	299
26	40
27	149
28	70
29	60
36	30
37	70
38	169
39	349
40	50
41	90
42	169
43	4939
44	129
45	30
47	10
49	40
50	139
51	109
52	90
53	20
54	20
55	40
57	30
58	959
59	40
61	50
62	149
63	439
64	239
65	409
66	50
67	20
69	149
70	10
72	20
73	259
74	70
75	289
76	60
77	70
78	30
84	70
85	569
86	20
87	20
88	20
89	70
90	259
91	279
92	399
93	50
97	10
98	40
99	549
100	219
101	189
102	70
103	10
104	30
105	30
106	10
111	169
112	30
113	60
114	10
125	199
126	239
127	9999
128	809
129	3209
130	239
132	10
133	70
134	30
138	20
140	90
142	30
151	10
152	20
153	1389
154	169
155	469
156	50
168	60
169	30
170	20
171	10
211	3289
212	399
213	1099
214	139
215	10
