Mass Spectrum: 3-Chlorodiphenylamine
Formula: C12 H10 Cl N
CAS: 101-17-7
Molecular weight: 203
Origin: Japan AIST/NIMC Database- Spectrum MS-NW-3839
m/z	RELATIVE INTENSITY
14	10
26	20
27	90
28	50
36	20
37	60
38	149
39	479
40	70
41	50
43	30
49	30
50	319
51	799
52	159
53	10
54	10
57	20
61	50
62	99
63	339
64	199
65	579
66	399
67	30
69	169
70	309
71	50
73	90
74	129
75	379
76	119
77	609
78	99
82	149
83	1099
84	219
85	50
86	20
87	30
88	30
89	90
90	90
91	119
92	90
93	30
98	10
99	109
100	159
101	109
102	90
103	20
104	60
111	129
112	30
113	80
114	60
115	219
116	50
117	30
119	10
124	10
125	20
126	30
127	80
128	70
129	30
137	20
138	60
139	339
140	249
141	499
142	80
143	20
149	20
151	40
152	30
153	40
154	10
162	20
163	10
164	60
165	50
166	639
167	4859
168	1559
169	179
170	10
173	10
175	20
176	60
177	60
178	30
179	20
188	60
189	10
190	20
200	10
201	179
202	939
203	9999
204	1639
205	3259
206	429
207	20
