Mass Spectrum: Ethanol, 2-[methyl(phenylmethyl)amino]-
Formula: C10 H15 N O
CAS: 101-98-4
Molecular weight: 165
Origin: RADIAN CORP
m/z	RELATIVE INTENSITY
29	80
31	200
39	310
41	140
42	760
43	200
44	330
45	40
50	80
51	230
52	30
62	10
63	260
64	50
65	1220
66	60
67	30
72	20
77	130
88	80
89	260
90	100
91	9999
92	750
120	60
132	80
134	3700
135	350
165	40
