Mass Spectrum: Benzenamine, 4,4'-methylenebis[N,N-dimethyl-
Formula: C17 H22 N2
CAS: 101-61-1
Molecular weight: 254
Origin: NIST Mass Spectrometry Data Center, 1998.
m/z	RELATIVE INTENSITY
15	20
27	20
28	10
29	10
38	10
39	60
40	10
41	30
42	210
43	40
44	50
50	40
51	90
52	40
53	20
54	10
55	10
56	10
58	10
62	20
63	110
64	40
65	150
66	40
67	20
68	30
69	20
70	30
71	10
74	10
75	30
76	100
77	220
78	130
79	50
80	10
82	90
84	60
86	10
87	20
88	20
89	210
90	190
91	500
93	30
94	30
96	90
97	120
98	40
100	10
101	20
102	50
104	280
105	230
107	10
108	10
109	20
110	90
111	100
113	30
114	20
115	120
116	50
117	230
118	1710
119	660
120	410
121	60
122	10
124	10
125	140
126	1770
127	1030
129	30
130	30
131	30
132	540
133	310
134	2520
135	260
136	20
137	10
138	10
139	80
140	40
141	50
142	40
143	10
144	30
145	10
146	30
147	30
150	20
151	60
152	210
153	150
154	80
155	30
156	10
157	10
158	30
159	10
161	10
162	10
163	70
164	110
165	850
166	410
167	150
168	60
169	20
170	30
171	20
172	10
176	10
177	40
178	80
179	70
180	100
181	50
182	50
183	30
184	40
185	10
190	20
191	30
192	100
193	120
194	450
195	230
196	100
197	40
198	30
205	10
206	20
207	60
208	380
209	380
210	3350
211	590
212	50
219	10
220	10
221	170
222	80
223	230
224	130
225	20
235	40
237	1730
238	520
239	410
240	70
241	10
251	60
253	8009
254	9999
255	1950
256	180
257	10
