Mass Spectrum: Hyoscyamine
Formula: C17 H23 N O3
CAS: 101-31-5
Molecular weight: 289
Origin: Japan AIST/NIMC Database- Spectrum MS-NW-5966
m/z	RELATIVE INTENSITY
15	50
17	10
18	30
27	80
28	80
29	50
30	70
31	109
32	10
38	10
39	179
40	30
41	339
42	919
43	99
44	169
50	30
51	119
52	30
53	90
54	99
55	239
56	149
57	169
58	60
62	20
63	60
64	20
65	169
66	30
67	839
68	219
69	50
70	139
71	20
74	10
75	10
76	10
77	359
78	99
79	169
80	90
81	239
82	1889
83	1779
84	179
85	10
86	10
89	109
90	159
91	409
92	60
93	119
94	1489
95	749
96	899
97	309
98	99
99	10
102	20
103	489
104	99
105	20
106	10
107	40
108	80
109	30
110	20
112	40
117	10
118	80
119	10
120	40
121	219
122	129
123	379
124	9999
125	959
126	50
129	10
135	10
136	20
140	839
141	90
142	10
148	10
149	10
200	20
258	20
259	20
261	20
271	129
272	159
273	30
274	10
288	10
289	2159
290	439
291	60
