Mass Spectrum: Naphthalene, 2,3-dimethoxy-
Formula: C12 H12 O2
CAS: 10103-06-7
Molecular weight: 188
Origin: NIST Mass Spectrometry Data Center
m/z	RELATIVE INTENSITY
14	10
15	160
26	10
27	20
28	30
29	60
30	20
31	10
37	10
38	50
39	170
40	10
41	10
43	10
45	10
49	20
50	310
51	450
52	160
53	50
55	10
57	60
61	60
62	270
63	561
64	100
65	90
66	10
71	30
72	10
73	20
74	350
75	540
76	631
77	260
78	30
79	10
86	170
87	250
88	270
89	220
90	20
91	420
92	30
94	450
97	10
98	90
99	60
100	60
101	490
102	3773
103	350
104	20
105	10
109	10
110	30
111	20
112	10
113	440
114	671
115	4354
116	611
117	1471
118	150
119	10
122	10
125	30
126	430
127	2012
128	490
129	270
130	961
131	170
132	10
140	10
141	20
142	110
143	350
144	300
145	3083
146	340
147	20
155	70
156	30
157	170
158	130
159	50
170	10
171	140
172	210
173	1141
174	140
175	10
185	10
188	9999
189	1331
190	120
191	10
