Mass Spectrum: 9H-Purine-9-acetic acid, 6-[(p-chlorophenyl)amino)-, ethyl ester
Formula: C15 H14 Cl N5 O2
CAS: 101103-22-4
Molecular weight: 331
Origin: Div. of Experiment Therapeutics WRAIR, WRAMC, Washington DC 20307
m/z	RELATIVE INTENSITY
41	1679
42	683
43	390
45	301
47	19
48	4
49	59
50	438
51	613
52	839
53	505
54	184
55	262
57	616
58	193
59	262
60	96
61	76
62	158
63	556
64	301
65	403
66	405
67	498
68	83
69	52
70	23
71	34
72	8
73	265
74	180
75	1417
76	348
77	709
78	436
79	666
80	122
81	30
82	4
83	11
84	37
85	305
86	61
87	116
88	151
89	153
90	260
91	169
92	302
93	163
94	400
95	45
97	51
98	114
99	392
100	106
101	178
102	314
103	97
104	122
105	101
106	87
107	63
108	4
109	39
110	30
111	1978
112	425
113	528
114	691
115	237
116	88
117	87
118	68
119	194
120	129
121	158
122	100
123	517
124	120
125	310
126	166
127	343
128	61
129	246
130	28
131	115
132	20
133	38
134	19
135	34
136	64
137	250
138	534
139	170
140	258
141	249
142	397
143	81
144	36
146	23
147	11
148	242
149	167
150	301
151	153
152	243
153	143
154	99
155	146
156	60
157	18
158	17
162	34
163	133
164	36
165	120
166	126
167	158
168	291
169	482
170	69
171	38
175	304
176	362
177	360
178	200
179	102
180	36
181	45
182	100
183	34
184	16
187	27
189	120
190	121
191	63
192	50
193	20
194	149
195	379
196	345
197	57
201	67
202	320
203	229
204	286
205	100
206	69
207	11
208	24
209	191
210	74
211	14
214	27
216	56
217	59
218	41
219	25
220	21
221	28
222	1128
223	508
224	86
229	172
230	109
231	431
232	92
233	119
234	18
239	4
241	16
243	101
244	1205
245	194
246	414
247	54
248	5
256	784
257	206
258	2906
259	543
260	598
261	124
262	4
267	55
268	242
269	27
274	48
276	16
281	128
282	23
284	5
286	444
287	62
288	137
289	12
295	78
296	140
297	22
302	4140
303	711
304	1386
305	234
306	23
316	213
317	145
318	72
319	44
320	11
330	4511
331	9999
332	1936
333	3384
334	648
335	158
336	10
