Mass Spectrum: 1H-Imidazole-2-carboxaldehyde
Formula: C4 H4 N2 O
CAS: 10111-08-7
Molecular weight: 96
m/z	RELATIVE INTENSITY
39	601
40	2702
41	4504
42	1001
67	1501
68	5805
69	500
95	601
96	9999
97	701
