Mass Spectrum: 4-Hydroxybenzaldehyde, TMS derivative
Formula: C10 H14 O2 Si
CAS: 1012-12-0
Molecular weight: 194
Origin: NIST Mass Spectrometry Data Center
m/z	RELATIVE INTENSITY
27	10
29	70
31	10
37	10
38	30
39	140
40	10
41	10
42	30
43	310
44	90
45	631
46	40
47	150
48	10
49	10
50	160
51	400
52	30
53	110
54	20
55	90
56	20
57	50
58	60
59	220
60	100
61	200
62	90
63	190
64	80
65	380
66	60
67	90
68	40
69	110
70	30
71	40
72	50
73	1782
74	340
75	1141
76	260
77	841
78	90
79	120
80	10
81	90
82	70
83	100
84	10
85	100
86	10
87	20
88	20
89	1231
90	180
91	961
92	110
93	130
94	20
95	601
96	70
97	80
98	10
99	30
102	10
103	50
104	30
105	420
106	50
107	80
108	20
109	110
110	20
111	30
112	10
115	10
117	20
118	10
119	90
120	70
121	260
122	40
123	270
124	40
125	30
131	90
132	20
133	190
134	50
135	1031
136	130
137	160
138	20
139	10
147	60
148	40
149	621
150	110
151	6206
152	881
153	350
154	30
161	841
162	120
163	120
164	20
165	20
166	10
177	90
178	10
179	9999
180	1491
181	480
182	40
193	601
194	8087
195	1281
196	390
197	50
