Mass Spectrum: Benzene, 1,4-bis(1,1-dimethylethyl)-
Formula: C14 H22
CAS: 1012-72-2
Molecular weight: 190
Origin: NIST Mass Spectrometry Data Center, 1990.
m/z	RELATIVE INTENSITY
14	50
15	125
16	22
27	231
28	293
29	339
32	77
39	515
41	1365
42	75
43	64
44	27
50	98
51	349
52	87
53	166
54	19
55	190
56	19
57	1766
58	150
62	38
63	204
64	300
65	674
66	224
67	45
69	48
70	57
71	144
72	62
74	38
75	80
76	128
77	667
78	249
79	368
80	285
87	30
88	17
89	175
90	17
91	1461
92	136
93	68
101	37
102	156
103	280
104	105
105	582
106	55
107	32
115	914
116	300
117	981
118	179
119	399
120	48
121	26
126	30
127	162
128	456
129	303
130	143
131	430
132	137
133	216
134	48
139	25
141	72
142	37
143	62
144	25
145	997
146	151
147	332
148	38
159	304
160	1252
161	178
173	23
175	9999
176	1469
177	103
190	1283
191	207
