Mass Spectrum: 2,3,5-Trimethyl-6-isopentylpyrazine
Formula: C12 H20 N2
CAS: 10132-43-1
Molecular weight: 192
Origin: Philip Morris R&D
m/z	RELATIVE INTENSITY
36	22
37	0
38	19
39	354
40	58
41	380
42	603
43	123
44	14
47	0
50	19
51	92
52	154
53	1040
54	365
55	102
56	24
57	25
58	3
60	1
61	1
63	6
64	6
65	82
66	81
67	150
68	62
69	15
70	12
72	1
73	12
74	11
75	2
76	1
77	44
78	13
79	36
80	188
81	80
82	10
83	3
86	2
87	2
88	3
91	22
92	9
93	33
94	293
95	59
96	9
97	1
98	5
104	3
105	2
106	11
107	21
108	28
109	44
110	53
111	8
117	1
118	10
119	12
120	4
121	180
122	77
123	25
132	5
133	13
134	22
135	950
136	9999
137	993
138	39
139	0
145	1
146	8
147	58
148	12
149	879
150	204
151	15
159	22
160	12
161	52
162	15
163	96
164	10
165	0
173	4
174	5
175	22
176	1
177	651
178	90
179	2
190	0
191	72
192	19
193	9
