Mass Spectrum: Butane, 1,1,3-trimethoxy-
Formula: C7 H16 O3
CAS: 10138-89-3
Molecular weight: 148
Origin: Chuck Anderson, Aldrich Chemical Co.
m/z	RELATIVE INTENSITY
14	11
15	336
16	8
17	2
26	26
27	236
28	144
29	819
30	46
31	992
32	35
33	221
34	3
37	7
38	23
39	328
40	65
41	561
42	236
43	1018
44	48
45	435
46	1
47	1323
48	30
49	4
50	13
51	36
52	9
53	135
54	31
55	303
56	41
57	84
58	771
59	9410
60	311
61	34
66	2
68	17
69	87
70	12
71	292
72	32
73	89
75	9999
76	315
77	46
78	2
83	20
84	53
85	378
86	76
87	31
88	74
89	87
90	5
99	5
101	1239
102	64
103	8
115	63
116	210
117	777
118	50
119	4
131	2
133	133
134	8
147	12
