Mass Spectrum: 1,2-Cyclohexanedicarboxylic acid, diethyl ester
Formula: C12 H20 O4
CAS: 10138-59-7
Molecular weight: 228
Origin: Japan AIST/NIMC Database- Spectrum MS-NW-3822
m/z	RELATIVE INTENSITY
14	10
15	189
16	10
18	10
26	139
27	1449
28	299
29	4189
30	99
31	169
32	50
36	10
38	30
39	739
40	129
41	1479
42	129
43	739
44	70
45	229
46	10
47	70
50	40
51	119
52	90
53	679
54	929
55	999
56	159
57	189
58	30
59	70
60	80
61	80
63	20
65	109
66	429
67	1769
68	379
69	309
70	80
71	70
72	10
73	399
74	70
75	20
76	10
77	219
78	60
79	879
80	2889
81	9999
82	1679
83	509
84	50
85	119
86	159
87	129
88	399
89	40
90	10
91	60
92	20
93	20
94	90
95	99
96	80
97	249
98	60
99	379
100	159
101	319
102	30
103	10
104	10
105	60
106	10
107	80
108	2869
109	3409
110	399
111	129
112	70
113	119
114	109
115	219
116	10
117	20
118	40
119	60
120	10
123	10
124	80
125	689
126	569
127	789
128	399
129	70
130	10
131	20
135	30
136	309
137	30
138	30
139	60
140	639
141	169
142	40
143	20
145	20
153	80
154	5359
155	2189
156	589
157	60
164	30
168	90
169	199
170	30
173	20
174	30
181	10
182	2199
183	4659
184	519
185	60
186	10
228	119
229	10
