Mass Spectrum: 1-Dodecanesulfonyl chloride
Formula: C12 H25 Cl O2 S
CAS: 10147-40-7
Molecular weight: 268
Origin: NIST Mass Spectrometry Data Center
m/z	RELATIVE INTENSITY
12	30
13	30
15	651
16	20
17	20
18	120
27	2392
28	921
29	5295
30	160
31	370
32	270
33	390
36	30
37	10
39	1902
41	9999
42	2632
43	6896
44	240
45	450
46	30
47	20
48	60
50	70
51	90
53	671
54	1101
55	9168
56	4684
57	4544
58	200
59	70
60	70
61	10
63	60
64	70
65	290
66	230
67	1261
68	2182
69	6806
70	3994
71	1641
72	80
73	10
77	90
79	741
80	410
81	621
82	2172
83	4924
84	2482
85	921
86	60
87	20
91	190
92	20
93	70
94	70
95	330
96	1682
97	7917
98	1641
99	420
100	30
107	110
108	20
109	120
110	571
111	2122
112	881
113	90
121	20
123	1291
124	460
125	1031
126	420
127	70
137	50
138	170
139	330
140	911
141	100
142	20
147	10
151	120
152	60
153	40
165	130
166	60
168	1271
169	170
179	80
193	40
215	20
223	100
233	60
