Mass Spectrum: 4-Nitrophenol, TMS derivative
Formula: C9 H13 N O3 Si
CAS: 1014-66-0
Molecular weight: 211
Origin: NIST Mass Spectrometry Data Center
m/z	RELATIVE INTENSITY
15	20
26	10
27	30
28	30
29	70
30	260
31	20
37	10
38	60
39	90
40	10
41	10
42	50
43	490
44	150
45	811
46	110
47	110
48	10
50	330
51	120
52	50
53	190
54	50
55	150
56	20
57	70
58	130
59	150
60	50
61	120
62	110
63	350
64	200
65	130
66	60
67	120
68	50
69	120
70	40
71	50
73	2742
74	360
75	530
76	460
77	270
78	80
79	130
80	40
81	110
82	40
83	180
84	40
85	200
86	20
87	20
88	10
89	180
90	150
91	691
92	140
93	170
94	30
95	210
96	120
97	40
98	50
99	50
100	10
101	10
102	10
103	40
104	30
105	160
106	60
107	160
108	40
109	140
110	110
111	30
112	10
117	20
119	80
120	320
121	490
122	120
123	210
124	30
125	10
131	20
132	20
133	60
135	2612
136	440
137	150
138	80
139	10
145	10
147	70
148	100
149	761
150	3463
151	540
152	150
153	10
161	10
163	20
164	20
165	90
166	270
167	40
168	10
178	20
179	310
180	150
181	90
182	50
183	10
193	10
196	9999
197	1551
198	490
199	40
211	3163
212	480
213	150
214	10
