Mass Spectrum: 1-Pentanol, 2,3-dimethyl-
Formula: C7 H16 O
CAS: 10143-23-4
Molecular weight: 116
Origin: NIST Mass Spectrometry Data Center
m/z	RELATIVE INTENSITY
15	50
26	100
27	1431
28	180
29	2322
30	110
31	1832
32	10
33	10
37	20
38	90
39	2082
40	330
41	7317
42	2042
43	9999
44	370
45	2352
46	50
47	10
50	120
51	250
52	90
53	761
54	200
55	3493
56	8668
57	5755
58	540
59	821
60	90
61	10
62	10
63	30
65	100
66	30
67	250
68	230
69	5345
70	2082
71	320
72	10
73	160
74	20
75	30
77	30
79	30
81	40
83	3703
84	891
85	5095
86	330
87	50
97	80
98	671
99	50
