Mass Spectrum: Desmetryn
Formula: C8 H15 N5 S
CAS: 1014-69-3
Molecular weight: 213
Origin: NIST Mass Spectrometry Data Center, 1998.
m/z	RELATIVE INTENSITY
15	150
26	20
27	300
28	400
29	90
30	300
31	10
32	20
38	20
39	280
40	100
41	1020
42	980
43	1710
44	720
45	320
46	260
47	390
48	50
49	30
52	20
53	270
54	130
55	1150
56	580
57	4170
58	4480
59	260
60	50
61	40
62	20
63	10
66	30
67	370
68	1540
69	1360
70	190
71	50
72	140
73	190
74	940
75	90
76	60
77	30
78	50
79	20
80	100
81	140
82	3350
83	1010
84	230
85	570
86	60
87	70
88	110
89	40
90	60
91	70
93	250
94	230
95	150
96	110
97	160
98	240
99	1650
100	330
101	70
102	20
103	50
105	10
107	240
108	1370
109	580
110	350
111	180
112	60
113	20
114	140
115	90
116	160
117	200
118	20
119	10
121	30
122	150
123	260
124	1990
125	1370
126	350
127	140
128	60
129	60
130	360
131	30
132	20
134	10
135	30
136	40
137	80
138	160
139	80
140	50
141	1390
142	560
143	110
144	30
149	40
150	210
151	100
152	300
153	70
154	70
155	100
156	1460
157	410
158	90
159	20
163	30
164	60
165	60
166	70
167	440
168	60
169	140
170	620
171	3490
172	330
173	170
174	10
179	10
180	70
181	20
182	100
183	70
184	60
185	20
186	10
195	10
196	200
197	30
198	6609
199	660
200	330
201	30
210	30
211	10
212	510
213	9999
214	1190
215	500
216	50
