Mass Spectrum: 2H-Pyran, tetrahydro-2-methyl-
Formula: C6 H12 O
CAS: 10141-72-7
Molecular weight: 100
Origin: NIST Mass Spectrometry Data Center, 1990.
m/z	RELATIVE INTENSITY
15	192
26	300
27	1502
28	416
29	1369
30	93
31	237
38	248
39	1918
40	762
41	5334
42	1697
43	5177
44	661
45	1373
50	142
51	175
52	109
53	421
54	304
55	2191
56	2913
57	1560
58	122
59	448
67	1607
68	117
70	218
71	71
72	148
81	144
83	74
85	9999
86	551
99	340
100	1939
101	154
