Mass Spectrum: Phosphinodithioic acid, diphenyl-
Formula: C12 H11 P S2
CAS: 1015-38-9
Molecular weight: 250
Origin: A.A.Kutin, Moscow, Russia
m/z	RELATIVE INTENSITY
33	199
34	82
36	79
37	26
39	767
40	331
41	31
42	8
43	26
44	52
45	229
47	385
51	4000
52	180
53	22
56	154
57	309
58	59
59	23
61	28
63	5630
65	1018
66	122
68	63
69	393
70	56
71	52
73	16
74	256
75	252
77	2524
78	418
80	166
81	314
82	170
83	136
84	46
85	20
86	17
87	66
88	31
89	71
90	19
91	101
92	54
93	41
95	394
96	63
97	40
98	12
99	14
100	12
101	20
102	68
103	20
104	32
105	58
107	1845
108	667
109	740
110	1745
111	327
112	115
113	84
114	29
115	233
116	34
117	2
119	9
120	30
121	25
122	5
123	10
125	495
126	88
127	57
128	109
129	21
131	28
132	12
133	174
134	25
135	3
139	6824
140	1726
141	1473
142	166
143	52
144	29
145	23
146	18
147	8
149	7
150	40
151	117
152	721
153	282
154	123
155	80
156	33
157	248
158	41
159	34
160	5
161	8
162	9
163	5
164	4
165	11
168	7
169	21
170	163
171	328
172	48
173	59
174	13
175	5
176	5
177	3
179	8
180	12
181	99
183	3204
184	545
185	1439
186	339
187	43
188	8
189	41
190	8
191	2
196	2
199	25
200	9
201	146
202	43
203	5
208	29
209	2
210	11
213	32
215	244
217	9999
218	1716
219	564
220	81
221	12
232	2
233	61
234	368
235	57
236	20
243	1
244	1
247	37
249	119
250	5000
251	714
252	447
253	63
254	15
255	2
