Mass Spectrum: 6-Nitroveratryl alcohol
Formula: C9 H11 N O5
CAS: 1016-58-6
Molecular weight: 213
Origin: NIST Mass Spectrometry Data Center
m/z	RELATIVE INTENSITY
12	20
15	2002
16	30
17	80
18	200
19	50
26	140
27	951
29	1641
30	2472
31	1031
33	50
37	240
38	530
39	2042
40	330
41	891
42	260
43	540
44	200
45	400
46	160
47	100
49	190
50	1952
51	2963
52	1672
53	4234
54	440
55	851
56	170
57	230
58	180
59	420
60	50
61	410
62	1051
63	1732
64	801
65	1571
66	1441
67	1001
68	671
69	1712
70	140
71	130
72	40
73	110
74	460
75	591
76	711
77	2542
78	1101
79	2122
80	1351
81	1351
82	841
83	260
84	140
85	150
86	50
87	60
88	40
89	130
90	601
91	340
92	1311
93	1471
94	1641
95	2582
96	711
97	300
98	50
99	90
103	70
104	190
105	370
106	430
107	1191
108	3203
109	2752
110	1161
111	380
112	100
113	30
118	100
119	370
120	761
121	901
122	1001
123	1201
124	1521
125	1511
126	190
132	50
133	110
134	240
136	9999
137	1702
138	901
139	651
140	350
141	60
148	110
149	150
150	721
151	1101
152	761
153	320
154	60
162	90
164	861
165	1411
166	480
167	400
168	1431
169	160
180	591
181	490
182	120
183	30
184	50
194	110
196	210
197	60
211	80
213	2592
214	240
215	30
