Mass Spectrum: 3,4,5-Trimethoxyphenyl cyanate
Formula: C10 H11 N O4
CAS: 1016-19-9
Molecular weight: 209
Origin: NIST Mass Spectrometry Data Center, 1994
m/z	RELATIVE INTENSITY
12	72
13	91
14	118
15	5683
17	13
18	96
25	59
26	205
27	53
30	109
37	797
38	750
39	807
40	215
41	200
42	234
43	64
49	157
50	622
51	790
52	2060
53	2844
54	446
55	260
56	255
58	55
61	186
62	231
63	524
64	1292
65	857
66	559
67	895
68	531
69	1197
70	1448
71	89
75	255
76	515
77	658
78	461
79	360
80	4201
81	343
82	515
83	134
87	53
88	51
89	98
90	452
91	188
92	152
93	630
94	314
95	436
96	274
104	45
105	123
106	910
107	238
108	431
109	100
110	110
111	69
117	65
118	117
119	50
120	178
121	148
122	202
123	632
124	73
133	283
134	2181
136	4448
137	425
138	333
146	100
148	534
149	803
151	4236
152	373
153	45
162	83
163	223
164	91
165	45
166	5879
167	492
168	60
178	118
179	307
181	99
192	101
194	9999
195	953
196	137
209	6879
210	775
211	118
