Mass Spectrum: Ethanone, 1-[4-(phenylthio)phenyl]-
Formula: C14 H12 O S
CAS: 10169-55-8
Molecular weight: 228
Origin: NIST Mass Spectrometry Data Center
m/z	RELATIVE INTENSITY
11	10
14	40
15	380
17	10
18	90
26	30
27	170
28	80
29	20
37	40
38	150
39	721
40	30
41	40
42	190
43	2042
44	80
45	350
49	50
50	881
51	1471
52	110
53	30
57	50
58	170
59	40
60	40
61	30
62	180
63	641
64	110
65	831
66	100
69	791
70	70
71	70
73	60
74	350
75	300
76	530
77	711
78	120
79	150
80	20
81	100
82	330
83	110
84	30
87	70
89	260
90	70
91	200
92	490
94	20
98	30
99	80
101	20
102	80
103	30
104	70
105	30
106	571
108	460
109	591
110	80
111	40
113	50
114	90
115	500
116	50
120	20
121	110
122	20
123	30
126	50
127	30
128	40
134	70
135	30
136	130
137	30
139	410
140	110
141	150
145	20
150	70
151	180
152	951
153	120
158	80
165	50
181	40
184	4964
185	1361
186	330
187	80
199	50
213	9999
214	1551
215	520
216	70
228	7066
229	1181
230	400
231	50
