Mass Spectrum: 5-Amino-1-methyl-3-phenylpyrazole
Formula: C10 H11 N3
CAS: 10199-50-5
Molecular weight: 173
Origin: NIST Mass Spectrometry Data Center, 1994
m/z	RELATIVE INTENSITY
14	127
15	1262
16	43
17	48
18	289
26	99
27	354
28	1308
29	140
30	778
31	28
37	70
38	172
39	563
40	341
41	481
42	735
43	822
44	66
45	118
46	87
49	71
50	817
51	1619
52	868
53	398
54	115
55	175
56	55
57	831
58	43
59	38
61	84
62	269
63	587
64	185
65	310
66	126
67	244
68	29
69	229
70	150
72	37
73	156
74	368
75	532
76	919
77	2567
78	310
79	108
80	31
81	43
85	32
87	522
88	67
89	324
90	231
91	178
92	36
96	32
98	40
99	62
100	84
101	264
102	1952
103	1387
104	1185
105	170
113	19
114	65
115	83
116	321
117	470
118	216
119	49
128	921
129	295
130	1921
131	504
132	155
133	29
142	69
143	479
144	158
145	826
146	99
155	118
156	55
157	195
158	137
159	28
170	30
172	1517
173	9999
174	1318
175	62
