Mass Spectrum: Benzeneacetic acid, phenylmethyl ester
Formula: C15 H14 O2
CAS: 102-16-9
Molecular weight: 226
Origin: NIST Mass Spectrometry Data Center, 1998.
m/z	RELATIVE INTENSITY
26	10
27	30
29	10
37	10
38	50
39	430
40	30
41	130
42	10
44	10
45	10
50	130
51	380
52	110
53	30
61	20
62	90
63	350
64	110
65	1550
66	90
74	30
75	30
76	30
77	360
78	80
79	100
80	10
86	10
87	10
89	420
90	290
91	9999
92	1080
93	40
104	40
105	70
106	10
107	60
108	300
109	20
113	10
118	40
119	10
152	10
165	30
166	10
167	50
168	10
178	10
179	20
180	110
181	30
182	10
208	10
226	440
227	70
228	10
