Mass Spectrum: Diphenyl carbonate
Formula: C13 H10 O3
CAS: 102-09-0
Molecular weight: 214
m/z	RELATIVE INTENSITY
27	200
28	300
38	400
39	2300
40	200
44	400
50	600
51	2500
52	200
55	200
62	200
63	500
64	200
65	2200
66	300
68	200
74	200
75	100
76	300
77	9999
78	700
79	100
91	200
93	400
94	1500
95	100
115	600
116	100
121	200
140	300
141	4500
142	3000
143	300
144	100
168	300
169	2500
170	3700
171	500
172	100
214	9999
215	1500
216	200
