Mass Spectrum: 1,3-Propanediamine, N,N-dibutyl-
Formula: C11 H26 N2
CAS: 102-83-0
Molecular weight: 186
Origin: Japan AIST/NIMC Database- Spectrum MS-NW-3930
m/z	RELATIVE INTENSITY
15	70
26	30
27	319
28	199
29	1009
30	1629
31	30
38	10
39	189
40	30
41	949
42	849
43	449
44	1689
45	60
50	50
51	10
52	10
53	40
54	70
55	249
56	489
57	879
58	1979
59	80
67	10
68	60
69	30
70	469
71	99
72	169
73	20
74	20
80	10
81	10
82	50
83	20
84	549
85	129
86	1399
87	119
96	30
97	20
98	379
99	70
100	9999
101	739
102	30
110	20
111	10
112	199
113	109
114	119
115	20
124	10
125	10
126	179
127	30
128	579
129	229
130	209
131	20
139	10
140	129
141	80
142	3059
143	1379
144	119
153	10
154	50
155	30
156	229
157	50
168	10
169	40
181	10
183	10
185	10
186	499
187	70
