Mass Spectrum: Benzene, 1,2-dichloro-4-isocyanato-
Formula: C7 H3 Cl2 N O
CAS: 102-36-3
Molecular weight: 187
Origin: MUS173 A. Mujsce, AT&T Bell Labs., Murray Hill, N.J., USA
m/z	RELATIVE INTENSITY
25	30
26	89
27	30
28	256
35	139
36	89
37	464
38	293
39	142
40	16
42	27
44	47
47	181
48	60
49	289
50	307
51	221
52	138
53	27
54	74
60	217
61	596
62	606
63	311
64	218
67	25
69	9
70	13
71	87
72	294
73	620
74	466
75	305
76	163
77	25
79	73
80	48
82	29
83	37
84	204
85	119
86	208
87	314
88	672
89	101
90	13
94	164
95	95
96	105
97	809
98	356
99	298
100	160
101	20
106	32
107	95
108	65
109	171
110	54
111	48
112	25
117	23
118	13
119	9
120	13
121	18
122	37
124	5297
125	384
126	1835
127	123
131	82
132	114
133	103
134	102
135	45
136	29
137	13
152	13
154	10
159	3284
160	299
161	2154
162	163
163	373
164	23
171	13
187	9999
188	808
189	6243
190	550
191	1075
192	90
