Mass Spectrum: Ferrocene
Formula: C10 H10 Fe
CAS: 102-54-5
Molecular weight: 186
Origin: Japan AIST/NIMC Database- Spectrum MS-IW-3959
m/z	RELATIVE INTENSITY
38	10
39	159
40	10
51	20
54	90
56	1489
57	90
62	10
63	30
65	50
66	40
68	10
69	10
70	10
77	40
78	10
79	20
81	329
82	60
83	10
89	30
91	10
92	40
93	549
94	299
95	439
96	30
102	40
103	60
105	30
106	20
107	30
115	40
117	10
118	20
119	249
120	60
121	3539
122	279
123	20
127	50
128	239
129	249
130	70
131	10
132	20
133	50
134	90
145	10
146	10
157	10
158	50
159	20
160	40
171	40
182	20
183	10
184	849
185	149
186	9999
187	1339
188	109
