Mass Spectrum: Methanediamine, N,N,N',N'-tetraethyl-
Formula: C9 H22 N2
CAS: 102-53-4
Molecular weight: 158
Origin: Japan AIST/NIMC Database- Spectrum MS-IW-2891
m/z	RELATIVE INTENSITY
15	80
26	60
27	449
28	639
29	709
30	2469
31	40
38	10
39	40
40	60
41	199
42	1069
43	159
44	1039
45	60
46	10
52	10
53	10
54	90
55	60
56	529
57	309
58	3899
59	149
64	50
68	40
69	10
70	459
71	80
72	879
73	839
74	60
78	10
82	20
84	50
85	559
86	9999
87	649
88	20
96	10
97	10
98	50
99	30
101	10
112	20
127	10
157	10
158	10
