Mass Spectrum: Geranyl phenylacetate
Formula: C18 H24 O2
CAS: 102-22-7
Molecular weight: 272
Origin: Philip Morris R&D
m/z	RELATIVE INTENSITY
38	14
39	587
40	273
41	4349
42	231
44	629
45	161
49	21
50	56
51	98
52	35
53	552
54	161
55	455
56	133
57	112
58	217
59	378
60	35
61	28
63	119
65	902
67	881
68	4580
69	9999
70	657
72	203
73	455
75	7
76	168
77	203
78	56
79	594
80	3370
81	573
82	91
83	91
84	147
85	434
86	63
87	245
88	364
89	119
90	63
91	5552
92	1671
93	3643
94	1056
95	427
97	84
98	7
103	175
104	70
105	154
107	482
108	287
109	126
111	112
115	112
116	35
118	182
119	161
120	56
121	2321
122	196
123	378
124	168
127	28
131	98
133	84
135	91
136	3007
137	783
138	14
139	98
145	21
149	56
153	56
154	175
163	35
182	14
204	35
236	42
