Mass Spectrum: 1-Hexanamine, N,N-dihexyl-
Formula: C18 H39 N
CAS: 102-86-3
Molecular weight: 269
Origin: Japan AIST/NIMC Database- Spectrum MS-NW-2807
m/z	RELATIVE INTENSITY
14	10
15	20
26	10
27	229
28	139
29	459
30	429
31	10
39	99
40	20
41	679
42	309
43	1609
44	769
45	30
51	10
53	40
54	40
55	419
56	189
57	269
58	339
59	40
60	90
61	10
67	50
68	50
69	60
70	149
71	60
72	90
73	60
77	20
79	10
80	20
81	40
82	70
83	60
84	259
85	70
86	20
87	30
93	10
94	10
95	20
96	40
97	20
98	339
99	50
100	60
101	10
105	10
106	10
108	10
109	10
110	20
111	10
112	199
113	20
114	849
115	80
122	10
124	30
125	10
126	309
127	40
128	1429
129	139
130	10
138	20
140	80
141	10
142	70
143	20
152	20
154	60
155	10
156	40
163	10
164	10
166	20
168	30
170	40
178	10
180	30
182	30
183	10
184	119
185	40
186	10
190	10
192	10
194	40
195	10
196	319
197	50
198	9999
199	1469
200	90
208	20
210	20
212	50
213	10
226	20
240	40
241	10
250	20
254	20
265	20
266	20
267	30
268	90
269	139
270	20
