Mass Spectrum: Dibemethine
Formula: C15 H17 N
CAS: 102-05-6
Molecular weight: 211
Origin: Tox21 Consortium/NIST Mass Spectrometry Data Center, 2012
m/z	RELATIVE INTENSITY
15	20
26	10
27	30
28	10
37	10
38	30
39	330
40	30
41	150
42	801
43	40
44	40
50	110
51	350
52	80
53	20
61	10
62	50
63	240
64	70
65	1391
66	90
74	20
75	30
76	60
77	320
78	160
79	30
86	10
87	10
89	300
91	9999
92	1361
93	80
102	10
103	40
104	80
105	60
106	10
115	20
116	30
117	50
118	350
119	50
120	1892
121	170
122	10
128	10
130	10
131	20
132	380
134	3403
135	360
136	20
139	10
152	20
153	10
164	10
165	60
166	20
167	10
178	10
179	10
180	10
181	10
194	10
208	20
210	480
211	1401
212	230
213	20
