Mass Spectrum: Benzeneacetic acid, (4-methoxyphenyl)methyl ester
Formula: C16 H16 O3
CAS: 102-17-0
Molecular weight: 256
Origin: NIST Mass Spectrometry Data Center, 1990.
m/z	RELATIVE INTENSITY
18	3
27	45
28	27
37	26
38	54
39	380
40	45
41	123
43	24
49	19
50	127
51	362
52	220
53	90
55	69
62	71
63	211
64	149
65	580
66	90
67	30
77	865
78	599
79	103
89	258
90	230
91	1391
92	243
93	29
94	57
105	59
106	123
107	112
109	48
118	33
121	9999
122	911
123	58
135	126
136	46
137	49
138	55
165	16
256	1021
257	163
