Mass Spectrum: Cyclopentaneethanamine, N,.alpha.-dimethyl-
Formula: C9 H19 N
CAS: 102-45-4
Molecular weight: 141
Origin: NIST Mass Spectrometry Data Center, 1990.
m/z	RELATIVE INTENSITY
15	44
27	245
28	398
29	278
30	605
31	49
32	78
39	448
40	114
41	865
42	548
43	191
44	420
51	55
52	35
53	140
54	100
55	223
56	511
57	35
58	9999
59	358
65	68
66	39
67	230
68	97
69	206
70	98
71	153
72	106
77	42
81	46
82	53
84	44
126	385
127	35
141	113
