Mass Spectrum: Butanamide, 3-oxo-N-phenyl-
Formula: C10 H11 N O2
CAS: 102-01-2
Molecular weight: 177
Origin: Humboldt-Universitat zu Berlin, Department of Chemistry, Analytical Group
m/z	RELATIVE INTENSITY
12	11
13	26
14	208
15	1150
16	35
17	159
18	552
19	7
20	5
24	3
25	14
26	157
27	565
28	386
29	294
30	53
31	128
32	5
37	140
38	456
39	1854
40	306
41	362
42	578
43	5640
44	163
45	38
46	14
49	22
50	273
51	767
52	285
53	86
54	86
55	70
56	15
57	61
58	1063
59	39
60	12
61	46
62	123
63	439
64	463
65	1449
66	1069
67	132
68	15
69	112
70	14
71	11
73	12
74	56
75	44
76	66
77	702
78	118
79	89
80	14
81	11
82	5
83	10
85	224
86	17
87	11
88	14
89	39
90	55
91	725
92	794
93	9999
94	776
95	29
96	4
97	6
98	3
99	3
102	5
103	10
104	46
105	21
106	199
107	26
108	3
109	2
110	2
111	3
112	6
113	3
115	6
116	12
117	22
119	978
120	159
121	13
128	3
129	3
130	11
131	4
132	8
133	14
134	149
135	43
136	6
144	12
145	2
148	6
149	4
158	2
159	2
160	4
162	4
175	2
177	1878
178	217
179	20
180	2
