Mass Spectrum: Benzene, 1,3,5-triethyl-
Formula: C12 H18
CAS: 102-25-0
Molecular weight: 162
Origin: Japan AIST/NIMC Database- Spectrum MS-NW-5222
m/z	RELATIVE INTENSITY
14	30
15	80
26	20
27	579
28	109
29	779
30	20
31	10
37	10
38	40
39	649
40	70
41	659
42	30
43	30
44	10
45	10
50	149
51	489
52	159
53	359
54	20
55	249
56	10
57	50
58	50
59	20
61	10
62	80
63	309
64	209
65	529
66	139
67	70
69	20
70	40
71	70
72	20
73	40
74	60
75	80
76	80
77	919
78	299
79	579
80	40
81	20
82	10
83	10
86	20
87	40
88	20
89	129
90	40
91	1769
92	169
93	119
94	10
96	10
98	10
101	30
102	129
103	489
104	209
105	3049
106	299
107	50
109	20
110	10
113	20
114	20
115	899
116	369
117	1159
118	249
119	959
120	109
121	10
126	20
127	109
128	299
129	239
130	99
131	379
132	219
133	8939
134	1189
135	70
139	10
141	40
142	10
143	20
144	10
145	159
146	60
147	9999
148	1259
149	80
159	10
160	20
161	209
162	6089
163	819
164	60
165	10
