Mass Spectrum: Guanidine, N,N'-diphenyl-
Formula: C13 H13 N3
CAS: 102-06-7
Molecular weight: 211
Origin: NIST Mass Spectrometry Data Center, 1994
m/z	RELATIVE INTENSITY
16	59
27	88
28	33
38	145
39	566
40	118
43	176
50	225
51	1339
52	222
54	78
62	87
63	316
64	427
65	893
66	878
67	94
74	61
75	89
77	3089
78	347
80	87
90	74
91	584
93	9999
94	803
103	53
104	105
105	52
106	51
107	70
117	46
118	576
119	1666
120	165
133	98
134	178
166	81
167	189
168	194
169	351
192	56
193	82
194	263
195	86
210	1746
211	4357
212	675
213	52
