Mass Spectrum: 1,2-Ethanediamine, N,N'-dimethyl-N,N'-bis(phenylmethyl)-
Formula: C18 H24 N2
CAS: 102-18-1
Molecular weight: 268
Origin: RADIAN CORP
m/z	RELATIVE INTENSITY
15	10
27	20
29	20
30	30
39	180
40	10
41	110
42	470
43	160
44	90
50	40
51	120
52	30
54	10
55	10
56	50
57	50
58	80
62	20
63	120
64	40
65	1000
66	60
70	10
72	10
76	20
77	140
78	40
79	20
89	180
90	100
91	9999
92	770
93	30
99	10
103	30
104	50
105	120
106	40
117	60
118	90
120	80
121	30
130	10
131	20
132	200
133	50
134	7600
135	890
136	50
144	10
146	90
147	20
148	70
149	40
175	30
210	30
211	10
224	10
268	130
269	20
