Mass Spectrum: Benzene, 1,2-dichloro-4-(chloromethyl)-
Formula: C7 H5 Cl3
CAS: 102-47-6
Molecular weight: 194
Origin: Japan AIST/NIMC Database- Spectrum MS-NW-4681
m/z	RELATIVE INTENSITY
25	10
26	40
27	30
28	10
35	80
36	219
37	139
38	139
39	349
40	10
42	10
43	139
44	79
47	40
48	30
49	119
50	299
51	159
52	10
60	90
61	639
62	609
63	809
64	70
65	10
71	10
72	99
73	529
74	139
75	219
76	10
77	20
78	30
79	309
80	189
81	40
83	40
84	99
85	139
86	179
87	249
88	90
89	1099
90	90
95	10
96	50
97	299
98	90
99	289
100	20
101	60
107	80
108	10
109	99
110	20
111	40
112	10
120	10
121	30
122	20
123	1169
124	519
125	469
126	179
127	30
131	10
133	309
134	20
135	189
136	10
137	30
141	20
142	10
145	10
157	70
158	50
159	9999
160	839
161	6419
162	529
163	1049
164	80
167	10
169	10
193	169
194	1869
195	299
196	1799
197	189
198	549
199	50
200	70
