Mass Spectrum: Benzeneacetic acid, 2-methylpropyl ester
Formula: C12 H16 O2
CAS: 102-13-6
Molecular weight: 192
Origin: V.Zaikin,Topchiev Inst.Petrochem.Synth.,Moscow
m/z	RELATIVE INTENSITY
26	40
27	140
28	10
29	731
30	20
31	10
36	50
37	10
38	40
39	380
40	50
41	1121
42	70
43	130
44	10
45	30
50	80
51	170
52	70
53	30
55	90
56	260
57	2732
58	130
61	10
62	60
63	260
64	90
65	821
66	60
71	90
74	20
75	20
76	10
77	80
78	40
79	80
86	10
87	20
89	470
90	390
91	9999
92	2462
93	180
99	20
104	10
105	40
107	30
118	180
119	861
120	80
131	10
135	10
136	4564
137	1481
138	140
139	10
149	60
164	20
177	20
192	320
193	50
