Mass Spectrum: Tributylamine
Formula: C12 H27 N
CAS: 102-82-9
Molecular weight: 185
Origin: NIST Mass Spectrometry Data Center, 1998.
m/z	RELATIVE INTENSITY
15	20
26	10
27	270
29	820
30	340
31	10
38	10
39	210
40	20
41	1100
42	750
43	370
44	1070
45	30
51	10
52	10
53	60
54	70
55	370
56	260
57	910
58	900
59	30
67	20
68	50
69	30
70	210
71	50
72	100
73	10
80	10
81	10
82	40
83	10
84	450
85	40
86	280
87	20
94	10
96	30
98	540
100	4350
101	320
102	10
110	10
112	50
114	20
126	30
128	110
129	20
138	10
140	100
142	9999
143	1120
144	50
154	10
156	80
157	10
168	20
170	10
183	10
184	90
185	580
186	80
187	10
