Mass Spectrum: Propane, 1,1,3,3-tetramethoxy-
Formula: C7 H16 O4
CAS: 102-52-3
Molecular weight: 164
Origin: Japan AIST/NIMC Database- Spectrum MS-NW-4985
m/z	RELATIVE INTENSITY
14	20
15	489
16	10
18	20
26	30
27	139
28	80
29	299
30	50
31	569
32	40
33	119
39	30
40	10
41	80
42	40
43	179
44	20
45	179
46	10
47	1269
48	30
53	10
54	10
55	30
56	10
57	119
58	109
59	139
60	10
61	10
69	10
71	119
72	30
74	20
75	9999
76	349
77	50
85	60
86	10
87	10
89	10
101	229
102	50
105	10
117	399
118	20
131	20
132	60
133	30
