Mass Spectrum: Morpholine, 4-(2-benzothiazolylthio)-
Formula: C11 H12 N2 O S2
CAS: 102-77-2
Molecular weight: 252
Origin: Japan AIST/NIMC Database- Spectrum MS-NW-4078
m/z	RELATIVE INTENSITY
14	20
15	359
26	119
27	499
28	489
29	899
30	719
31	119
32	20
33	10
37	50
38	99
39	279
40	60
41	279
42	559
43	80
44	60
45	329
46	30
47	30
49	10
50	129
51	129
52	60
53	10
54	269
55	309
56	3739
57	529
58	249
59	70
60	289
61	80
62	90
63	359
64	139
65	70
68	30
69	549
70	129
71	50
72	20
73	10
74	90
75	109
76	80
77	40
78	90
81	90
82	229
83	40
84	90
85	409
86	8209
87	549
88	80
89	10
90	139
91	169
92	20
93	40
94	40
95	119
96	129
97	20
102	259
103	80
104	10
105	10
106	20
107	50
108	1059
109	269
110	70
111	60
116	10
117	10
118	70
120	20
121	50
122	479
123	159
124	30
125	10
133	80
134	60
135	259
136	80
137	20
139	70
140	90
141	20
142	10
148	50
149	40
150	20
161	40
162	119
163	239
164	40
165	40
166	919
167	9999
168	1259
169	949
170	99
171	30
175	30
176	20
177	10
180	20
181	30
182	10
189	30
190	10
191	10
192	10
193	99
194	50
195	60
196	10
199	20
204	20
219	40
220	219
221	30
222	10
252	599
253	90
254	60
