Mass Spectrum: 3-Dodecanol
Formula: C12 H26 O
CAS: 10203-30-2
Molecular weight: 186
Origin: D.HENNEBERG, MAX-PLANCK INSTITUTE, MULHEIM, WEST GERMANY
m/z	RELATIVE INTENSITY
25	7
26	54
27	911
28	381
29	1848
30	53
31	1649
32	7
37	15
39	591
40	96
41	3524
42	754
43	2924
44	143
45	157
48	6
50	24
51	29
52	23
53	195
54	223
55	4321
56	1225
57	2812
58	1150
59	9999
60	332
61	33
62	6
65	31
66	38
67	299
68	207
69	3428
70	979
71	730
72	246
73	61
77	27
78	95
79	47
80	8
81	237
82	211
83	4590
84	668
85	276
86	17
87	10
91	8
93	8
95	82
96	95
97	1897
98	272
99	37
109	16
110	39
111	273
112	89
113	19
114	6
124	13
125	64
126	53
127	15
128	11
137	5
138	15
139	61
140	51
141	5
155	42
156	10
157	813
158	77
168	134
169	18
181	5
