Mass Spectrum: Cyclotetrasilazane, 2,2,4,4,6,6,8,8-octamethyl-
Formula: C8 H28 N4 Si4
CAS: 1020-84-4
Molecular weight: 292
Origin: Japan AIST/NIMC Database- Spectrum MS-NW-4650
m/z	RELATIVE INTENSITY
14	10
15	90
16	60
17	80
18	20
26	10
27	30
28	209
29	20
30	30
31	20
32	30
43	80
44	99
45	179
46	60
47	10
56	20
57	10
58	30
59	209
60	70
61	10
70	129
71	30
72	60
73	1259
74	619
75	109
76	20
77	30
78	20
79	20
80	10
81	30
82	30
83	10
85	40
86	179
87	90
88	40
89	10
92	10
93	20
94	50
95	30
96	50
98	10
99	60
100	519
101	369
102	169
103	70
104	20
105	10
106	40
107	30
108	30
112	30
113	40
114	289
115	349
116	339
117	209
118	139
119	40
120	10
122	60
123	329
124	80
125	10
126	10
127	80
128	90
129	70
130	639
131	1489
132	389
133	149
134	30
135	10
140	10
141	70
142	70
143	99
144	80
145	99
146	139
147	159
148	40
149	10
152	10
154	20
155	20
156	20
157	179
158	219
159	159
160	70
161	30
162	20
163	10
168	10
169	20
170	70
171	419
172	439
173	389
174	249
175	209
176	80
177	40
178	10
179	10
184	70
185	139
186	80
187	429
188	1499
189	849
190	419
191	169
192	60
193	30
194	10
198	20
199	30
200	40
201	40
202	70
203	90
204	569
205	389
206	359
207	479
208	119
209	60
210	10
211	10
212	10
213	20
214	60
215	50
216	40
217	20
218	10
219	10
220	10
221	30
222	10
225	10
226	20
227	129
228	179
229	99
230	129
231	90
232	50
233	30
234	20
235	10
236	10
237	10
238	10
241	10
242	20
243	109
244	749
245	549
246	329
247	249
248	149
249	80
250	60
251	40
252	30
253	40
254	20
255	20
256	40
257	30
258	40
259	30
260	2539
261	2299
262	1139
263	489
264	169
265	80
266	50
267	40
268	30
269	20
270	30
271	20
272	30
273	20
274	70
275	70
276	30
277	9999
278	3499
279	2119
280	429
281	119
282	20
291	20
292	10
