Mass Spectrum: Norbornadieone
Formula: C7 H10 O
CAS: 10218-02-7
Molecular weight: 110
Origin: James Little,Eastman Chem.Co.,Kingsport,TN
m/z	RELATIVE INTENSITY
26	240
27	2032
28	2682
29	260
32	280
39	2883
40	440
41	3383
50	240
51	490
52	290
53	951
54	5895
55	1101
65	300
66	380
67	9999
68	871
77	400
78	290
79	1091
80	150
81	2102
82	591
91	120
92	400
95	300
110	4424
111	340
