Mass Spectrum: Mevalonolactone, TMS derivative
Formula: C9 H18 O3 Si
CAS: 102146-02-1
Molecular weight: 202
Origin: O A MAMER, MCGILL UNIVERSITY, MONTREAL, h
m/z	RELATIVE INTENSITY
14	175
27	608
29	635
39	893
41	575
43	541
45	2922
46	290
47	1495
49	135
53	202
54	27
55	351
56	135
57	135
60	412
61	1183
62	135
63	162
64	757
67	263
72	392
73	4485
74	432
75	5324
76	399
77	60
84	196
91	182
99	345
101	1332
102	250
103	6
113	189
114	6
115	8760
116	811
117	297
118	135
127	162
129	162
130	778
143	4214
144	642
145	9999
146	1197
157	710
158	148
159	744
160	135
187	1643
188	338
189	142
