Mass Spectrum: 1-Phenyl-1,3,8-triazaspiro[4.5]decan-4-one
Formula: C13 H17 N3 O
CAS: 1021-25-6
Molecular weight: 231
Origin: Japan AIST/NIMC Database- Spectrum MS-NW-8060
m/z	RELATIVE INTENSITY
15	99
18	10
26	30
27	369
28	1379
29	869
30	1069
31	20
32	10
37	10
38	40
39	319
40	80
41	279
42	1559
43	469
44	279
45	20
50	159
51	879
52	179
53	509
54	279
55	369
56	2559
57	9529
58	419
59	10
62	10
63	90
64	60
65	239
66	99
67	129
68	219
69	90
70	149
71	189
72	60
73	10
74	30
75	50
76	149
77	2889
78	419
79	139
80	399
81	329
82	2029
83	469
84	70
85	40
86	20
87	20
89	70
90	70
91	629
92	139
93	1539
94	199
95	40
96	70
97	209
98	109
99	40
101	10
102	20
103	129
104	809
105	649
106	539
107	159
108	90
109	3979
110	1209
111	189
112	20
114	10
115	70
116	70
117	979
118	3019
119	469
120	99
121	279
122	60
123	20
124	10
125	109
126	1389
127	139
128	40
129	50
130	619
131	599
132	469
133	199
134	50
135	10
137	10
138	4229
139	379
140	30
142	20
143	229
144	419
145	389
146	559
147	219
148	30
153	10
154	30
155	10
156	30
157	40
158	189
159	299
160	159
161	199
162	40
169	10
170	20
171	60
172	60
173	829
174	1709
175	9999
176	1189
177	80
185	50
186	40
187	759
188	739
189	119
190	10
199	10
200	10
201	30
202	389
203	80
214	10
228	10
229	40
230	90
231	3219
232	589
233	60
