Mass Spectrum: 4-(4-Diethylamino-2-methylphenylimino)-1-oxo-N-phenyl-1,4-dihydro-2-naphthalenecarboxamide
Formula: C28 H27 N3 O2
CAS: 102187-19-9
Molecular weight: 437
Origin: Japan AIST/NIMC Database- Spectrum MS-IW-5095
m/z	RELATIVE INTENSITY
26	10
27	60
28	149
29	209
30	20
37	30
38	70
39	269
40	80
41	119
42	60
43	20
44	40
45	30
46	90
49	20
50	70
51	159
52	109
53	60
54	80
55	20
56	50
57	10
61	20
62	50
63	149
64	149
65	659
66	689
67	80
68	10
69	10
70	10
71	10
72	30
73	10
74	30
75	40
76	60
77	279
78	139
79	99
80	20
81	10
82	10
86	10
87	20
88	30
89	169
90	149
91	469
92	359
93	2449
94	209
95	40
96	10
97	10
100	10
101	70
102	119
103	60
104	109
105	70
106	90
107	50
108	119
109	40
113	80
114	80
115	129
116	99
117	179
118	239
119	429
120	80
121	40
122	90
123	159
124	20
125	10
126	20
127	30
128	70
129	60
130	269
131	70
132	139
133	179
134	159
135	70
136	40
137	169
138	30
139	30
140	40
141	30
142	30
143	119
144	109
145	80
146	90
147	239
148	109
149	30
150	40
151	109
152	60
153	20
154	10
156	40
157	80
158	30
159	40
160	20
161	129
162	60
163	429
164	70
165	119
166	90
167	20
168	20
169	20
170	30
171	30
172	50
173	50
174	20
175	30
176	60
177	60
178	239
179	40
180	20
181	10
182	40
183	30
184	20
185	10
187	10
188	40
189	139
190	119
191	70
192	40
193	30
194	10
195	10
196	60
197	60
200	10
201	40
202	99
203	169
204	139
205	60
206	30
207	10
209	20
210	30
211	299
212	10
213	10
214	60
215	119
216	419
217	1049
218	409
219	179
220	80
226	10
227	20
228	50
229	70
230	159
231	149
232	209
233	119
234	40
235	10
239	10
240	10
241	40
242	70
243	149
244	579
245	1299
246	729
247	199
248	50
253	10
255	30
256	40
257	80
258	179
259	329
260	179
261	199
262	80
263	70
264	10
265	10
267	10
268	10
269	30
270	70
271	199
272	459
273	1849
274	559
275	329
276	80
277	20
283	10
284	20
285	60
286	109
287	359
288	179
289	159
290	159
291	40
297	10
298	50
299	179
300	199
301	379
302	209
303	339
304	80
305	10
306	10
312	10
313	40
314	80
315	179
316	249
317	359
318	429
319	119
320	40
321	10
323	10
326	50
327	60
328	40
329	289
330	149
331	749
332	179
333	40
334	10
335	10
336	10
337	10
340	10
342	109
343	189
344	309
345	689
346	3939
347	989
348	169
349	30
350	20
351	10
352	10
355	99
356	30
357	10
362	10
363	20
364	30
365	20
366	10
369	10
370	549
371	149
372	40
374	10
375	10
376	30
377	20
378	20
379	10
380	10
381	10
390	10
392	20
393	50
394	20
409	559
410	159
411	119
422	6009
423	1819
424	299
425	10
435	99
437	9999
438	3219
439	999
440	80
441	10
