Mass Spectrum: Naphthalene, 1,2,3,5,6,7,8,8a-octahydro-1,8a-dimethyl-7-(1-methylethenyl)-, [1S-(1.alpha.,7.alpha.,8a.alpha.)]-
Formula: C15 H24
CAS: 10219-75-7
Molecular weight: 204
m/z	RELATIVE INTENSITY
15	80
26	120
27	2052
28	160
29	2482
30	60
37	50
38	80
39	3143
40	781
41	8658
42	731
43	1872
50	140
51	821
52	450
53	3223
54	380
55	5155
56	320
57	440
58	110
59	50
62	50
63	300
64	230
65	1962
66	911
67	3863
68	1141
69	2642
70	250
71	190
72	90
73	100
74	80
75	210
76	110
77	4414
78	1231
79	9559
80	1682
81	5605
82	821
83	601
84	90
85	70
87	90
88	100
89	220
90	150
91	9108
92	2732
93	9559
94	3003
95	5055
96	871
97	1141
98	120
102	130
103	571
104	400
105	8207
106	2682
107	9999
108	5785
109	2272
110	280
111	90
115	731
116	350
117	1001
118	731
119	8658
120	2642
121	4364
122	1912
123	1141
124	140
127	190
128	360
129	330
130	180
131	691
132	290
133	5655
134	2823
135	4454
136	1091
137	120
141	100
142	70
143	100
144	70
145	550
146	280
147	4274
148	1732
149	681
150	110
159	140
160	280
161	9559
162	2542
163	681
164	90
173	60
174	50
175	1051
176	581
177	100
187	60
189	4204
190	731
191	60
203	110
204	5325
205	961
206	80
