Mass Spectrum: Piperidine, 1,1'-dithiobis-
Formula: C10 H20 N2 S2
CAS: 10220-20-9
Molecular weight: 232
Origin: J.H.BOWIE UNIVERSITY OF ADELAIDE, AUSTRALIA
m/z	RELATIVE INTENSITY
39	1200
40	400
41	2300
42	2200
43	1500
44	2200
50	400
51	700
52	1200
53	700
54	1400
55	5400
56	1700
57	1000
64	400
67	700
68	600
69	400
70	1000
71	400
79	1300
80	700
81	1400
82	1400
83	4400
84	9999
85	5600
86	600
