Mass Spectrum: Methanone, [5-chloro-2-(methylamino)phenyl]phenyl-
Formula: C14 H12 Cl N O
CAS: 1022-13-5
Molecular weight: 245
Origin: R RYHAGE MS-LAB KAROLINSKA INSTITUTET STOCKHOLM SWEDEN
m/z	RELATIVE INTENSITY
14	95
15	79
16	39
17	71
18	182
26	63
27	213
28	1051
29	213
30	355
31	292
32	118
36	16
37	71
38	95
39	253
41	111
42	71
45	118
46	174
50	324
51	1137
52	363
53	63
55	32
56	47
61	39
62	103
63	687
64	205
65	118
66	71
67	79
69	63
73	134
74	134
75	758
76	371
77	4368
78	450
79	118
81	55
82	39
83	63
84	47
85	79
86	32
87	103
88	103
89	111
90	371
91	885
92	118
96	166
97	95
98	142
99	174
100	55
101	118
102	292
103	63
104	419
105	3254
106	197
107	47
108	32
110	134
111	798
112	450
113	340
114	269
115	229
116	32
122	126
123	103
124	79
125	419
126	174
127	229
128	47
129	55
132	111
133	758
134	174
136	71
137	71
138	292
139	561
140	821
141	253
142	276
143	39
149	142
150	355
151	174
152	506
153	276
154	174
155	118
162	32
163	47
164	134
165	537
166	624
167	513
168	2070
169	292
170	569
171	111
175	39
177	95
178	103
179	205
180	269
181	340
182	142
186	103
187	79
188	39
190	87
191	126
192	174
193	2117
194	671
195	276
196	95
199	87
200	47
201	142
202	71
203	55
204	79
207	47
208	166
209	395
210	324
211	71
213	39
214	355
215	126
216	324
217	126
218	118
219	39
223	95
226	79
227	355
228	3689
229	1074
230	1501
231	363
232	79
233	63
239	32
241	71
242	118
243	592
244	7472
245	9999
246	3839
247	3167
248	537
249	87
