Mass Spectrum: 2,4-Heptadienoic acid, 6-methyl-, ethyl ester
Formula: C10 H16 O2
CAS: 10236-06-3
Molecular weight: 168
Origin: D.HENNEBERG, MAX-PLANCK INSTITUTE, MULHEIM, WEST GERMANY
m/z	RELATIVE INTENSITY
25	50
26	653
27	6169
28	1217
29	8881
30	363
31	568
32	50
36	8
37	59
38	307
39	4276
40	728
41	5351
42	4539
43	2983
44	279
45	759
46	69
47	38
48	7
49	60
50	557
51	1572
52	908
53	2708
54	467
55	3852
56	493
57	1157
58	214
59	313
60	132
61	121
62	91
63	407
64	133
65	897
66	450
67	3604
68	637
69	1076
70	304
71	421
72	144
73	224
74	166
75	2544
76	450
77	2863
78	634
79	4985
80	1190
81	2083
82	444
83	577
84	3575
85	315
86	220
87	160
88	85
89	117
90	37
91	925
92	279
93	3940
94	1682
95	8786
96	830
97	9999
98	957
99	295
100	87
101	42
102	40
103	2602
104	217
105	324
106	65
107	717
108	284
109	334
110	228
111	2252
112	1829
113	206
114	57
115	166
116	59
117	111
118	244
119	56
120	34
121	521
122	937
123	3889
124	598
125	9364
126	865
127	129
128	23
129	45
130	53
131	226
132	43
133	100
134	172
135	57
136	51
137	100
138	158
139	1821
140	501
141	55
142	18
143	24
144	16
145	52
146	10
147	24
148	21
149	29
150	11
151	31
152	215
153	450
154	39
166	36
167	150
168	4737
169	561
170	59
