Mass Spectrum: 2,4-Dihydroxy-2,5-dimethyl-3(2H)-furan-3-one
Formula: C6 H8 O4
CAS: 10230-62-3
Molecular weight: 144
Origin: NIST Mass Spectrometry Data Center
m/z	RELATIVE INTENSITY
26	150
27	1331
29	861
37	70
41	140
42	851
43	9619
44	711
45	1561
53	280
54	350
55	7457
56	350
57	100
58	160
59	100
69	150
71	80
73	8638
74	340
75	40
83	30
84	70
87	110
100	70
101	9999
102	470
103	70
128	70
144	4714
145	300
146	50
