Mass Spectrum: Phenoxathiin, 2-chloro-
Formula: C12 H7 Cl O S
CAS: 10230-34-9
Molecular weight: 234
Origin: Div. of Experiment Therapeutics WRAIR, WRAMC, Washington DC 20307
m/z	RELATIVE INTENSITY
43	8
45	404
47	49
49	75
50	375
51	276
52	70
53	85
55	29
57	63
58	58
59	11
60	31
61	103
62	250
63	709
64	98
65	29
66	5
68	45
69	958
70	203
71	89
73	391
74	301
75	273
76	99
77	188
78	15
79	95
81	117
82	130
83	28
84	187
85	728
86	562
87	118
88	32
89	73
90	18
91	34
92	53
93	253
94	78
95	466
96	101
97	61
98	59
99	385
101	126
102	64
103	117
104	92
105	64
106	51
107	82
108	89
109	26
110	33
111	32
112	6
113	53
114	25
116	9
117	915
118	380
119	65
120	21
121	48
123	44
124	6
125	94
126	389
127	494
128	54
129	34
130	30
131	25
132	35
134	11
135	22
136	40
137	70
138	113
139	454
140	51
142	36
143	9
144	50
145	164
146	25
147	20
149	22
154	17
155	322
156	48
157	7
161	44
162	28
163	20
166	13
167	22
168	30
169	361
170	527
171	3071
172	405
173	264
174	43
175	36
179	50
180	25
181	22
182	5
183	18
189	72
190	33
191	29
197	11
198	216
199	2759
200	400
201	180
202	1316
203	171
204	435
205	353
206	76
207	116
208	37
210	11
211	6
231	37
232	140
233	82
234	9999
235	1401
236	3400
237	485
238	190
239	24
