Mass Spectrum: 5-Methyl-(E)-2-hepten-4-one
Formula: C8 H14 O
CAS: 102322-83-8
Molecular weight: 126
Origin: P.Pfnuer ET AL.J.Agr.Food Chem., 47,2044(1999)
m/z	RELATIVE INTENSITY
38	30
39	2823
40	440
41	8378
51	140
52	30
53	240
55	440
56	360
57	1161
68	460
69	9999
70	1481
77	150
79	50
83	260
84	150
85	70
97	50
98	2963
99	170
111	2762
112	170
126	540
127	50
