Mass Spectrum: Ethyl 5-methylhexanoate
Formula: C9 H18 O2
CAS: 10236-10-9
Molecular weight: 158
Origin: Japan AIST/NIMC Database- Spectrum MS-IW-2842
m/z	RELATIVE INTENSITY
15	50
26	50
27	809
28	259
29	1669
30	50
31	80
34	10
38	20
39	489
40	99
41	1719
42	709
43	3479
44	129
45	1059
46	30
47	20
48	50
49	10
50	10
51	30
52	10
53	109
54	40
55	1099
56	509
57	619
58	40
59	109
60	2589
61	1889
62	60
63	10
65	10
67	80
68	90
69	2629
70	1779
71	559
72	30
73	1649
74	439
75	109
79	30
80	10
81	40
82	20
83	319
84	249
85	209
86	20
87	1379
88	9999
89	809
90	70
93	10
94	229
95	3219
96	269
97	929
98	60
99	60
101	2459
102	489
103	30
111	199
112	119
113	1869
114	149
115	2419
116	199
117	30
129	129
130	20
131	129
132	10
143	159
144	10
157	20
158	60
159	10
