Mass Spectrum: 3-Hydroxy-.beta.-damascone
Formula: C13 H20 O2
CAS: 102488-09-5
Molecular weight: 208
Origin: K.Kumazawa ET AL, J.Agric. Food Chem., 49,3304(2001)
m/z	RELATIVE INTENSITY
40	761
41	7136
42	410
43	2292
44	170
45	240
50	280
51	591
52	240
53	1201
54	130
55	2282
56	290
58	991
59	100
63	160
64	180
65	741
66	340
67	1171
68	230
69	9999
70	470
71	340
74	140
75	130
76	240
77	1321
78	350
79	1621
80	330
81	681
83	320
85	100
86	200
89	100
91	1281
93	1361
94	350
95	921
96	170
97	480
98	150
103	190
104	420
105	2152
106	420
107	841
108	370
109	1001
110	220
111	300
112	621
115	200
116	170
117	200
118	160
119	1151
120	260
121	4524
122	861
123	731
124	270
126	210
128	180
129	270
131	200
132	210
133	911
134	260
135	500
136	200
137	691
138	240
139	631
140	200
142	300
144	100
145	270
146	300
147	941
148	300
149	2953
150	430
151	701
152	350
157	410
160	500
161	350
162	180
163	270
164	500
165	350
167	550
175	4414
176	671
180	200
190	290
193	3333
194	140
208	3503
209	530
