Mass Spectrum: 4-Heptanol, 2,6-dimethyl-, acetate
Formula: C11 H22 O2
CAS: 10250-45-0
Molecular weight: 186
Origin: W.Jennings, T.Shibamoto
m/z	RELATIVE INTENSITY
37	450
39	70
41	581
42	270
43	9999
44	781
45	280
55	2292
56	4354
57	2813
58	1571
59	571
61	450
68	360
69	5885
70	3253
71	1051
83	991
84	671
85	981
86	671
87	280
98	881
100	60
101	781
111	991
126	1571
127	450
129	2923
130	380
144	70
