Mass Spectrum: 1,3,5-Triazine-2,4,6(1H,3H,5H)-trione, 1,3,5-tri-2-propenyl-
Formula: C12 H15 N3 O3
CAS: 1025-15-6
Molecular weight: 249
Origin: Japan AIST/NIMC Database- Spectrum MS-NW-5093
m/z	RELATIVE INTENSITY
12	10
14	20
15	129
16	10
17	10
18	30
24	10
25	30
26	279
27	809
28	1419
29	139
30	60
31	10
32	10
36	20
37	99
38	199
39	2369
40	509
41	5019
42	289
43	139
44	229
50	10
51	40
52	129
53	109
54	1459
55	1179
56	3159
57	249
58	40
65	10
66	20
67	90
68	199
69	229
70	3209
71	119
72	20
77	10
78	10
79	60
80	90
81	149
82	5609
83	9999
84	2309
85	129
86	10
87	40
93	20
94	80
95	80
96	159
97	129
98	30
99	119
100	10
108	20
109	169
110	70
111	109
112	30
113	30
121	10
122	40
123	80
124	449
125	1929
126	229
127	139
128	10
130	10
135	10
136	10
137	319
138	99
139	369
140	60
141	20
151	199
152	40
153	40
154	70
155	10
163	10
164	10
165	119
166	90
167	109
168	30
169	10
170	20
173	10
174	20
178	10
179	109
180	40
182	20
191	10
192	20
193	20
194	109
195	70
196	10
205	30
206	50
207	40
208	1349
209	179
210	90
211	10
220	40
221	30
222	60
223	20
232	20
234	609
235	90
236	20
247	10
248	90
249	7519
250	1129
251	179
252	20
