Mass Spectrum: 3-Methyl-2-phenylindole
Formula: C15 H13 N
CAS: 10257-92-8
Molecular weight: 207
Origin: V.A. KOPTYUG, VOL.4, ATLAS OF MASS SPECTRA OF ORGANIC COMPOUNDS
m/z	RELATIVE INTENSITY
39	130
50	110
51	360
52	100
63	190
75	210
76	330
77	1020
78	150
88	210
89	280
90	280
101	290
102	960
103	520
104	190
115	100
128	1230
129	230
130	2100
131	220
151	140
152	150
165	100
176	220
177	240
178	840
179	590
180	150
190	120
191	200
203	330
204	2030
205	1000
206	8580
207	9999
208	1500
209	120
