Mass Spectrum: 2-Naphthyl octanoate
Formula: C18 H22 O2
CAS: 10251-17-9
Molecular weight: 270
Origin: NIST Mass Spectrometry Data Center, 1998.
m/z	RELATIVE INTENSITY
26	10
27	170
29	320
30	10
38	10
39	210
40	40
41	820
42	180
43	640
44	20
50	30
51	60
52	10
53	60
54	30
55	750
56	70
57	1230
58	60
62	60
63	190
64	30
65	130
66	10
67	70
68	10
69	90
70	20
71	20
72	10
74	30
75	60
76	30
77	80
78	10
79	10
81	30
82	10
83	70
84	20
86	30
87	50
88	90
89	320
90	30
91	20
97	30
98	30
99	10
100	10
101	50
102	10
109	40
111	10
113	110
114	160
115	3120
116	670
117	100
118	10
125	20
126	160
127	850
128	120
129	30
141	50
142	30
144	9999
145	2790
146	210
147	10
157	30
171	10
185	10
186	30
270	840
271	160
272	20
