Mass Spectrum: Benzoic acid, 2-methoxy-, phenyl ester
Formula: C14 H12 O3
CAS: 10268-71-0
Molecular weight: 228
Origin: Zaikin V.G., TIPS RAS, Moscow, Russia
m/z	RELATIVE INTENSITY
28	10
38	30
39	120
50	60
51	150
63	160
64	200
65	130
76	80
77	1171
78	90
79	70
92	661
93	60
94	40
105	80
120	140
135	9999
136	791
137	60
228	70
