Mass Spectrum: Valeramide, N-hexyl-
Formula: C11 H23 N O
CAS: 10264-25-2
Molecular weight: 185
Origin: CARL DJERASSI DEPT OF CHEM STANFORD UNIV STANFORD CALIF 94305
m/z	RELATIVE INTENSITY
41	8100
42	1600
43	9999
44	5900
45	600
53	200
54	1600
55	3100
56	2100
57	8200
58	1700
59	400
60	700
69	300
70	100
71	500
72	1800
73	4700
74	200
82	100
83	300
84	500
85	7800
86	3700
87	2500
88	100
99	100
100	1900
101	1800
102	1700
114	2500
115	1400
128	1700
129	100
142	2100
143	4200
144	300
156	2100
157	100
170	200
185	400
