Mass Spectrum: 1,4-Benzenedicarboxylic acid, di-2-propenyl ester
Formula: C14 H14 O4
CAS: 1026-92-2
Molecular weight: 246
Origin: RADIAN CORP
m/z	RELATIVE INTENSITY
15	60
26	30
27	210
29	290
30	20
31	20
37	20
38	80
39	1250
40	220
41	1960
42	60
50	330
51	80
52	20
53	30
55	80
57	190
58	30
63	20
64	10
65	250
66	30
74	50
75	250
76	930
77	230
78	30
79	90
89	20
91	310
92	20
103	690
104	1160
105	400
106	30
115	820
116	210
117	230
118	30
119	10
121	170
131	20
132	110
133	80
143	70
149	210
150	10
161	170
162	20
189	9999
190	1260
231	30
246	130
247	20
