Mass Spectrum: 3-Ethylcyclopentanone
Formula: C7 H12 O
CAS: 10264-55-8
Molecular weight: 112
Origin: NIST Mass Spectrometry Data Center, 1990.
m/z	RELATIVE INTENSITY
15	283
16	96
26	703
27	3821
28	2985
29	2585
32	3
37	121
38	424
39	3678
40	913
41	6123
42	2945
43	823
50	385
51	634
52	256
53	1138
54	121
55	9120
56	5928
57	761
58	86
65	132
67	347
68	369
69	1362
70	1908
71	100
79	442
81	91
83	9999
84	1199
85	84
94	124
97	330
112	4133
113	282
