Mass Spectrum: 3,7,11,15-Tetramethyl-2-hexadecen-1-ol
Formula: C20 H40 O
CAS: 102608-53-7
Molecular weight: 296
Origin: NIST Mass Spectrometry Data Center, 1990.
m/z	RELATIVE INTENSITY
27	895
29	1933
39	1299
41	8115
42	1441
43	9652
44	400
51	228
52	208
53	2271
55	8521
56	2545
57	8115
58	339
65	822
67	6621
68	7280
69	6306
70	2036
71	7481
72	423
77	1145
79	3396
80	1253
81	9999
82	9864
83	4678
84	774
85	1509
86	228
91	953
92	226
93	1364
94	1295
95	9625
96	4219
97	2908
98	418
99	272
105	254
107	868
108	355
109	2637
110	1158
111	1572
112	339
113	180
121	345
123	8922
124	2162
125	621
126	404
137	910
138	410
151	271
152	203
179	400
193	259
278	1139
279	268
