Mass Spectrum: Propanamide, N-hexyl-
Formula: C9 H19 N O
CAS: 10264-24-1
Molecular weight: 157
Origin: CARL DJERASSI DEPT OF CHEM STANFORD UNIV STANFORD CALIF 94305
m/z	RELATIVE INTENSITY
27	1200
28	800
29	3500
30	9999
31	200
39	200
41	1200
42	300
43	2300
44	2200
45	200
55	500
56	400
57	3900
58	700
72	200
74	900
85	200
86	2200
87	2100
100	600
101	400
114	900
115	100
128	700
157	400
