Mass Spectrum: Butanamide, N-hexyl-
Formula: C10 H21 N O
CAS: 10264-17-2
Molecular weight: 171
Origin: CARL DJERASSI DEPT OF CHEM STANFORD UNIV STANFORD CALIF 94305
m/z	RELATIVE INTENSITY
27	2000
28	700
29	1500
30	9999
31	100
39	800
41	3300
42	800
43	8100
44	3300
45	300
55	800
56	600
57	400
58	700
59	200
69	300
70	100
71	4300
72	700
73	1400
85	300
86	900
87	700
88	1100
100	1900
101	2000
102	100
114	600
115	100
128	2000
129	100
142	400
143	500
156	300
171	700
