Mass Spectrum: Pyridine, 3-methyl-2-phenyl-
Formula: C12 H11 N
CAS: 10273-90-2
Molecular weight: 169
Origin: Japan AIST/NIMC Database- Spectrum MS-NW-9294
m/z	RELATIVE INTENSITY
26	10
27	60
28	20
37	10
38	70
39	629
40	129
41	30
50	139
51	319
52	70
53	20
57	50
58	70
61	20
62	90
63	309
64	149
65	299
66	60
69	70
70	179
71	149
72	10
74	70
75	90
76	159
77	389
78	50
82	80
83	1049
84	269
85	20
86	20
87	40
88	30
89	139
90	40
91	60
92	20
98	10
99	10
100	10
101	40
102	60
103	80
104	90
105	10
113	40
114	50
115	339
116	60
117	20
125	10
126	60
127	80
128	50
129	10
130	10
138	10
139	249
140	239
141	299
142	60
143	10
151	10
152	20
153	50
154	90
155	20
164	10
165	20
166	399
167	2479
168	9999
169	2999
170	339
171	20
