Mass Spectrum: 3-Butenoic acid, 2,2-dimethyl-
Formula: C6 H10 O2
CAS: 10276-09-2
Molecular weight: 114
Origin: J. F. J. TODD
m/z	RELATIVE INTENSITY
39	830
41	6590
43	1100
53	780
55	550
56	590
59	910
69	9999
73	440
81	150
88	240
96	240
99	2780
114	1050
