Mass Spectrum: Benzenamine, 3,5-dimethoxy-
Formula: C8 H11 N O2
CAS: 10272-07-8
Molecular weight: 153
Origin: Japan AIST/NIMC Database- Spectrum MS-NW-1623
m/z	RELATIVE INTENSITY
14	30
15	269
26	50
27	119
28	259
29	80
30	60
31	20
32	20
33	30
37	60
38	229
39	429
40	169
41	529
42	129
43	60
44	80
45	10
49	20
50	119
51	319
52	629
53	359
54	209
55	70
56	30
57	20
58	20
59	30
61	40
62	109
63	219
64	139
65	379
66	359
67	589
68	369
69	169
70	30
74	10
75	10
76	219
77	159
78	299
79	309
80	679
81	179
82	129
83	20
84	10
89	20
90	60
91	70
92	509
93	1399
94	1399
95	929
96	90
97	30
104	30
105	50
106	109
107	249
108	179
109	379
110	989
111	90
120	50
121	30
122	539
123	739
124	4709
125	919
126	70
134	30
135	40
136	60
137	50
138	60
139	10
151	30
152	1469
153	9999
154	919
155	70
