Mass Spectrum: 1,5-Anhydro-2,3,4,6-tetra-O-methyl-D-galactitol
Formula: C10 H20 O5
CAS: 102850-59-9
Molecular weight: 220
Origin: L. E. Elvebak II et. al. Carbohydrate Research 269 (1995) 1-15
m/z	RELATIVE INTENSITY
41	430
43	320
45	1561
55	190
58	631
59	370
71	2102
73	881
74	180
75	1271
83	190
85	861
87	460
88	1782
89	460
99	791
101	9999
102	791
103	140
111	280
115	1061
131	160
143	1041
157	540
175	3343
176	280
188	100
220	90
