Mass Spectrum: 1,5-Anhydro-4,6-di-O-acetyl-2,3-di-O-methyl-D-glucitol
Formula: C12 H20 O7
CAS: 102803-54-3
Molecular weight: 276
Origin: A. VAN LANGENHOVE, HARVARD SCH. PUBLIC HEALTH, BOSTON, USA
m/z	RELATIVE INTENSITY
69	451
71	8141
72	1004
73	3640
74	7771
75	7597
76	312
81	881
82	1643
83	670
84	1020
85	9999
86	645
87	5927
88	3116
89	879
94	157
95	284
96	830
97	6888
98	1849
99	1927
100	700
101	4382
102	569
103	7211
104	356
110	344
111	2896
112	632
113	1204
114	945
115	3885
116	4866
117	4085
118	286
119	210
124	1265
125	1490
126	329
127	711
129	2986
130	337
131	322
141	499
142	1067
143	6752
144	537
145	4350
146	336
147	163
153	130
155	198
156	7650
157	2493
158	1245
159	595
161	165
171	2670
172	322
173	341
174	263
175	192
184	258
203	564
217	541
233	183
234	114
