Mass Spectrum: Benzamide, N-allyl-
Formula: C10 H11 N O
CAS: 10283-95-1
Molecular weight: 161
Origin: A.A.Kutin, Moscow, Russia
m/z	RELATIVE INTENSITY
37	97
38	235
39	897
40	90
41	405
42	25
43	22
44	52
50	1074
51	2825
52	318
53	88
54	163
55	77
56	638
57	32
58	12
60	3
61	18
62	46
63	66
64	36
65	59
66	24
68	2
71	6
73	69
74	298
75	218
77	6074
78	577
79	62
82	7
83	4
84	12
85	3
86	5
87	5
88	4
89	20
90	17
91	67
92	13
93	3
94	1
99	3
100	2
101	4
102	13
103	61
105	9999
106	866
107	55
108	3
113	1
115	81
116	32
117	69
118	49
119	13
120	7
122	2
127	2
128	13
129	4
130	19
131	14
132	39
133	40
134	65
135	8
140	4
142	19
143	11
144	13
146	780
147	80
148	4
158	3
160	128
161	1175
162	150
163	14
