Mass Spectrum: 1,5-Anhydro-4-O-acetyl-2,3,6-tri-O-methyl-D-galactitol
Formula: C11 H20 O6
CAS: 102850-64-6
Molecular weight: 248
Origin: A. VAN LANGENHOVE, HARVARD SCH. PUBLIC HEALTH, BOSTON, USA
m/z	RELATIVE INTENSITY
70	754
71	6345
72	742
73	2177
74	6374
75	3016
76	115
77	190
79	205
81	1117
82	628
83	760
84	3918
85	4015
86	2485
87	8023
88	3841
89	1064
91	145
94	120
95	437
96	207
97	9999
98	1207
99	1480
100	1195
101	3512
102	865
103	4796
104	213
105	162
109	140
110	122
111	2094
112	382
113	714
114	494
115	1945
116	1744
117	2516
118	241
119	355
124	168
125	927
126	380
127	346
128	170
129	7085
130	981
131	548
132	209
134	126
135	108
136	122
141	270
142	827
143	3383
144	377
145	1756
146	128
147	159
155	124
156	735
157	234
158	219
159	119
160	104
161	528
171	5858
172	521
173	240
174	567
175	203
185	792
186	1033
187	121
189	170
203	2388
204	147
206	524
216	149
