Mass Spectrum: 1,5-Anhydro-2-O-acetyl-3,4,6-tri-O-methyl-D-glucitol
Formula: C11 H20 O6
CAS: 102850-60-2
Molecular weight: 248
Origin: A. VAN LANGENHOVE, HARVARD SCH. PUBLIC HEALTH, BOSTON, USA
m/z	RELATIVE INTENSITY
68	157
69	748
70	256
71	9693
72	1654
73	1294
74	1914
75	825
81	328
83	611
84	241
85	1189
86	198
87	3422
88	2202
89	758
97	488
98	159
99	792
100	458
101	9999
102	7334
103	576
104	118
111	2809
112	318
113	372
114	506
115	2113
116	519
117	281
125	224
127	131
129	1717
130	147
131	352
142	295
143	3184
144	276
145	160
147	2236
148	184
156	219
171	335
203	684
