Mass Spectrum: 4-Propyl-1,1'-diphenyl
Formula: C15 H16
CAS: 10289-45-9
Molecular weight: 196
Origin: Dmitri Zagorevskii, Scientific Instruments & Applications
m/z	RELATIVE INTENSITY
29	280
38	78
39	817
40	40
41	35
50	298
51	490
52	96
56	34
57	160
61	25
62	195
63	625
64	93
65	278
74	148
75	177
76	271
77	223
78	45
82	1143
83	57
84	121
86	37
87	108
88	68
89	298
90	36
91	138
98	33
99	48
102	137
113	102
115	586
116	54
126	84
127	89
128	312
129	46
139	295
140	40
141	113
151	269
152	1559
153	283
154	39
163	198
164	353
165	2754
166	750
167	9999
168	1488
169	97
194	37
196	3035
197	440
198	38
