Mass Spectrum: Boron trichloride
Formula: B Cl3
CAS: 10294-34-5
Molecular weight: 116
Origin: CCC 0021
m/z	RELATIVE INTENSITY
10	320
11	1241
35	2873
37	901
46	1181
47	110
48	380
49	10
55	70
56	60
57	60
58	10
59	10
60	10
61	10
62	10
63	30
64	20
65	90
66	10
67	30
68	10
69	20
70	130
71	20
72	60
73	10
74	20
75	10
76	10
77	10
78	10
79	10
80	2432
81	9999
82	1591
83	6476
84	260
85	1041
115	540
116	2152
117	520
118	2072
119	170
120	661
121	20
122	70
