Mass Spectrum: Bicyclo[2.2.1]heptan-2-one, 4,7,7-trimethyl-, (1S)-
Formula: C10 H16 O
CAS: 10292-98-5
Molecular weight: 152
m/z	RELATIVE INTENSITY
15	50
26	60
27	1081
28	150
29	761
38	70
39	1651
40	310
41	4004
42	280
43	390
50	70
51	260
52	120
53	821
54	170
55	1561
56	160
57	230
63	70
65	250
66	180
67	1191
68	1101
69	9999
70	931
71	40
77	390
78	80
79	400
80	1852
81	8558
82	1191
83	520
84	290
91	240
93	210
94	100
95	1651
96	240
97	70
107	60
108	110
109	1942
110	290
123	60
124	200
137	120
152	2242
153	240
