Mass Spectrum: Tetramethylene chloroiodide
Formula: C4 H8 Cl I
CAS: 10297-05-9
Molecular weight: 218
Origin: NIST Mass Spectrometry Data Center, 1994
m/z	RELATIVE INTENSITY
4	21
14	51
15	94
26	693
27	3134
28	929
29	2727
30	59
32	21
35	49
36	54
37	107
38	251
39	1884
40	234
41	1444
42	337
43	578
44	21
49	600
50	243
51	449
52	79
53	748
54	21
55	9999
56	570
57	642
58	34
60	23
61	77
62	232
63	822
64	105
65	247
69	49
70	98
71	339
72	18
73	14
75	69
77	35
84	62
85	210
89	33
91	5932
92	277
93	1845
94	79
98	50
99	51
112	26
113	34
127	1206
128	272
129	22
139	20
141	212
155	237
156	62
218	141
219	6
220	47
221	2
