Mass Spectrum: .beta.-Phenylethyl butyrate
Formula: C12 H16 O2
CAS: 103-52-6
Molecular weight: 192
Origin: V.Zaikin,Topchiev Inst.Petrochem.Synth.,Moscow
m/z	RELATIVE INTENSITY
27	90
39	100
41	160
43	801
44	30
50	40
51	130
52	60
60	30
63	50
65	180
71	1401
72	70
77	330
78	220
79	230
89	60
90	30
91	540
92	100
102	50
103	380
104	9999
105	1712
106	110
