Mass Spectrum: Benzeneacetamide
Formula: C8 H9 N O
CAS: 103-81-1
Molecular weight: 135
Origin: Japan AIST/NIMC Database- Spectrum MS-NW-1741
m/z	RELATIVE INTENSITY
16	40
17	10
18	10
26	50
27	169
28	99
29	10
30	20
37	109
38	329
39	1659
40	149
41	339
42	30
43	70
44	2109
45	80
49	40
50	459
51	809
52	229
53	90
54	10
61	149
62	419
63	1069
64	309
65	2519
66	179
67	10
73	10
74	99
75	70
76	50
77	219
78	40
79	70
80	10
85	50
86	80
87	60
88	10
89	759
90	499
91	9999
92	9159
93	669
94	20
104	20
106	50
107	10
116	60
117	149
118	50
135	1759
136	159
