Mass Spectrum: 1,4-Benzenediamine, N,N'-bis(1-methylheptyl)-
Formula: C22 H40 N2
CAS: 103-96-8
Molecular weight: 332
Origin: RADIAN CORP
m/z	RELATIVE INTENSITY
27	120
28	350
29	360
32	140
39	70
40	20
41	750
42	190
43	1070
44	70
53	20
55	380
56	20
57	350
65	100
67	10
69	340
71	110
73	100
74	200
77	70
79	80
80	300
81	2260
87	70
90	20
91	230
92	110
93	210
94	90
104	40
105	40
106	230
107	980
108	140
109	30
117	210
118	560
119	600
120	570
121	50
130	60
131	60
132	210
133	350
134	380
135	940
136	60
144	20
145	180
146	80
147	240
148	30
159	130
160	160
161	1320
162	190
173	40
175	530
176	60
188	10
189	90
190	20
203	120
204	20
205	90
217	200
218	270
219	360
220	190
221	30
231	260
232	10
243	30
245	3250
246	720
247	9999
248	1840
249	130
259	60
260	330
261	100
273	140
274	40
287	60
301	180
302	20
315	350
316	50
317	980
318	210
329	20
330	370
331	270
332	3620
333	870
334	70
