Mass Spectrum: Propanoic acid, 2-methyl-, 2-phenylethyl ester
Formula: C12 H16 O2
CAS: 103-48-0
Molecular weight: 192
m/z	RELATIVE INTENSITY
27	1601
28	460
29	150
31	70
38	90
39	911
40	120
41	1141
42	210
43	5165
44	180
50	50
51	571
52	150
53	90
55	80
57	130
63	200
64	60
65	540
71	1651
72	70
77	751
78	380
79	380
89	100
90	60
91	1091
92	220
102	60
103	410
104	9999
105	1782
106	110
