Mass Spectrum: Heptane, 3-[(ethenyloxy)methyl]-
Formula: C10 H20 O
CAS: 103-44-6
Molecular weight: 156
Origin: Japan AIST/NIMC Database- Spectrum MS-NW-4440
m/z	RELATIVE INTENSITY
14	20
15	119
17	10
18	30
26	90
27	1619
28	289
29	2809
30	60
31	609
32	70
38	20
39	839
40	119
41	4619
42	759
43	8719
44	369
45	169
50	30
51	60
52	30
53	259
54	139
55	2719
56	1649
57	9999
58	459
59	109
63	10
65	30
66	10
67	149
68	139
69	999
70	2519
71	6019
72	339
73	10
77	20
79	20
80	10
81	119
82	199
83	1229
84	609
85	119
87	10
95	20
96	60
97	149
98	30
99	30
100	20
109	20
110	589
111	179
112	769
113	199
114	20
123	40
127	10
141	819
142	80
156	30
