Mass Spectrum: Butanoic acid, 3-methyl-, phenylmethyl ester
Formula: C12 H16 O2
CAS: 103-38-8
Molecular weight: 192
Origin: Japan AIST/NIMC Database- Spectrum MS-NW-5837
m/z	RELATIVE INTENSITY
14	10
15	50
16	10
26	40
27	419
28	109
29	699
30	10
31	20
32	20
37	20
38	80
39	809
40	99
41	1169
42	149
43	569
44	119
45	30
49	10
50	169
51	449
52	149
53	70
54	10
55	139
56	80
57	3559
58	139
59	399
60	99
61	20
62	60
63	219
64	80
65	989
66	50
68	10
69	209
70	20
71	60
72	10
73	20
74	30
75	20
76	30
77	649
78	169
79	689
80	80
83	40
84	70
85	2659
86	189
87	40
88	10
89	369
90	1219
91	9999
92	1459
93	90
97	10
99	10
101	40
104	20
105	119
106	40
107	499
108	3729
109	299
115	10
117	20
118	10
122	20
131	30
132	109
133	30
135	10
146	10
150	10
174	90
175	20
177	10
192	1939
193	289
194	30
