Mass Spectrum: Benzene, isothiocyanato-
Formula: C7 H5 N S
CAS: 103-72-0
Molecular weight: 135
Origin: Japan AIST/NIMC Database- Spectrum MS-NW-4736
m/z	RELATIVE INTENSITY
14	30
16	10
25	10
26	80
27	239
28	48
29	10
32	10
36	50
37	199
38	269
39	399
40	40
41	40
44	129
45	119
48	20
49	90
50	959
51	2749
52	229
53	20
54	60
56	20
57	30
58	70
59	30
60	30
61	80
62	119
63	319
64	359
65	80
66	10
67	509
68	50
69	90
70	139
71	20
72	20
73	70
74	279
75	289
76	389
77	6809
78	469
79	10
81	20
82	60
83	90
84	70
85	10
86	10
87	20
88	30
89	10
90	129
91	399
92	30
93	20
94	20
95	20
96	30
99	10
102	30
103	229
104	20
106	10
107	50
108	299
109	60
110	20
120	10
133	20
134	109
135	9999
136	909
137	479
138	40
