Mass Spectrum: 2-Phenoxyethyl isobutyrate
Formula: C12 H16 O3
CAS: 103-60-6
Molecular weight: 208
Origin: NIST Mass Spectrometry Data Center, 1990.
m/z	RELATIVE INTENSITY
15	87
17	19
19	29
25	18
26	102
27	727
29	68
31	43
37	35
38	155
39	1018
40	156
41	977
42	18
43	7524
44	288
45	224
50	180
51	817
52	71
53	47
55	193
56	24
61	15
62	42
63	176
64	142
65	884
66	241
67	17
68	12
69	92
70	12
71	2491
72	115
73	28
74	40
75	30
77	1747
78	142
79	155
80	14
89	15
91	442
92	146
93	217
94	593
95	84
99	102
103	50
107	143
108	23
112	11
115	9999
116	643
117	66
119	159
120	389
121	155
138	11
208	167
209	15
