Mass Spectrum: Bibenzyl
Formula: C14 H14
CAS: 103-29-7
Molecular weight: 182
Origin: NIST Mass Spectrometry Data Center, 1990.
m/z	RELATIVE INTENSITY
27	63
28	18
38	69
39	515
40	46
41	117
50	205
51	527
52	129
53	38
62	121
63	432
65	1790
66	103
74	85
75	99
76	156
77	409
78	180
79	33
82	22
83	20
86	28
87	42
89	362
91	9999
92	789
93	25
101	19
102	87
103	172
104	233
105	27
115	87
126	28
127	26
128	35
139	31
150	21
151	42
152	87
153	32
165	181
166	62
167	18
176	43
177	27
178	108
179	68
180	23
181	18
182	1814
183	264
184	21
