Mass Spectrum: Paradrine
Formula: C9 H13 N O
CAS: 103-86-6
Molecular weight: 151
Origin: AAFS Toxicology Section MS DB Committee, U. Alberta, Canada
m/z	RELATIVE INTENSITY
29	210
31	10
32	120
39	410
40	200
42	200
44	9999
45	280
51	320
53	330
55	40
56	30
65	120
68	270
77	840
78	330
79	40
91	110
105	110
107	780
108	320
133	30
151	340
