Mass Spectrum: Benzenemethanamine, N,N-dimethyl-
Formula: C9 H13 N
CAS: 103-83-3
Molecular weight: 135
Origin: Japan AIST/NIMC Database- Spectrum MS-NW-8486
m/z	RELATIVE INTENSITY
14	10
15	339
17	10
26	20
27	109
28	159
29	99
30	399
37	20
38	90
39	689
40	80
41	279
42	1919
43	279
44	1559
45	50
50	179
51	459
52	109
53	30
56	60
57	329
58	9999
59	369
61	30
62	109
63	389
64	109
65	1259
66	90
67	80
68	10
74	40
75	40
76	50
77	289
78	90
79	20
86	20
87	10
89	299
90	129
91	4449
92	769
93	50
94	10
103	40
104	30
105	50
106	20
116	20
117	50
118	289
119	60
120	10
131	10
132	129
133	30
134	2559
135	3759
136	379
137	10
