Mass Spectrum: Propanoic acid, 2-methyl-, 3-phenylpropyl ester
Formula: C13 H18 O2
CAS: 103-58-2
Molecular weight: 206
Origin: Japan AIST/NIMC Database- Spectrum MS-NW-5437
m/z	RELATIVE INTENSITY
15	30
18	10
26	20
27	499
28	50
29	40
31	40
37	10
38	40
39	499
40	60
41	839
42	119
43	2639
44	90
45	10
50	80
51	299
52	80
53	40
55	50
56	10
57	30
58	10
62	30
63	129
64	40
65	529
66	30
69	10
70	50
71	669
72	30
73	20
74	20
75	30
76	30
77	369
78	299
79	179
80	10
87	10
88	10
89	129
90	70
91	2849
92	359
93	20
101	10
102	30
103	289
104	139
105	349
106	40
107	20
114	10
115	209
116	159
117	5939
118	9999
119	1089
120	50
131	10
132	10
133	20
134	10
135	10
145	10
