Mass Spectrum: Chlorbenside
Formula: C13 H10 Cl2 S
CAS: 103-17-3
Molecular weight: 268
Origin: MASS SPECTROMETRY CENTER, UNIV. OF UTAH. EPA-PTSEL 1340
m/z	RELATIVE INTENSITY
27	6
28	36
38	68
39	383
40	7
45	248
49	7
50	176
51	193
58	23
61	40
62	156
63	616
64	92
65	107
69	182
70	6
73	267
74	66
75	325
76	18
77	31
81	8
82	63
86	6
87	16
89	982
90	468
91	42
99	565
100	22
101	197
107	7
108	468
109	48
110	7
124	399
125	9999
126	1249
127	4386
128	379
143	345
144	25
145	123
155	48
231	7
268	1317
269	214
270	927
271	157
272	215
