Mass Spectrum: Benzene, 1,1'-[oxybis(methylene)]bis-
Formula: C14 H14 O
CAS: 103-50-4
Molecular weight: 198
Origin: NIST Mass Spectrometry Data Center, 1990.
m/z	RELATIVE INTENSITY
14	34
17	11
18	39
26	36
27	197
28	32
29	118
32	35
37	31
38	130
39	884
40	84
41	211
42	19
44	3
50	325
51	1004
52	249
53	114
61	29
62	115
63	496
64	189
65	2223
66	136
74	73
75	63
77	1517
78	293
79	1723
80	138
86	19
87	19
89	439
91	9193
92	9999
93	747
94	34
99	33
105	266
107	1406
108	134
119	106
120	120
128	15
152	41
165	70
166	33
167	34
