Mass Spectrum: Benzene, propyl-
Formula: C9 H12
CAS: 103-65-1
Molecular weight: 120
Origin: Japan AIST/NIMC Database- Spectrum MS-NW-3287
m/z	RELATIVE INTENSITY
15	10
26	20
27	159
29	50
37	10
38	50
39	409
40	30
41	189
42	10
49	10
50	129
51	349
52	90
53	30
57	30
58	30
61	20
62	60
63	199
64	50
65	719
66	50
74	50
75	30
76	30
77	269
78	589
79	129
85	10
86	10
87	10
89	139
90	60
91	9999
92	1079
93	50
102	30
103	109
104	60
105	379
106	30
115	90
116	20
117	60
118	10
119	20
120	2589
121	259
122	10
