Mass Spectrum: Benzenepropanol, .alpha.,.alpha.-dimethyl-
Formula: C11 H16 O
CAS: 103-05-9
Molecular weight: 164
Origin: Japan AIST/NIMC Database- Spectrum MS-NW-5277
m/z	RELATIVE INTENSITY
15	109
18	10
26	20
27	319
28	70
29	139
31	699
32	20
37	10
38	50
39	589
40	60
41	599
42	30
43	869
44	20
45	70
50	169
51	539
52	139
53	139
54	10
55	129
56	50
57	60
58	209
59	9999
60	359
61	30
62	50
63	259
64	99
65	909
66	60
67	50
68	129
69	60
70	40
71	60
72	10
73	10
74	70
75	60
76	50
77	659
78	729
79	389
80	20
81	10
82	10
83	40
84	10
85	10
86	10
87	20
89	179
90	80
91	8219
92	719
93	40
94	10
95	10
97	20
101	10
102	60
103	319
104	349
105	579
106	429
107	70
108	40
112	10
115	129
116	129
117	129
118	40
119	10
121	20
122	10
127	40
128	80
129	149
130	60
131	4549
132	539
133	40
140	10
143	10
144	10
145	129
146	4409
147	559
148	40
149	639
150	80
