Mass Spectrum: Azobenzene
Formula: C12 H10 N2
CAS: 103-33-3
Molecular weight: 182
Origin: NIST Mass Spectrometry Data Center, 1990.
m/z	RELATIVE INTENSITY
27	98
28	110
37	85
38	195
39	263
40	30
50	911
51	3293
52	237
61	59
62	134
63	356
64	335
65	111
73	42
74	249
75	209
76	42
77	9999
78	696
88	28
89	37
91	57
102	66
105	1668
106	122
115	138
126	41
127	68
128	134
139	51
150	29
151	179
152	795
153	417
154	108
182	2484
183	308
184	22
