Mass Spectrum: Acetamide, N-(4-methylphenyl)-
Formula: C9 H11 N O
CAS: 103-89-9
Molecular weight: 149
Origin: NIST Mass Spectrometry Data Center
m/z	RELATIVE INTENSITY
15	20
26	10
27	80
30	10
37	10
38	60
39	310
40	30
41	90
42	120
43	1411
44	30
49	10
50	280
51	671
52	571
53	390
54	100
61	30
62	100
63	290
64	120
65	360
66	80
67	30
73	10
74	50
75	50
76	100
77	1832
78	671
79	821
80	190
81	20
86	10
87	10
89	130
90	80
91	360
92	50
93	10
102	20
103	20
104	310
105	110
106	9729
107	9999
108	831
109	30
118	30
120	60
131	10
132	80
133	40
134	30
147	10
149	4104
150	420
151	20
