Mass Spectrum: Benzene, (2-bromoethenyl)-
Formula: C8 H7 Br
CAS: 103-64-0
Molecular weight: 182
m/z	RELATIVE INTENSITY
26	90
27	170
36	10
37	110
38	270
39	350
40	20
43	20
44	10
45	30
49	150
50	1291
51	3353
52	380
53	80
59	20
60	10
61	140
62	290
63	530
64	60
65	20
73	110
74	621
75	641
76	741
77	4584
78	500
79	60
80	20
81	30
82	20
83	10
84	10
85	20
86	40
87	90
88	20
89	30
90	60
91	581
92	510
93	40
101	210
102	1561
103	9459
104	841
105	160
106	20
181	20
182	9999
183	901
184	9799
185	861
186	40
