Mass Spectrum: Benzene, isocyanato-
Formula: C7 H5 N O
CAS: 103-71-9
Molecular weight: 119
Origin: NIST Mass Spectrometry Data Center, 1994
m/z	RELATIVE INTENSITY
15	48
18	6
24	20
25	101
26	482
27	472
28	213
29	74
31	73
36	122
37	1078
38	1615
39	1489
40	306
41	549
42	89
45	188
46	273
48	35
49	257
50	924
51	984
52	604
53	59
54	83
60	360
61	403
62	620
63	1743
64	3701
65	748
66	49
67	24
72	16
73	93
74	206
75	145
76	150
77	141
80	26
86	35
87	76
88	78
91	5631
92	414
93	15
119	9999
120	773
121	50
