Mass Spectrum: Hexanedioic acid, bis(2-ethylhexyl) ester
Formula: C22 H42 O4
CAS: 103-23-1
Molecular weight: 370
Origin: NIST Mass Spectrometry Data Center, 1998.
m/z	RELATIVE INTENSITY
26	10
27	170
29	450
30	10
31	20
38	10
39	190
40	40
41	1520
42	350
43	1630
44	60
45	40
50	10
51	10
52	10
53	110
54	120
55	2700
56	1060
57	3730
58	180
59	190
60	30
61	50
65	20
66	10
67	140
68	150
69	650
70	2700
71	2500
72	160
73	130
74	20
77	10
79	20
80	10
81	60
82	300
83	1680
84	1130
85	170
86	30
87	550
88	20
93	10
95	30
96	10
97	140
98	30
99	60
100	520
101	970
102	300
103	30
109	20
110	50
111	1870
112	3140
113	1400
114	130
115	20
126	30
127	80
128	520
129	9999
130	720
131	110
132	10
139	10
140	10
141	10
142	240
143	70
144	10
145	20
146	290
147	2200
148	150
149	20
154	20
155	10
156	10
157	120
158	20
160	100
161	10
169	10
172	20
173	10
183	10
198	10
199	130
200	20
211	10
212	140
213	20
214	20
223	10
241	680
242	100
243	10
258	40
259	400
260	60
261	10
272	10
284	10
313	20
327	10
341	10
