Mass Spectrum: p-Tolyl isobutyrate
Formula: C11 H14 O2
CAS: 103-93-5
Molecular weight: 178
Origin: Japan AIST/NIMC Database- Spectrum MS-NW-9449
m/z	RELATIVE INTENSITY
15	20
26	30
27	509
28	70
29	20
38	30
39	369
40	50
41	549
42	239
43	5229
44	179
50	80
51	249
52	159
53	189
54	10
55	109
56	10
62	20
63	90
64	20
65	239
66	30
69	30
70	779
71	1599
72	70
74	10
75	10
76	10
77	779
78	199
79	479
80	349
81	40
89	50
90	269
91	419
92	70
93	10
105	10
106	20
107	2269
108	9999
109	809
110	50
119	20
121	20
122	60
135	20
149	10
178	1369
179	189
180	10
