Mass Spectrum: Monobenzone
Formula: C13 H12 O2
CAS: 103-16-2
Molecular weight: 200
Origin: Japan AIST/NIMC Database- Spectrum MS-NW-5687
m/z	RELATIVE INTENSITY
26	60
27	179
28	70
29	20
31	10
37	10
38	60
39	379
40	20
41	99
42	20
43	20
44	20
45	10
49	10
50	80
51	189
52	99
53	139
54	99
55	60
56	20
57	20
58	20
61	20
62	70
63	179
64	70
65	959
66	70
67	10
69	20
70	20
71	10
73	10
74	20
75	20
76	20
77	80
78	20
79	20
80	20
81	209
82	50
83	10
87	10
88	10
89	169
90	99
91	9999
92	879
93	50
94	20
99	10
100	10
103	10
104	10
105	20
106	10
107	10
108	50
109	209
110	70
111	10
112	10
115	30
116	10
117	20
118	30
119	20
121	10
122	20
127	10
128	30
129	10
139	10
140	20
141	20
142	10
152	30
153	20
197	20
198	20
199	10
200	1579
201	239
202	30
