Mass Spectrum: Endosulfan sulfate
Formula: C9 H6 Cl6 O4 S
CAS: 1031-07-8
Molecular weight: 420
Origin: NIST Mass Spectrometry Data Center, 1990.
m/z	RELATIVE INTENSITY
15	370
17	20
18	70
26	209
27	1161
29	2501
30	998
31	568
35	155
36	296
37	248
38	346
39	1703
40	255
41	1177
42	347
43	322
44	62
47	248
48	468
49	708
50	663
51	712
52	64
53	133
54	45
55	189
56	35
57	45
60	270
61	665
62	554
63	623
64	221
65	280
66	140
67	200
68	76
69	463
70	62
71	175
72	393
73	1079
74	902
75	1109
76	106
77	178
78	105
79	105
80	77
81	134
82	189
83	559
84	868
85	1532
86	902
87	545
88	77
89	148
90	74
91	78
94	138
95	469
96	638
97	838
98	596
99	907
100	174
101	74
102	1356
103	1124
104	397
105	70
106	248
107	973
108	770
109	1196
110	350
111	458
112	74
113	137
114	63
115	52
116	52
117	623
118	263
119	1250
120	1305
121	1412
122	447
123	805
124	91
125	158
126	40
127	25
129	62
130	431
131	529
132	423
133	986
134	443
135	700
136	535
137	340
138	292
141	1025
143	1363
144	255
145	776
146	271
147	216
148	167
149	132
150	30
151	27
153	61
154	87
155	224
156	166
157	764
158	262
159	491
160	137
161	117
162	46
165	518
167	809
168	242
169	909
170	2180
171	859
172	1532
173	307
174	238
175	45
177	56
178	161
179	244
180	271
181	273
182	220
183	110
184	76
185	79
186	62
187	35
188	53
189	47
190	35
191	1152
192	373
193	1649
194	429
195	892
196	180
197	255
198	44
199	57
200	69
201	278
202	93
203	580
204	1731
205	1451
206	1803
207	1252
208	791
209	476
210	123
211	70
213	113
214	319
215	195
216	351
217	224
218	177
219	181
220	108
221	104
222	47
223	72
225	242
227	3980
228	984
229	4851
230	781
231	2301
232	267
233	569
234	47
235	3438
236	47
237	5120
238	794
239	4929
240	1483
241	3571
242	1591
243	1507
244	681
245	378
246	137
247	77
248	165
249	124
250	191
251	556
252	623
253	734
254	700
255	460
256	315
257	1164
258	203
259	1288
260	77
261	1657
262	394
263	2010
264	431
265	1213
266	248
267	377
268	138
269	138
270	4824
271	77
272	8875
273	77
274	7772
275	2790
276	3895
277	3438
278	1356
279	2174
280	436
281	645
282	94
283	120
287	766
288	129
289	1240
290	148
291	776
292	90
293	296
294	38
295	83
297	119
298	38
299	138
300	32
301	102
303	51
305	108
306	36
307	146
308	48
309	300
310	86
311	469
312	104
313	367
314	89
315	181
316	36
317	59
337	26
338	29
339	36
340	38
342	39
351	56
355	551
356	118
357	986
358	137
359	691
360	75
361	288
362	34
363	60
385	5992
386	1424
387	9999
388	1507
389	6533
390	796
391	2476
392	255
393	431
394	59
395	59
420	1833
421	509
422	3630
423	568
424	3093
425	375
426	1359
427	187
428	375
429	36
430	68
