Mass Spectrum: 3,5-Dichlorophenoxyacetonitrile
Formula: C8 H5 Cl2 N O
CAS: 103140-12-1
Molecular weight: 201
Origin: NIST Mass Spectrometry Data Center, 1994
m/z	RELATIVE INTENSITY
12	196
13	631
18	123
25	126
35	253
36	441
37	1136
38	1511
39	640
40	2427
47	236
48	250
49	690
50	963
51	214
52	51
53	124
54	101
55	74
60	710
61	1924
62	3620
63	6482
64	332
65	66
66	123
71	97
72	536
73	2950
74	901
75	2026
76	170
83	1030
84	400
85	897
86	199
87	327
89	74
91	482
95	84
96	204
97	1061
98	1270
99	536
100	545
101	82
102	297
107	502
109	1389
110	312
111	820
112	213
113	164
126	892
127	90
128	315
131	50
133	9999
134	800
135	7068
136	666
137	1226
138	922
139	148
140	300
145	476
146	585
147	358
148	425
149	96
161	3699
162	377
163	2410
164	226
165	519
166	7011
167	643
168	2302
169	202
171	173
172	450
173	815
174	467
175	516
176	184
177	97
201	6360
202	624
203	4089
204	367
205	774
