Mass Spectrum: Diphenyl(4-tolyl)phosphine
Formula: C19 H17 P
CAS: 1031-93-2
Molecular weight: 276
Origin: NIST Mass Spectrometry Data Center, 1994
m/z	RELATIVE INTENSITY
27	117
38	101
39	1131
40	81
41	115
50	602
51	2315
52	278
53	139
56	126
57	561
62	114
63	624
64	160
65	946
66	66
68	101
69	305
70	104
71	85
75	186
76	279
77	1386
78	1645
79	190
80	176
81	457
82	132
83	189
87	64
88	45
89	416
90	92
91	464
92	120
93	78
94	83
95	274
96	84
97	47
98	62
99	30
101	41
102	193
103	68
104	42
105	62
106	30
107	2021
108	3739
109	324
113	50
115	664
116	91
120	153
121	302
122	1571
123	108
126	114
127	124
128	286
129	89
131	84
133	431
134	49
137	37
138	295
139	271
141	159
142	41
144	84
145	85
147	52
150	54
151	200
152	1169
153	405
154	277
155	109
156	41
157	504
158	63
159	67
163	58
165	1756
166	600
167	839
168	605
169	134
170	406
171	176
180	27
181	173
183	4773
184	928
185	206
186	30
194	257
195	378
196	599
197	3679
198	990
199	961
200	120
244	33
257	60
259	48
261	41
275	2235
276	9999
277	2083
278	208
