Mass Spectrum: Acetaldehyde, methoxy-
Formula: C3 H6 O2
CAS: 10312-83-1
Molecular weight: 74
Origin: D.HENNEBERG, MAX-PLANCK INSTITUTE, MULHEIM, WEST GERMANY
m/z	RELATIVE INTENSITY
28	1100
29	2910
30	170
31	620
32	350
40	20
41	50
42	350
43	440
44	1990
45	9999
46	220
56	20
59	30
74	280
75	30
