Mass Spectrum: 4-Isobutylmorpholine
Formula: C8 H17 N O
CAS: 10315-98-7
Molecular weight: 143
Origin: NIST Mass Spectrometry Data Center
m/z	RELATIVE INTENSITY
15	721
16	10
18	40
19	10
26	130
27	1041
28	1641
29	1321
30	490
31	110
37	10
39	631
41	1611
42	2682
43	761
44	310
45	90
50	10
51	20
52	30
53	60
54	230
55	320
56	2102
57	350
58	170
67	20
68	150
69	100
70	941
71	100
72	390
73	20
80	10
82	70
83	20
84	70
85	40
86	160
96	20
98	160
100	9999
101	561
102	30
112	30
126	10
128	110
142	60
143	450
144	30
