Mass Spectrum: Cyclopentanemethanol, 1-amino-
Formula: C6 H13 N O
CAS: 10316-79-7
Molecular weight: 115
Origin: Japan AIST/NIMC Database- Spectrum MS-NW-5770
m/z	RELATIVE INTENSITY
14	20
15	209
16	20
17	30
18	109
26	70
27	439
28	729
29	279
30	1199
31	309
32	20
37	20
38	60
39	549
40	99
41	1509
42	1119
43	309
44	299
45	219
46	80
47	20
50	50
51	70
52	70
53	149
54	569
55	329
56	959
57	289
58	70
59	70
60	40
61	10
62	10
63	20
64	10
65	129
66	60
67	1699
68	589
69	379
70	169
71	30
72	369
73	1209
74	60
75	10
76	20
77	60
78	30
79	99
80	99
81	119
82	299
83	99
84	9999
85	639
86	1359
87	369
88	30
93	40
94	30
95	20
96	169
97	99
98	789
99	90
100	60
101	20
109	10
110	30
111	30
112	50
113	10
114	30
115	30
