Mass Spectrum: Piperidine, 1-pentyl-
Formula: C10 H21 N
CAS: 10324-58-0
Molecular weight: 155
m/z	RELATIVE INTENSITY
15	54
18	22
26	10
27	198
28	224
29	222
30	189
32	13
39	144
40	24
41	695
42	582
43	278
44	330
45	10
53	40
54	74
55	539
56	184
57	76
58	17
67	42
68	53
69	243
70	241
71	25
80	15
81	10
82	43
83	44
84	274
85	57
86	11
96	142
97	40
98	9999
99	695
100	67
110	27
111	10
112	33
124	24
126	17
140	30
154	173
155	434
156	51
