Mass Spectrum: 5-Methyl-1-phenylhexa-1,3,4-triene
Formula: C13 H14
CAS: 103240-79-5
Molecular weight: 170
Origin: E. KEINAN,DEP. ORG. CHEM.,WEIZMANN INST. SCI.,REHOVOT,ISRAEL
m/z	RELATIVE INTENSITY
51	3900
63	1900
65	1600
76	1400
77	3100
91	3100
115	3700
127	1400
128	2900
129	2700
141	1700
154	2100
155	9999
156	1300
170	4700
