Mass Spectrum: 5-Acetylpyrimidine
Formula: C6 H6 N2 O
CAS: 10325-70-9
Molecular weight: 122
Origin: V.A. KOPTYUG, VOL5, ATLAS OF MS OF ORGANIC COMPOUNDS
m/z	RELATIVE INTENSITY
37	170
38	220
39	290
40	120
41	80
42	370
43	4030
44	100
45	20
49	40
50	120
51	640
52	2640
53	1660
54	50
55	30
56	10
57	40
62	10
63	20
64	20
65	20
66	40
67	50
68	90
69	30
70	10
71	20
75	20
76	20
77	60
78	50
79	5180
80	830
81	30
94	10
95	30
97	20
107	9999
108	670
109	40
121	10
122	6580
123	560
124	40
