Mass Spectrum: Bicyclo[2.2.1]heptane-2,3-dione, 1,7,7-trimethyl-, (1R)-
Formula: C10 H14 O2
CAS: 10334-26-6
Molecular weight: 166
Origin: NIST Mass Spectrometry Data Center, 1994
m/z	RELATIVE INTENSITY
14	24
15	1103
16	10
26	482
27	4642
28	872
29	1509
30	15
37	127
38	488
39	5707
40	1087
41	8463
42	614
43	528
44	30
46	24
49	37
50	456
51	1024
52	464
53	1900
54	490
55	7283
56	348
57	39
61	28
62	121
63	258
64	63
65	708
66	227
67	3430
68	508
69	5630
70	329
77	906
78	256
79	870
80	277
81	421
82	557
83	5135
84	356
91	419
92	73
93	477
94	73
95	9999
96	1018
97	170
105	71
107	66
108	23
109	269
110	837
111	87
123	1542
124	144
138	1900
139	214
166	804
167	86
