Mass Spectrum: Furazan, dibenzoyl-
Formula: C16 H10 N2 O3
CAS: 10349-12-9
Molecular weight: 278
Origin: ORMSBG,9(10)1022(1974); LANGE
m/z	RELATIVE INTENSITY
51	1400
77	5400
105	9999
106	800
131	1000
278	5400
279	700
