Mass Spectrum: 2-Propanamine, N-methyl-N-(1-methylethyl)-
Formula: C7 H17 N
CAS: 10342-97-9
Molecular weight: 115
m/z	RELATIVE INTENSITY
15	200
27	500
28	300
29	100
30	700
31	10
41	700
42	900
43	900
44	300
45	10
55	80
56	1100
57	400
58	9999
59	400
60	10
69	20
70	200
71	80
72	800
73	50
83	10
84	100
85	50
86	400
87	30
98	50
99	40
100	5399
101	500
114	100
115	700
