Mass Spectrum: Benzene, (isocyanomethyl)-
Formula: C8 H7 N
CAS: 10340-91-7
Molecular weight: 117
m/z	RELATIVE INTENSITY
40	400
44	360
45	500
46	160
50	1101
51	1762
52	360
61	300
62	601
63	1601
64	561
65	1401
66	160
74	240
75	160
76	200
77	1001
78	140
87	140
88	240
89	3243
90	6306
91	5305
92	801
93	60
116	4204
117	9999
118	901
