Mass Spectrum: 3-Nonen-1-ol, (Z)-
Formula: C9 H18 O
CAS: 10340-23-5
Molecular weight: 142
Origin: NIST Mass Spectrometry Data Center
m/z	RELATIVE INTENSITY
15	30
19	10
26	90
27	1341
28	300
29	2132
30	90
31	1902
32	10
33	10
37	20
38	100
39	2873
40	450
41	7367
42	1651
43	2122
44	651
45	210
46	10
49	10
50	140
51	400
52	230
53	1952
54	4664
55	9999
56	2422
57	3273
58	260
59	30
62	30
63	80
64	20
65	530
66	671
67	6836
68	7797
69	6015
70	1922
71	671
72	120
73	30
74	10
75	10
77	340
78	70
79	1231
80	260
81	7076
82	4544
83	1161
84	260
85	160
86	70
87	10
91	100
92	10
93	140
94	100
95	4074
96	2312
97	250
98	230
99	160
100	30
105	10
107	10
109	400
110	40
111	20
112	20
113	30
114	120
115	10
123	30
124	1061
125	100
126	10
142	40
