Mass Spectrum: Quinoline, decahydro-, cis-
Formula: C9 H17 N
CAS: 10343-99-4
Molecular weight: 139
m/z	RELATIVE INTENSITY
39	801
40	601
41	1101
53	500
54	300
55	601
56	601
67	500
68	701
81	400
82	801
83	701
96	9999
97	801
110	801
138	601
139	1201
140	200
