Mass Spectrum: Butane, 2-(methylthio)-
Formula: C5 H12 S
CAS: 10359-64-5
Molecular weight: 104
m/z	RELATIVE INTENSITY
12	40
13	110
14	390
15	1461
16	60
24	10
25	40
26	581
27	3743
28	1361
29	5855
30	160
32	60
33	70
34	70
35	220
36	20
37	120
38	250
39	2272
40	330
41	8468
42	420
43	260
44	120
45	2702
46	961
47	2823
48	1271
49	1421
50	260
51	280
52	70
53	340
54	110
55	1271
56	4194
57	3803
58	540
59	931
60	270
61	1371
62	80
63	70
64	90
65	10
66	10
68	10
69	70
70	30
71	140
72	60
73	170
74	110
75	9999
76	490
77	460
78	50
79	390
80	20
81	50
82	10
83	10
85	20
86	10
87	40
88	20
89	801
90	20
91	40
104	3613
105	240
106	170
107	20
