Mass Spectrum: Sulfide, isobutyl isopropyl
Formula: C7 H16 S
CAS: 10359-65-6
Molecular weight: 132
m/z	RELATIVE INTENSITY
26	400
27	5575
28	591
29	2422
35	120
37	180
38	430
39	4484
40	581
41	7477
42	921
43	9999
44	370
45	2112
46	1061
47	5555
48	1011
49	631
50	120
51	110
53	240
54	110
55	3643
56	4294
59	1091
60	440
61	1962
71	170
73	170
74	510
75	1962
76	1431
77	721
89	6776
90	791
91	370
103	160
117	1882
118	120
132	4164
133	360
134	200
