Mass Spectrum: Sumatriptan
Formula: C14 H21 N3 O2 S
CAS: 103628-46-2
Molecular weight: 295
Origin: AAFS Toxicology Section MS DB Committee, U. Alberta, Canada
m/z	RELATIVE INTENSITY
35	10
36	10
37	10
38	10
39	30
40	10
41	20
42	300
43	70
44	20
45	10
46	10
47	10
48	10
49	10
50	10
51	40
52	20
53	10
54	10
55	10
56	40
58	9999
59	380
60	10
61	10
62	10
63	60
64	40
65	40
66	10
67	10
68	10
69	10
70	10
71	10
73	10
74	10
75	20
76	30
77	110
78	40
79	10
80	10
81	10
82	10
83	10
84	10
85	10
86	10
87	10
88	20
89	110
90	40
91	30
92	10
93	10
94	30
95	10
96	10
97	10
98	10
99	10
100	30
101	30
102	70
103	50
104	10
105	10
106	10
107	10
111	10
113	30
114	10
115	570
116	120
117	80
118	10
119	10
120	10
125	10
126	20
127	100
128	190
129	70
130	100
131	10
132	10
133	10
134	10
137	10
138	10
139	10
140	50
142	870
143	1461
144	220
145	10
146	10
147	10
152	10
154	140
156	500
157	220
158	240
159	30
160	10
166	10
167	10
168	20
169	20
170	10
171	10
172	10
173	10
174	10
181	10
182	10
183	20
184	10
185	20
186	10
187	10
191	10
195	10
196	10
197	10
198	10
199	60
200	50
201	210
202	30
203	10
206	10
210	10
231	10
237	110
238	10
239	10
250	10
251	60
252	10
253	10
292	10
293	10
295	400
296	60
297	20
298	10
