Mass Spectrum: N-Benzoylimidazole
Formula: C10 H8 N2 O
CAS: 10364-94-0
Molecular weight: 172
Origin: NIST Mass Spectrometry Data Center
m/z	RELATIVE INTENSITY
12	10
13	20
17	20
18	30
25	10
26	150
27	250
28	190
29	10
37	80
38	280
39	450
40	1361
41	120
42	10
50	1041
51	2803
52	170
53	60
59	20
61	30
62	60
63	100
64	40
65	10
66	20
67	30
68	100
72	60
73	50
74	290
75	210
77	6526
78	410
79	10
86	10
87	10
89	90
90	20
95	20
102	10
105	9999
106	691
107	40
116	20
172	621
173	70
