Mass Spectrum: 2,7-Octadiene-1,6-diol, 2,6-dimethyl-, (Z)-
Formula: C10 H18 O2
CAS: 103619-06-3
Molecular weight: 170
Origin: P.J. Williams, Australian Wine Res. Inst., Glen Osmond, S. Australia, Australia
m/z	RELATIVE INTENSITY
41	4300
43	9999
55	2700
67	3100
68	1300
71	3700
79	700
81	700
82	800
93	400
96	400
109	200
110	200
119	400
134	50
137	200
