Mass Spectrum: Dimethyl 4,4'-stilbenedicarboxylate
Formula: C18 H16 O4
CAS: 10374-80-8
Molecular weight: 296
Origin: NIST Mass Spectrometry Data Center, 1994
m/z	RELATIVE INTENSITY
15	662
28	61
29	138
44	120
50	215
51	261
59	986
63	230
73	116
74	113
75	299
76	887
77	201
87	90
88	373
89	701
101	119
102	118
103	238
115	158
117	574
127	94
128	132
139	114
150	216
151	488
152	680
153	155
165	299
175	127
176	1210
177	1200
178	4423
179	713
191	201
192	241
193	1109
194	225
205	1030
206	274
207	136
222	122
236	301
237	417
263	152
265	6224
266	1342
267	184
281	11
296	9999
297	2131
298	285
