Mass Spectrum: 3-Ethoxy-4-methoxyphenylacetonitrile
Formula: C11 H13 N O2
CAS: 103796-99-2
Molecular weight: 191
Origin: NIST Mass Spectrometry Data Center, 1994
m/z	RELATIVE INTENSITY
14	43
15	625
18	56
26	515
27	2308
28	265
29	2503
30	113
31	142
37	224
38	582
39	1698
40	251
41	379
42	180
43	299
45	73
50	971
51	1903
52	532
53	595
54	151
55	359
61	169
62	462
63	1685
64	1919
65	3373
66	582
67	115
68	78
74	239
75	425
76	1094
77	2145
78	783
79	1130
80	227
87	65
88	161
89	689
90	555
91	1320
92	2065
93	382
94	1130
95	162
102	293
103	1653
104	369
105	700
106	486
107	1459
108	403
114	84
115	69
116	424
117	59
118	85
119	513
120	1843
121	268
122	155
123	109
130	215
131	2391
132	593
133	154
134	239
135	324
136	213
137	176
146	162
148	9999
149	854
150	118
160	255
161	150
163	9652
164	919
165	172
191	6290
192	760
193	81
