Mass Spectrum: Tetrazepam
Formula: C16 H17 Cl N2 O
CAS: 10379-14-3
Molecular weight: 288
Origin: Drug Lab
m/z	RELATIVE INTENSITY
40	110
41	641
42	390
43	70
44	50
49	20
50	160
51	440
52	200
53	380
54	110
55	150
56	60
57	20
58	40
61	30
62	120
63	500
64	180
65	380
66	160
67	180
68	60
69	50
70	50
71	30
72	20
73	140
74	190
75	581
76	350
77	991
78	280
79	611
80	140
81	150
82	80
83	50
84	200
85	60
86	100
87	200
88	180
89	631
90	300
91	450
92	110
93	70
94	50
96	70
97	180
98	260
99	320
100	220
101	310
102	480
103	250
104	200
105	130
106	50
108	120
109	100
110	120
111	420
112	280
113	350
114	390
115	801
116	440
117	651
118	180
119	30
120	60
121	20
122	100
123	220
124	200
125	490
126	490
127	721
128	550
129	220
130	200
131	120
132	50
135	40
136	200
137	290
138	380
139	500
140	601
141	440
142	270
143	290
144	110
145	50
146	90
147	100
148	60
149	270
150	260
151	550
152	711
153	500
154	881
155	390
156	190
157	90
159	40
160	20
161	50
162	200
163	330
164	540
165	801
166	621
167	881
168	801
169	440
170	160
171	70
172	50
173	30
174	80
175	100
176	200
177	310
178	420
179	621
180	1141
181	1061
182	801
183	390
184	180
185	50
186	40
187	40
188	200
189	190
190	320
191	290
192	320
193	500
194	571
195	751
196	731
197	530
198	170
199	90
200	60
201	190
202	550
203	550
204	510
205	320
206	270
207	240
208	200
209	380
210	260
211	110
212	190
213	60
214	190
215	510
216	480
217	971
218	631
219	410
220	220
221	100
222	120
223	480
224	450
225	1541
226	270
227	70
228	140
229	260
230	400
231	1191
232	681
233	601
234	250
235	130
236	40
237	80
238	40
241	30
242	100
243	220
244	370
245	1041
246	410
247	480
248	130
249	80
251	150
253	9999
254	1912
255	190
257	50
258	250
259	1722
260	751
261	621
262	210
263	40
273	200
274	30
275	50
285	30
287	3323
288	4034
289	1732
290	1321
291	220
