Mass Spectrum: Nortetrazepam
Formula: C15 H15 Cl N2 O
CAS: 10379-11-0
Molecular weight: 274
Origin: Finnigan MAT: Toxicological Library (LIBR-TX)
m/z	RELATIVE INTENSITY
43	376
44	608
51	381
77	802
91	712
117	817
128	999
140	1109
165	602
166	489
167	445
182	356
183	305
203	788
211	903
231	294
232	152
239	9999
240	1501
245	889
246	404
247	609
259	204
261	203
273	3983
274	4492
275	2022
276	1791
