Mass Spectrum: 9-Hexadecen-1-ol, (Z)-
Formula: C16 H32 O
CAS: 10378-01-5
Molecular weight: 240
Origin: J. Klune, Insect Chem. Ecol. Lab., USDA, Beltsville, MD 20705
m/z	RELATIVE INTENSITY
41	7900
42	1401
43	4719
44	328
45	213
47	5
49	24
51	69
52	61
53	950
54	3759
55	9539
56	2099
57	2329
58	148
59	67
65	305
66	931
67	7036
68	5067
69	5533
70	1498
71	1717
72	152
73	83
75	15
77	301
78	87
79	1038
80	787
81	6980
82	9999
83	4551
84	822
85	929
86	119
87	34
91	282
92	56
93	457
94	465
95	5937
96	7698
97	2985
98	487
99	247
100	48
101	27
103	31
104	5
105	98
106	38
107	197
108	461
109	3299
110	3243
111	1204
112	233
113	108
114	46
115	44
117	35
119	64
120	31
121	237
122	284
123	1905
124	1877
125	490
126	146
127	76
128	35
129	36
131	39
132	19
133	104
134	63
135	210
136	165
137	1080
138	1086
139	253
140	170
141	109
142	20
143	19
145	37
146	5
147	54
148	67
149	140
150	62
151	499
152	548
153	162
154	134
155	66
156	10
157	17
159	72
161	48
162	30
163	133
164	345
165	631
166	631
167	141
168	46
169	51
170	9
171	22
173	55
174	9
175	34
176	22
177	52
178	39
179	230
180	291
181	86
182	27
183	29
184	5
185	22
187	6
189	49
190	9
191	53
192	62
193	166
194	566
195	119
196	62
197	34
199	4
203	24
204	16
205	48
206	42
207	76
208	70
209	34
210	11
211	17
212	19
213	14
215	5
217	5
218	22
219	159
220	92
221	54
222	3378
223	567
224	98
225	35
237	6
238	30
239	16
240	113
241	59
242	6
