Mass Spectrum: [1,1'-Biphenyl]-4,4'-diamine, 2,2',3,3',5,5',6,6'-octafluoro-
Formula: C12 H4 F8 N2
CAS: 1038-66-0
Molecular weight: 328
Origin: Japan AIST/NIMC Database- Spectrum MS-IW-7586
m/z	RELATIVE INTENSITY
28	20
31	10
46	10
69	20
70	20
75	10
90	10
93	30
94	10
99	10
100	10
105	10
106	10
108	10
109	10
110	10
111	10
115	90
116	10
117	40
118	10
119	20
121	30
122	10
123	10
125	50
127	20
129	30
130	30
131	50
134	10
135	20
136	10
137	10
138	10
139	10
140	40
141	40
142	10
144	20
145	50
148	20
150	80
154	60
160	10
161	20
163	10
164	1279
165	40
168	10
172	10
178	10
179	10
180	10
184	10
185	30
186	10
189	10
191	20
192	30
193	10
199	10
200	10
203	40
204	30
205	20
207	50
210	20
211	30
212	50
213	20
215	10
216	10
219	20
220	30
222	20
223	70
224	10
227	10
230	99
231	99
232	20
234	30
235	20
237	10
238	40
239	10
241	30
242	40
243	20
244	10
248	10
249	20
250	30
251	70
253	20
254	50
255	10
257	10
258	90
259	20
260	30
261	239
262	269
263	30
265	20
268	40
269	129
270	20
272	10
273	40
277	10
279	10
280	50
281	70
282	90
283	10
287	10
288	50
289	309
290	50
292	40
293	10
297	20
299	10
300	279
301	70
305	20
307	99
308	189
309	70
310	10
327	439
328	9999
329	1409
330	90
