Mass Spectrum: Malononitrile, (diphenylmethylene)-
Formula: C16 H10 N2
CAS: 10394-96-4
Molecular weight: 230
Origin: Japan AIST/NIMC Database- Spectrum MS-IW-5870
m/z	RELATIVE INTENSITY
26	10
27	60
28	40
37	10
38	30
39	209
40	10
50	249
51	669
52	109
53	10
61	30
62	109
63	259
64	40
65	60
69	40
70	10
73	10
74	199
75	449
76	309
77	409
78	109
81	50
82	80
83	20
85	20
86	70
87	479
88	1379
89	129
90	10
91	10
94	10
98	50
99	129
100	289
101	709
102	229
103	60
105	10
110	20
111	30
112	40
113	80
114	299
115	569
116	20
122	10
123	40
124	40
125	70
126	149
127	259
128	60
135	10
136	10
137	50
138	70
139	129
140	50
141	10
148	10
149	109
150	199
151	269
152	189
153	60
161	10
162	40
163	189
164	279
165	6689
166	1159
167	90
173	20
174	199
175	849
176	889
177	459
178	109
179	30
180	10
187	20
188	119
189	70
190	609
191	109
192	10
199	60
200	229
201	1389
202	1949
203	5099
204	1739
205	219
206	10
213	30
214	60
215	429
216	80
217	20
226	90
227	209
228	709
229	6999
230	9999
231	1719
232	149
