Mass Spectrum: Acridine 10-oxide
Formula: C13 H9 N O
CAS: 10399-73-2
Molecular weight: 195
Origin: Japan AIST/NIMC Database- Spectrum MS-IW-7410
m/z	RELATIVE INTENSITY
27	20
28	50
37	10
38	30
39	159
40	10
41	10
50	179
51	209
52	60
53	10
55	20
56	10
57	30
59	10
60	10
61	40
62	159
63	459
64	70
65	40
68	20
69	199
70	239
71	30
73	10
74	199
75	489
76	539
77	169
78	30
81	40
82	119
83	369
84	60
85	20
86	90
87	139
88	169
89	1149
90	149
91	10
92	10
97	679
98	179
99	109
100	90
101	129
102	90
103	20
110	20
111	40
112	20
113	159
114	129
115	129
116	50
117	20
118	10
122	20
123	20
124	30
125	169
126	249
127	219
128	109
129	30
131	10
137	50
138	60
139	639
140	679
141	149
142	20
144	20
149	80
150	479
151	1039
152	789
153	379
154	199
155	60
156	10
161	10
162	30
163	99
164	129
165	90
166	1459
167	1539
168	449
169	199
170	20
175	60
176	199
177	1019
178	2239
179	9999
180	1469
181	99
194	959
195	9449
196	1389
197	119
