Mass Spectrum: Phenanthrene, 9-butyl-
Formula: C18 H18
CAS: 10394-57-7
Molecular weight: 234
Origin: A.POLYAKOVA THE MOSCOW LOMONOSOV STATE UNIV., MOSCOW
m/z	RELATIVE INTENSITY
51	100
55	230
56	110
57	110
63	100
67	110
69	110
83	170
89	110
95	120
101	260
115	120
139	120
150	140
151	180
152	240
163	260
164	220
165	2160
166	280
176	460
177	230
178	700
179	170
187	230
188	240
189	2580
190	1680
191	9999
192	5300
193	750
198	130
199	210
202	960
203	1110
204	340
205	280
206	100
213	110
215	450
216	170
217	340
226	210
228	480
229	150
232	340
234	4090
235	890
