Mass Spectrum: 1,2-Ethanediamine, N,N-diethyl-N'-methyl-
Formula: C7 H18 N2
CAS: 104-79-0
Molecular weight: 130
Origin: Japan AIST/NIMC Database- Spectrum MS-NW-3924
m/z	RELATIVE INTENSITY
15	119
26	30
27	259
28	429
29	479
30	1679
31	30
32	10
39	20
40	20
41	109
42	479
43	159
44	899
45	20
54	40
55	30
56	399
57	179
58	2229
59	90
68	10
69	10
70	80
71	70
72	439
73	30
83	10
84	60
85	60
86	9999
87	739
88	20
98	10
99	40
130	149
131	10
