Mass Spectrum: Formic acid, 2-phenylethyl ester
Formula: C9 H10 O2
CAS: 104-62-1
Molecular weight: 150
Origin: E.M.EMERY COLGATE-PALMOLIVE CO., JERSEY CITY, N.J., USA
m/z	RELATIVE INTENSITY
27	594
28	204
29	1590
30	75
31	1370
37	75
38	258
39	1460
40	121
41	295
43	118
50	573
51	1270
52	325
53	138
61	62
62	213
63	634
64	168
65	1650
66	116
74	142
75	115
76	106
77	1000
78	772
79	343
89	292
90	156
91	6770
92	1270
93	90
102	115
103	748
104	9999
105	1240
106	67
122	305
