Mass Spectrum: 4-Dodecylaniline
Formula: C18 H31 N
CAS: 104-42-7
Molecular weight: 261
Origin: Chuck Anderson, Aldrich Chemical Co.
m/z	RELATIVE INTENSITY
18	3
27	83
28	44
29	174
36	54
39	55
41	250
42	39
43	214
53	30
55	101
57	52
65	52
69	7
77	198
78	106
79	108
80	14
91	60
92	61
93	80
94	43
103	15
104	48
105	33
106	9999
107	801
108	34
117	14
118	66
119	192
120	92
132	107
133	14
261	801
262	144
