Mass Spectrum: Benzene, 1-methoxy-4-propyl-
Formula: C10 H14 O
CAS: 104-45-0
Molecular weight: 150
Origin: NIST Mass Spectrometry Data Center, 1994
m/z	RELATIVE INTENSITY
4	67
12	7
13	15
14	82
15	730
16	15
17	8
18	10
26	149
27	735
28	145
29	497
30	33
31	17
37	32
38	137
39	696
40	81
41	301
42	29
43	38
44	6
45	11
50	294
51	661
52	422
53	212
54	19
55	103
57	6
60	5
61	32
62	133
63	419
64	166
65	585
66	63
67	35
68	9
74	83
75	69
77	1291
78	1086
79	218
80	24
81	10
85	7
86	18
87	21
89	299
90	159
91	1011
92	148
93	73
94	28
95	10
98	5
101	11
102	41
103	111
104	40
105	99
106	118
107	67
108	36
109	19
115	69
116	19
117	29
118	19
119	87
120	19
121	9999
122	859
123	61
131	16
132	10
133	13
134	36
135	13
147	15
148	12
150	1465
151	161
152	7
