Mass Spectrum: 4-Methylmercaptoaniline
Formula: C7 H9 N S
CAS: 104-96-1
Molecular weight: 139
Origin: NIST Mass Spectrometry Data Center
m/z	RELATIVE INTENSITY
14	130
15	641
16	10
18	10
25	10
26	100
27	200
28	550
33	10
34	10
36	10
37	170
38	420
39	1041
40	170
41	390
42	130
45	891
46	200
47	170
49	80
50	230
51	300
52	641
53	731
54	350
55	20
56	10
57	80
58	80
59	30
60	60
61	210
62	400
63	711
64	360
65	911
66	280
67	190
69	711
70	460
71	170
72	60
73	30
74	70
75	40
76	40
77	230
78	170
80	3573
81	250
82	100
83	40
84	60
85	40
86	10
87	10
88	20
89	30
90	130
91	250
92	150
93	220
94	410
95	170
96	380
97	661
98	60
99	30
104	20
105	10
106	90
107	30
108	20
109	20
110	10
111	130
112	10
120	10
122	130
124	9999
125	731
126	460
127	30
136	40
139	6476
140	591
141	270
142	20
