Mass Spectrum: Benzene, 1,1'-[1,2-ethanediylbis(oxy)]bis-
Formula: C14 H14 O2
CAS: 104-66-5
Molecular weight: 214
Origin: Japan AIST/NIMC Database- Spectrum MS-NW-2384
m/z	RELATIVE INTENSITY
14	10
15	30
16	10
18	10
26	60
27	249
28	20
29	10
37	50
38	249
39	1669
40	159
41	60
42	10
43	359
44	30
49	10
50	299
51	1639
52	109
53	60
55	159
61	30
62	90
63	369
64	189
65	2469
66	459
67	40
68	20
71	10
73	10
74	70
75	70
76	129
77	9999
78	779
79	579
80	40
81	10
89	30
90	40
91	1959
92	459
93	2079
94	1649
95	149
96	10
102	20
103	659
104	60
105	20
106	10
107	1159
108	80
115	80
116	10
118	20
119	559
120	4939
121	8319
122	719
123	50
127	10
128	20
129	20
139	10
141	99
142	10
152	20
157	10
168	10
169	20
170	20
214	6109
215	929
216	90
