Mass Spectrum: 2(3H)-Furanone, dihydro-5-pentyl-
Formula: C9 H16 O2
CAS: 104-61-0
Molecular weight: 156
Origin: Japan AIST/NIMC Database- Spectrum MS-NW-3674
m/z	RELATIVE INTENSITY
14	10
15	60
18	30
26	80
27	909
28	499
29	1969
30	50
31	50
32	10
38	30
39	499
40	90
41	1159
42	609
43	979
44	119
45	50
50	20
51	40
52	20
53	119
54	179
55	909
56	789
57	589
58	99
59	40
60	70
65	20
66	10
67	149
68	119
69	299
70	399
71	469
72	219
73	70
77	20
79	40
80	10
81	149
82	70
83	219
84	179
85	9999
86	489
87	80
88	20
91	10
93	30
94	40
95	90
96	159
97	129
98	40
99	849
100	499
101	159
102	10
107	10
109	50
110	40
111	20
112	20
113	50
114	249
115	20
120	20
123	20
125	30
127	50
128	149
129	10
137	10
138	109
139	30
155	10
156	20
