Mass Spectrum: 2-Butanone, 4-(4-methoxyphenyl)-
Formula: C11 H14 O2
CAS: 104-20-1
Molecular weight: 178
Origin: Japan AIST/NIMC Database- Spectrum MS-NW-2691
m/z	RELATIVE INTENSITY
14	10
15	159
18	20
26	20
27	119
28	50
29	30
31	10
37	10
38	50
39	259
40	40
41	109
42	30
43	1659
44	40
45	40
50	109
51	259
52	119
53	90
55	189
57	10
61	10
62	50
63	189
64	109
65	319
66	50
67	20
69	10
71	10
74	30
75	40
76	40
77	639
78	449
79	209
80	20
87	10
89	119
90	90
91	679
92	159
93	40
94	30
95	10
101	10
102	40
103	249
104	80
105	399
106	80
107	60
108	889
109	90
115	40
116	10
117	30
118	20
119	149
120	169
121	9999
122	929
123	60
127	10
128	10
129	20
130	10
131	30
132	20
133	50
134	139
135	769
136	99
137	10
144	10
145	90
146	20
147	249
148	30
149	10
159	20
160	20
161	60
162	90
163	369
164	40
177	50
178	3169
179	399
180	129
181	10
