Mass Spectrum: 1,3-Propanediamine, N,N-diethyl-
Formula: C7 H18 N2
CAS: 104-78-9
Molecular weight: 130
Origin: Japan AIST/NIMC Database- Spectrum MS-NW- 854
m/z	RELATIVE INTENSITY
15	90
26	60
27	439
28	789
29	659
30	2439
31	40
32	30
39	90
40	50
41	349
42	839
43	219
44	849
45	30
46	10
52	20
53	10
54	99
55	60
56	889
57	519
58	2769
59	129
67	10
68	50
69	30
70	229
71	129
72	4259
73	239
74	389
75	20
82	10
83	10
84	279
85	149
86	9999
87	629
88	10
96	10
98	329
99	50
100	349
101	259
102	20
111	10
112	30
113	519
114	40
115	80
130	979
131	90
