Mass Spectrum: cis-4-Nonene
Formula: C9 H18
CAS: 10405-84-2
Molecular weight: 126
Origin: NIST Mass Spectrometry Data Center, 1990.
m/z	RELATIVE INTENSITY
26	167
27	1633
28	561
29	1282
39	2656
41	5738
42	1861
43	1518
50	141
51	368
52	227
53	1128
54	1321
55	9999
56	4201
57	726
63	103
65	346
66	163
67	1241
68	471
69	3160
70	3001
71	517
77	238
79	238
81	229
82	312
83	1286
84	977
85	154
97	1162
98	360
126	2250
127	230
