Mass Spectrum: trans--4-Nonene
Formula: C9 H18
CAS: 10405-85-3
Molecular weight: 126
Origin: NIST Mass Spectrometry Data Center, 1990.
m/z	RELATIVE INTENSITY
15	72
27	1658
28	526
29	1281
32	74
39	2290
41	5190
42	1549
43	1447
44	99
50	114
51	315
52	185
53	847
54	1233
55	9999
56	3781
57	642
63	65
65	282
66	123
67	987
68	403
69	2813
70	2709
71	497
77	202
78	45
79	204
81	197
82	266
83	1302
84	900
85	137
97	1059
98	332
126	2082
127	200
