Mass Spectrum: Difluoramine
Formula: F2 H N
CAS: 10405-27-3
Molecular weight: 53
m/z	RELATIVE INTENSITY
14	1942
15	1051
19	691
20	200
33	3443
34	9999
35	50
52	150
53	6706
54	20
