Mass Spectrum: 3-Hydroxyphenylacetylene
Formula: C8 H6 O
CAS: 10401-11-3
Molecular weight: 118
Origin: NIST Mass Spectrometry Data Center, 1994
m/z	RELATIVE INTENSITY
12	7
14	19
19	12
24	18
25	75
26	246
27	350
36	75
37	563
38	881
39	1767
40	299
41	49
42	143
43	240
44	81
45	98
46	33
48	58
49	387
50	1246
51	930
52	76
53	427
54	31
55	283
56	13
57	8
58	8
59	527
60	117
61	686
62	1430
63	2793
64	1000
65	112
66	115
67	53
68	93
72	23
73	158
74	557
75	293
76	52
77	139
78	33
79	150
80	8
84	49
85	174
86	267
87	211
88	8
89	5236
90	1329
91	126
92	111
93	7
100	22
101	16
118	9999
119	888
120	33
