Mass Spectrum: 5-Oxohexanenitrile
Formula: C6 H9 N O
CAS: 10412-98-3
Molecular weight: 111
Origin: Japan AIST/NIMC Database- Spectrum MS-NW-9367
m/z	RELATIVE INTENSITY
14	70
15	489
17	10
18	30
26	109
27	379
28	299
29	60
30	10
31	10
37	50
38	90
39	379
40	149
41	1829
42	479
43	9999
44	239
45	30
50	20
51	50
52	90
53	60
54	90
55	249
56	10
57	20
58	479
59	20
63	10
64	40
65	10
66	70
67	30
68	669
69	80
70	20
71	129
80	10
82	10
83	169
84	30
94	40
95	30
96	339
97	20
99	30
108	10
109	10
110	289
111	219
112	40
