Mass Spectrum: Stanozolol
Formula: C21 H32 N2 O
CAS: 10418-03-8
Molecular weight: 328
Origin: Patti Price, Georgia Bureau of Investigation, Decatur, Georgia
m/z	RELATIVE INTENSITY
40	80
41	960
42	220
43	3062
44	120
45	520
46	180
47	10
51	80
52	180
53	560
54	270
55	1421
56	160
57	770
58	580
59	180
62	10
63	60
64	30
65	560
66	240
67	1661
68	540
69	550
70	80
71	2892
72	250
73	30
75	10
77	1401
78	350
79	2282
80	830
81	1851
82	250
83	380
84	60
85	140
86	20
89	80
90	50
91	2302
92	910
93	1921
94	7787
95	3092
96	9728
97	1000
98	80
99	30
100	10
101	20
102	50
103	280
104	230
105	1771
106	900
107	1481
108	520
109	710
110	120
111	110
112	30
113	20
114	80
115	390
116	270
117	600
118	620
119	2752
120	690
121	1000
122	290
123	370
126	10
127	90
128	300
129	290
130	250
131	1871
132	1050
133	3413
134	710
135	1571
136	300
137	140
138	80
139	30
140	20
141	120
142	130
143	270
144	230
145	1571
146	1351
147	2262
148	720
149	930
150	180
151	110
152	60
153	40
154	60
155	140
156	130
157	280
158	200
159	1601
160	410
161	1090
162	320
163	480
164	100
165	80
166	30
167	60
168	70
169	110
170	90
171	270
172	190
173	620
174	390
175	1951
176	470
177	100
178	40
179	10
180	20
182	40
183	100
184	70
185	270
186	130
187	610
188	160
189	230
190	60
191	20
195	50
196	20
197	50
198	50
199	320
200	160
201	510
202	390
203	250
204	40
207	10
208	10
211	50
212	40
213	210
214	130
215	1491
216	370
217	110
219	20
226	30
227	150
228	130
229	130
230	100
231	60
233	150
234	70
237	10
239	70
240	30
241	260
242	100
243	710
244	170
245	20
246	10
247	10
253	230
254	120
255	1731
256	390
257	3753
258	1351
259	170
260	20
267	40
268	110
269	440
270	3563
271	2722
272	450
273	100
274	20
282	20
283	40
284	30
285	250
286	200
287	40
288	20
290	10
291	30
295	890
296	170
297	40
301	120
302	30
306	10
309	430
310	260
311	100
312	50
313	750
314	160
318	20
327	1171
328	9999
329	2492
330	250
331	20
