Mass Spectrum: Cyclohexanol, 4-(1,1-dimethylethyl)-, acetate, cis-
Formula: C12 H22 O2
CAS: 10411-92-4
Molecular weight: 198
Origin: W.Jennings, T.Shibamoto
m/z	RELATIVE INTENSITY
29	190
41	781
43	2132
54	520
55	741
56	3343
57	9999
58	520
61	2392
67	3153
68	190
69	290
70	70
71	70
79	70
80	3653
81	2722
82	4984
83	2042
84	190
95	330
96	80
99	80
110	80
123	1421
124	80
138	741
142	80
143	290
