Mass Spectrum: .beta.-Phenylethylmethylethylcarbinol
Formula: C12 H18 O
CAS: 10415-87-9
Molecular weight: 178
Origin: NIST Mass Spectrometry Data Center, 1994
m/z	RELATIVE INTENSITY
14	46
15	375
16	5
19	75
27	1671
28	98
29	1544
30	77
31	440
37	19
39	1089
40	148
41	654
42	19
43	2601
44	110
45	665
46	19
50	304
51	874
52	215
53	241
54	19
55	1883
56	128
57	434
58	517
59	46
61	17
62	96
63	393
64	17
65	1584
66	100
67	43
68	17
69	70
71	182
73	5037
74	327
75	119
76	17
77	1063
78	694
79	526
80	33
82	23
85	20
86	17
87	20
89	302
91	9999
92	819
93	37
102	117
103	447
104	567
105	639
106	248
107	43
115	159
116	86
117	132
118	44
119	38
127	45
128	90
129	139
130	38
131	3666
132	424
133	69
143	14
145	346
146	48
147	18
148	14
149	1015
150	129
160	2253
161	302
163	294
164	41
