Mass Spectrum: Dodecanoic acid, TBDMS derivative
Formula: C18 H38 O2 Si
CAS: 104255-77-8
Molecular weight: 314
Origin: NIST Mass Spectrometry Data Center
m/z	RELATIVE INTENSITY
26	10
27	130
28	40
29	390
30	10
31	10
39	150
41	961
42	170
43	971
44	40
45	220
46	20
47	220
48	10
49	10
51	10
53	60
54	40
55	691
56	150
57	561
58	170
59	270
60	80
61	170
62	10
63	10
65	10
67	220
68	30
69	210
70	40
71	80
72	140
73	1702
74	300
75	6025
76	510
77	310
78	10
79	50
81	330
82	30
83	190
84	40
85	130
86	100
87	50
88	40
89	30
91	20
92	10
93	50
95	450
96	40
97	130
98	50
99	190
100	30
101	130
102	40
103	50
105	240
106	20
107	30
109	140
110	10
111	30
112	10
113	20
114	110
115	500
116	540
117	1351
118	180
119	70
120	10
121	20
123	30
125	10
126	10
127	10
129	2382
130	310
131	1631
132	180
133	70
135	10
139	10
141	20
142	10
143	150
144	20
145	30
149	10
153	10
155	20
156	10
157	110
158	30
159	60
160	10
163	10
167	10
169	10
171	320
172	50
173	20
174	10
175	10
181	10
183	30
185	170
186	30
187	120
188	20
189	10
199	30
200	10
201	20
213	60
214	20
215	20
227	40
228	10
229	20
239	10
241	10
243	20
255	60
257	9999
258	3793
259	1091
260	140
261	10
269	10
271	10
283	10
285	10
297	10
299	290
300	70
301	20
313	20
314	10
