Mass Spectrum: 5.beta.-Androstan-3.beta.-ol-17-one, TMS derivative
Formula: C22 H38 O2 Si
CAS: 10426-96-7
Molecular weight: 362
Origin: NIST Mass Spectrometry Data Center
m/z	RELATIVE INTENSITY
15	10
26	10
27	130
28	70
29	360
30	10
31	20
38	10
39	300
40	80
41	1782
42	150
43	671
44	130
45	831
46	50
47	440
48	20
49	10
50	10
51	50
52	50
53	761
54	230
55	2813
56	210
57	240
58	100
59	691
60	150
61	711
62	60
63	40
64	20
65	450
66	200
67	3283
68	490
69	851
70	100
71	120
72	210
73	6716
74	821
75	9999
76	751
77	1932
78	390
79	4004
80	661
81	3613
82	490
83	721
84	70
85	180
86	40
87	80
88	40
89	280
91	4024
92	801
93	4424
94	1531
95	3113
96	440
97	1611
98	160
99	200
100	40
101	791
102	130
103	410
104	270
105	3994
106	1641
107	3974
108	4264
109	2152
110	641
111	330
112	40
113	210
114	40
115	581
116	300
117	1131
118	731
119	2903
120	1151
121	2232
122	831
123	961
124	290
125	160
126	30
127	270
128	270
129	2903
130	1211
131	1972
132	500
133	1862
134	1081
135	1411
136	971
137	530
138	761
140	20
141	210
142	1311
143	1031
144	821
145	2783
146	711
147	3013
148	1161
149	1071
150	881
151	380
152	50
153	80
154	80
155	2332
156	440
157	721
158	871
159	2032
160	701
161	2352
162	1261
163	751
164	651
165	220
166	110
167	110
168	60
169	240
170	80
171	601
172	270
173	1271
174	1011
175	881
176	2192
177	611
178	140
179	50
180	20
181	90
182	80
183	270
184	80
185	450
186	400
187	771
188	320
189	480
190	450
191	200
192	30
193	20
194	10
195	50
196	50
197	300
198	130
199	961
200	330
201	1481
202	420
203	370
204	180
205	70
206	10
207	20
208	10
209	40
210	10
211	170
212	120
213	801
214	440
215	2172
216	1331
217	1161
218	961
219	150
220	20
221	20
222	10
223	30
224	20
225	80
226	140
227	230
228	490
229	1011
230	591
231	310
232	120
233	190
234	40
235	30
236	10
237	30
238	10
239	711
240	150
241	40
242	20
243	230
244	4954
245	931
246	110
247	10
249	10
250	10
251	20
252	10
253	250
254	430
255	1271
256	290
257	4034
258	791
259	80
260	10
261	10
262	10
263	20
264	10
265	20
266	10
267	10
269	10
270	30
271	340
272	6356
273	1281
274	150
275	20
276	10
277	10
280	10
287	20
288	10
289	10
291	60
292	10
293	20
294	10
303	20
304	10
305	70
306	60
307	10
311	10
318	10
329	10
331	20
333	10
347	941
348	260
349	100
350	10
360	10
361	50
362	490
363	150
364	40
365	10
