Mass Spectrum: Undecanoic acid, TBDMS derivative
Formula: C17 H36 O2 Si
CAS: 104255-75-6
Molecular weight: 300
Origin: NIST Mass Spectrometry Data Center
m/z	RELATIVE INTENSITY
27	80
28	20
29	230
30	10
31	10
39	100
40	30
41	581
42	100
43	530
44	20
45	140
46	10
47	150
48	10
49	10
53	40
54	20
55	380
56	80
57	330
58	100
59	170
60	50
61	110
62	10
65	10
67	130
68	20
69	140
70	20
71	40
72	90
73	1001
74	180
75	4014
76	300
77	180
78	10
79	30
81	220
82	20
83	110
84	20
85	90
86	70
87	30
88	30
89	20
91	10
93	30
95	330
96	30
97	50
98	30
99	120
100	20
101	90
102	30
103	30
105	170
106	10
107	20
109	100
110	10
111	20
112	10
113	10
114	70
115	340
116	340
117	801
118	100
119	40
121	10
125	10
127	10
129	1601
130	210
131	1281
132	140
133	60
139	10
141	10
142	10
143	120
144	10
145	20
149	10
151	10
155	10
157	90
158	20
159	40
160	10
167	10
169	30
171	200
172	30
173	10
175	10
185	60
186	10
187	70
188	10
199	40
200	10
201	20
213	20
215	10
227	20
229	10
241	30
243	9999
244	2592
245	741
246	90
247	10
255	10
257	10
269	10
283	10
285	280
286	60
287	20
299	10
300	10
301	10
