Mass Spectrum: Tridecanoic acid, TBDMS derivative
Formula: C19 H40 O2 Si
CAS: 104255-78-9
Molecular weight: 328
Origin: NIST Mass Spectrometry Data Center
m/z	RELATIVE INTENSITY
27	60
28	10
29	190
39	80
40	20
41	530
42	100
43	611
44	30
45	110
46	10
47	110
48	10
53	30
54	30
55	440
56	100
57	370
58	90
59	150
60	40
61	90
62	10
65	10
67	140
68	20
69	170
70	30
71	60
72	80
73	1031
74	170
75	3954
76	300
77	180
78	10
79	30
81	210
82	20
83	110
84	30
85	80
86	60
87	30
88	20
89	20
91	10
93	40
95	310
96	30
97	100
98	40
99	120
100	20
101	80
102	30
103	40
105	170
106	20
107	30
109	100
110	10
111	30
112	10
113	10
114	80
115	370
116	410
117	1091
118	140
119	60
121	20
123	20
125	10
127	10
129	2042
130	260
131	1281
132	140
133	60
135	10
137	10
139	10
141	10
142	10
143	110
144	20
145	20
153	10
155	20
157	80
158	20
159	50
160	10
167	10
171	250
172	40
173	20
174	10
175	10
181	10
185	120
186	20
187	80
188	10
197	20
199	40
200	10
201	10
213	20
214	10
215	10
227	40
228	10
229	10
241	20
243	10
255	10
269	40
271	9999
272	2372
273	651
274	80
275	10
285	10
311	10
313	170
314	40
315	10
327	10
328	10
