Mass Spectrum: Dodecanedioic acid, 2TBDMS derivative
Formula: C24 H50 O4 Si2
CAS: 104255-99-4
Molecular weight: 458
Origin: NIST Mass Spectrometry Data Center
m/z	RELATIVE INTENSITY
27	30
29	110
31	10
39	60
41	350
42	50
43	180
44	10
45	190
46	10
47	170
48	10
49	10
53	30
55	591
56	100
57	270
58	150
59	310
60	80
61	130
62	10
63	10
65	10
67	220
68	30
69	240
70	30
71	50
73	5295
74	631
75	5335
76	420
77	270
78	10
79	130
80	20
81	300
82	30
83	220
84	30
85	140
86	100
87	40
88	40
89	20
91	80
93	240
94	20
95	170
96	20
97	150
98	40
99	260
100	50
101	110
102	30
103	40
104	10
105	100
106	10
107	110
108	20
109	60
110	10
111	60
112	20
113	30
114	50
115	571
116	530
117	420
118	70
119	70
120	10
121	50
122	10
123	30
125	20
127	10
129	2462
130	350
131	480
132	70
133	320
134	50
135	190
136	20
137	10
139	10
141	20
142	10
143	160
144	30
145	40
147	420
148	90
149	520
150	80
151	60
152	10
153	40
154	10
155	60
156	10
157	160
158	40
159	160
160	20
161	10
165	20
166	20
167	40
168	10
169	70
170	20
171	310
172	811
175	40
176	40
177	40
178	10
181	10
183	30
184	10
185	190
186	30
187	50
188	10
189	30
190	80
191	110
192	20
193	30
194	20
195	30
197	10
199	90
200	20
201	30
203	380
204	80
205	40
206	10
209	10
211	10
213	470
214	90
215	90
216	20
217	30
218	10
223	10
225	40
226	10
227	150
228	30
229	60
230	10
231	10
232	20
233	20
239	30
240	10
241	180
242	50
243	40
244	10
245	110
246	30
247	10
249	10
251	120
252	30
253	20
255	20
257	10
259	20
260	10
261	10
267	10
269	140
270	30
271	30
272	10
273	20
274	10
283	10
285	530
286	120
287	90
288	20
289	10
293	10
299	10
301	140
302	40
303	20
309	10
311	230
312	60
313	20
315	20
325	10
327	250
328	60
329	40
330	10
343	30
344	10
345	190
346	50
347	20
357	110
358	40
359	20
371	10
383	20
385	460
386	140
387	60
388	10
401	9999
402	5375
403	2162
404	450
405	80
406	10
427	10
443	591
444	210
445	80
446	20
457	10
458	10
