Mass Spectrum: 5-Chloro-4-fluoro-2-nitroaniline
Formula: C6 H4 Cl F N2 O2
CAS: 104222-34-6
Molecular weight: 190
Origin: NIST Mass Spectrometry Data Center, 1994
m/z	RELATIVE INTENSITY
12	74
16	98
17	166
18	175
20	50
25	81
28	250
30	4123
31	442
33	160
35	205
36	283
37	834
38	691
39	363
40	186
41	65
44	416
45	130
46	958
47	211
48	151
49	488
50	763
51	925
52	3187
53	441
54	65
55	366
56	1345
57	1504
58	158
59	130
60	357
61	1541
62	1813
63	1110
64	501
65	519
66	130
67	948
68	386
69	848
70	471
71	177
72	338
73	334
74	130
75	568
76	1285
77	193
78	216
79	240
80	915
81	5960
82	2580
83	423
84	195
85	282
86	270
87	299
88	409
89	660
90	219
91	1554
92	316
93	756
94	293
95	329
96	1149
97	732
98	197
99	191
100	88
101	167
103	59
104	106
105	463
106	316
107	648
108	3302
109	2444
110	388
111	76
112	175
114	55
115	219
116	850
117	9999
118	943
119	3162
120	207
121	318
123	141
124	172
125	77
126	59
128	36
129	143
130	259
131	36
132	2791
133	262
134	990
135	47
142	379
143	796
144	6413
145	714
146	2038
147	158
155	66
156	58
160	3505
161	283
162	1125
163	82
172	68
173	472
174	289
175	202
176	72
190	9294
191	767
192	2930
193	203
