Mass Spectrum: Sebacic acid, 2TBDMS derivative
Formula: C22 H46 O4 Si2
CAS: 104255-98-3
Molecular weight: 430
Origin: NIST Mass Spectrometry Data Center
m/z	RELATIVE INTENSITY
27	10
29	50
39	30
40	10
41	160
42	20
43	80
44	10
45	100
46	10
47	80
53	10
54	10
55	280
56	50
57	130
58	70
59	150
60	40
61	60
67	60
68	10
69	120
70	10
71	20
73	2682
74	290
75	2522
76	190
77	120
78	10
79	90
80	10
81	70
82	10
83	50
84	10
85	60
86	50
87	20
88	20
89	10
91	30
93	100
94	10
95	70
96	10
97	70
98	10
99	130
100	20
101	60
102	20
103	30
105	50
106	10
107	150
108	10
109	10
111	20
113	10
114	20
115	320
116	280
117	180
118	30
119	80
120	10
121	180
122	20
123	10
125	30
127	10
129	1241
130	180
131	250
132	40
133	180
134	30
135	30
137	30
138	20
139	30
141	20
142	10
143	110
144	20
145	20
147	260
148	60
149	360
150	50
151	40
153	10
155	20
156	10
157	80
158	360
161	10
165	10
166	20
167	30
169	20
170	10
171	100
172	20
173	20
175	10
176	20
177	10
179	10
181	10
183	10
185	310
186	50
187	50
188	10
189	20
190	40
191	60
192	10
193	10
195	10
197	40
198	10
199	60
200	10
201	10
203	130
204	30
205	20
211	20
213	80
214	20
215	20
217	10
223	70
224	10
225	10
227	10
232	10
241	50
242	10
243	10
245	40
246	10
247	10
255	10
257	220
258	40
259	40
260	10
261	10
265	10
270	10
271	10
273	20
274	10
281	10
283	130
284	30
285	10
287	10
297	10
299	140
300	30
301	70
302	20
303	10
315	10
317	110
318	30
319	10
329	60
330	20
331	10
355	10
357	220
358	60
359	30
373	9999
374	3443
375	1331
376	260
377	50
378	10
415	510
416	160
417	60
418	10
429	10
