Mass Spectrum: 1,3-Hexadien-5-yne
Formula: C6 H6
CAS: 10420-90-3
Molecular weight: 78
m/z	RELATIVE INTENSITY
24	30
25	130
26	891
27	621
28	280
29	40
30	30
31	30
36	50
37	400
38	651
39	2082
40	120
41	50
42	40
43	140
44	60
45	20
48	40
49	1441
50	2722
51	3023
52	4104
53	330
54	40
58	50
60	20
61	120
62	210
63	711
64	50
65	10
66	10
72	20
73	260
74	841
75	340
76	711
77	2312
78	9999
79	711
