Mass Spectrum: Pentanoic acid, TBDMS derivative
Formula: C11 H24 O2 Si
CAS: 104256-46-4
Molecular weight: 216
Origin: NIST Mass Spectrometry Data Center
m/z	RELATIVE INTENSITY
15	10
26	20
27	180
28	60
29	470
30	10
31	20
39	210
40	40
41	581
42	100
43	190
44	30
45	430
46	30
47	380
48	20
49	10
50	10
51	10
52	10
53	50
54	20
55	220
56	90
57	500
58	240
59	300
60	120
61	190
62	20
63	10
67	50
68	10
69	20
70	10
71	20
72	90
73	1181
75	7106
76	621
77	330
78	10
81	10
83	80
84	20
85	200
86	120
87	60
88	40
89	20
93	10
97	20
98	10
99	100
100	20
101	120
102	30
103	20
105	10
111	10
113	10
114	30
115	601
116	180
117	250
118	40
119	10
129	270
130	70
131	50
132	10
133	10
141	320
142	40
143	30
144	10
145	10
159	9999
160	1742
161	601
162	40
171	30
172	10
185	10
187	10
201	260
202	40
203	10
