Mass Spectrum: Azelaic acid, 2TBDMS derivative
Formula: C21 H44 O4 Si2
CAS: 104255-97-2
Molecular weight: 416
Origin: NIST Mass Spectrometry Data Center
m/z	RELATIVE INTENSITY
27	10
29	50
39	30
40	10
41	140
42	30
43	70
45	90
46	10
47	80
53	10
55	330
56	50
57	120
58	70
59	160
60	40
61	60
67	70
68	10
69	50
70	10
71	10
72	90
73	2682
74	290
75	2372
76	180
77	110
78	10
79	90
80	10
81	70
82	10
83	70
84	10
85	60
86	40
87	20
88	20
89	10
91	30
93	100
94	10
95	30
97	100
98	10
99	120
100	20
101	70
102	20
103	30
105	40
107	140
108	10
109	40
110	10
111	30
113	10
114	20
115	310
116	340
117	200
118	30
119	30
121	10
123	60
124	10
125	60
126	10
127	10
129	1141
130	150
131	150
132	20
133	220
134	30
135	110
136	10
137	10
141	10
142	10
143	90
144	10
145	10
147	300
148	80
149	390
150	60
151	390
153	50
154	10
155	20
156	10
157	60
158	20
159	30
161	10
165	10
167	10
169	10
171	250
172	50
173	40
174	10
175	10
176	30
177	10
181	10
183	120
184	20
185	110
186	20
187	20
189	20
190	60
191	70
192	20
193	10
197	50
198	10
199	100
200	20
201	20
203	80
204	20
205	10
209	60
210	10
211	10
213	10
217	10
225	10
227	60
228	10
229	10
231	10
232	10
233	10
241	10
243	160
244	30
245	60
246	10
247	10
256	10
257	10
259	20
260	10
269	130
270	30
271	10
273	10
285	130
286	30
287	20
301	30
302	10
303	70
304	20
305	10
315	60
316	20
317	10
341	10
343	30
344	10
357	10
359	9999
360	3123
361	1211
362	230
363	40
401	530
402	170
403	70
404	10
415	10
