Mass Spectrum: Heptanedioic acid, 2TBDMS derivative
Formula: C19 H40 O4 Si2
CAS: 104255-95-0
Molecular weight: 388
Origin: NIST Mass Spectrometry Data Center
m/z	RELATIVE INTENSITY
27	20
29	80
31	10
39	50
40	10
41	290
42	50
43	80
44	10
45	180
46	10
47	170
48	10
49	10
53	30
54	10
55	430
56	80
57	250
58	140
59	330
60	80
61	120
62	10
66	10
67	50
68	20
69	420
70	30
71	20
72	160
73	5015
74	520
75	4064
76	300
77	190
78	10
79	170
80	20
81	200
82	20
83	60
84	10
85	120
86	70
87	30
88	50
89	20
95	90
96	10
97	340
98	40
99	250
100	40
101	140
102	30
103	30
104	10
105	10
107	10
109	10
111	20
112	10
113	40
114	30
115	550
116	651
117	230
118	50
119	60
120	10
121	10
123	40
125	1962
126	160
127	30
129	1341
130	190
131	170
132	40
133	550
134	80
135	80
137	731
139	10
141	10
142	20
143	110
144	20
145	20
147	1211
148	270
149	651
150	100
151	60
152	10
153	10
155	2432
156	350
157	190
158	40
159	20
161	10
169	10
171	220
172	50
173	120
174	20
175	20
176	30
177	20
183	10
185	10
187	10
189	50
190	70
191	50
192	10
197	20
199	200
200	30
201	20
203	130
204	40
205	20
211	20
212	10
213	20
214	10
215	160
216	30
217	40
218	10
228	10
229	30
230	10
231	20
232	20
233	10
241	180
242	30
243	10
245	60
246	10
247	10
257	150
258	30
259	20
271	10
285	20
287	40
288	10
289	10
301	70
302	20
303	10
313	10
329	10
331	9999
332	2783
333	1211
334	210
335	40
373	591
374	180
375	70
376	10
387	10
