Mass Spectrum: Decanoic acid, TBDMS derivative
Formula: C16 H34 O2 Si
CAS: 104255-74-5
Molecular weight: 286
Origin: NIST Mass Spectrometry Data Center
m/z	RELATIVE INTENSITY
27	80
28	20
29	240
30	10
31	10
39	100
40	20
41	550
42	90
43	470
44	20
45	160
46	10
47	160
48	10
49	10
51	10
53	40
54	20
55	340
56	80
57	290
58	110
59	180
60	60
61	120
62	10
65	10
67	150
68	20
69	180
70	20
71	50
72	100
73	1071
74	190
75	4564
76	350
77	210
78	10
79	30
81	320
82	30
83	60
84	20
85	100
86	80
87	40
88	30
89	20
91	10
93	30
95	390
96	30
97	50
98	30
99	140
100	30
101	110
102	30
103	40
105	220
106	20
107	20
109	10
111	20
112	10
113	10
114	80
115	400
116	330
117	871
118	110
119	50
125	10
127	10
129	1812
130	230
131	1661
132	180
133	80
135	20
137	10
139	10
141	10
142	10
143	150
144	20
145	30
147	10
153	10
155	50
156	10
157	80
158	20
159	40
160	10
171	170
172	20
173	10
185	70
186	20
187	60
188	10
199	10
201	10
213	10
215	10
227	30
229	9999
230	2062
231	591
232	70
233	10
243	10
255	10
269	10
271	220
272	50
273	10
285	10
286	10
