Mass Spectrum: Butanal, dimethylhydrazone
Formula: C6 H14 N2
CAS: 10424-98-3
Molecular weight: 114
Origin: ATLAS OF MASS SPECTRA OF ORGANIC COMPOUNDS, V. A. KOPTYUG, ED.
m/z	RELATIVE INTENSITY
28	1250
29	750
30	670
39	710
40	230
41	1540
42	4580
43	4580
44	9999
45	3750
46	190
53	100
54	90
55	380
56	580
57	420
58	1230
59	940
68	150
69	100
70	460
71	870
72	580
73	140
83	120
85	7910
86	1620
99	1120
100	80
113	280
114	5820
115	520
