Mass Spectrum: Heptadecanoic acid, TBDMS derivative
Formula: C23 H48 O2 Si
CAS: 104255-81-4
Molecular weight: 384
Origin: J.M. Halket, Trace Anal. Unit (TAU), London, UK
m/z	RELATIVE INTENSITY
39	320
41	2450
42	490
43	3380
44	140
45	320
46	30
47	310
53	100
54	90
55	1230
56	360
57	1470
58	230
59	290
60	90
61	180
67	320
68	60
69	420
70	80
71	240
72	170
73	1990
75	6890
76	470
77	310
78	10
79	80
81	350
82	40
83	270
84	50
85	150
86	90
87	50
88	20
89	20
91	10
93	80
95	370
96	40
97	190
98	50
99	150
100	30
101	90
102	30
103	40
105	210
106	10
107	50
109	120
110	10
111	60
113	10
114	80
115	320
116	420
117	1140
118	140
119	60
121	30
123	40
125	10
127	20
129	2110
130	260
131	1210
132	130
133	50
143	110
144	10
145	30
155	10
157	70
158	10
159	40
171	280
172	40
185	170
186	30
187	100
199	60
213	70
214	10
227	90
228	10
241	70
243	30
253	10
255	30
269	30
283	40
285	10
320	10
322	10
323	20
324	10
325	80
327	9999
328	2690
329	690
330	110
369	160
370	50
384	30
