Mass Spectrum: Dibenzo(b,def)carbazole
Formula: C18 H11 N
CAS: 104313-09-9
Molecular weight: 241
Origin: M. OEHME, NORW. INST. AIR RES., LILLESTROM, NORWAY
m/z	RELATIVE INTENSITY
80	70
81	60
86	70
93	450
106	1100
120	1570
128	90
187	170
188	100
210	70
211	240
212	240
213	690
214	320
215	70
238	630
239	350
240	2230
241	9999
242	1960
243	230
