Mass Spectrum: Indeno[2,1-b]oxine, 2-phenyl-
Formula: C18 H12 O
CAS: 10435-67-3
Molecular weight: 244
Origin: A.A.Kutin, Moscow, Russia
m/z	RELATIVE INTENSITY
33	49
34	5
37	12
38	51
39	226
40	163
41	13
42	5
43	18
44	65
45	4
50	182
51	245
52	69
53	13
55	13
56	8
57	12
61	40
62	189
63	375
64	78
65	42
66	3
67	9
68	16
69	23
70	5
71	37
72	18
74	198
75	160
76	143
77	142
78	18
79	3
81	153
82	24
85	32
86	124
87	202
88	292
89	123
90	14
91	6
94	236
95	650
96	3
98	70
99	52
100	38
101	41
102	144
103	13
104	2
106	536
107	1413
109	31
110	45
111	52
112	40
113	412
114	638
115	102
116	8
122	1184
124	7
125	15
126	39
127	13
128	5
134	9
135	11
136	5
137	63
138	74
139	193
140	25
141	14
142	28
146	2
149	19
150	60
151	31
152	25
161	26
162	42
163	129
164	43
165	60
166	11
167	3
174	29
175	24
176	49
177	9
185	15
186	37
187	169
188	155
189	459
190	74
191	3
198	3
199	13
200	25
201	11
202	10
203	8
211	94
213	1095
214	490
215	3925
216	686
217	63
218	8
224	4
225	3
226	15
227	6
240	27
244	9999
245	1786
246	192
247	12
