Mass Spectrum: Phenethylamine, TMS derivative
Formula: C11 H19 N Si
CAS: 10433-33-7
Molecular weight: 193
Origin: CARL DJERASSI DEPT OF CHEM STANFORD UNIV STANFORD CALIF 94305
m/z	RELATIVE INTENSITY
41	300
42	200
43	1100
44	600
45	1300
46	200
47	100
50	100
51	300
52	100
53	100
55	100
56	200
57	200
58	600
59	1100
60	100
63	200
65	500
66	100
72	300
73	7000
74	800
75	400
77	300
78	100
79	100
86	400
87	200
89	200
90	100
91	1100
92	200
101	100
102	9999
103	1200
104	500
105	200
117	100
119	100
121	200
131	100
133	100
135	100
145	100
147	700
148	100
149	200
160	100
161	100
162	100
178	1200
179	200
191	10
192	60
193	20
194	70
195	30
