Mass Spectrum: Cyclopropanecarbonitrile, 1-(p-nitrophenyl)-2-phenyl-
Formula: C16 H12 N2 O2
CAS: 10432-22-1
Molecular weight: 264
m/z	RELATIVE INTENSITY
26	300
27	400
28	500
30	300
38	300
39	300
41	300
50	1501
51	2502
52	400
62	500
63	2502
64	400
65	1301
74	400
75	701
76	601
77	1702
78	801
86	200
87	400
88	500
89	1001
90	500
91	1702
93	300
94	400
101	300
102	701
103	801
104	701
108	200
109	500
113	400
114	701
115	2502
116	701
117	300
127	200
128	400
139	400
140	2602
141	2002
142	701
151	200
152	500
156	200
163	300
164	400
165	901
166	300
167	300
169	300
176	300
177	300
178	701
179	300
186	2002
187	400
188	300
189	1802
190	1301
191	1802
192	701
201	300
202	400
203	801
204	500
205	200
213	400
215	400
216	2502
217	7507
218	9999
219	2903
220	701
234	400
245	200
246	901
263	300
264	9809
265	1902
266	200
