Mass Spectrum: .alpha.-Bromoacrylic acid
Formula: C3 H3 Br O2
CAS: 10443-65-9
Molecular weight: 150
Origin: NIST Mass Spectrometry Data Center, 1994
m/z	RELATIVE INTENSITY
12	304
13	336
14	242
15	448
16	146
17	153
18	137
19	55
24	671
25	2865
26	7858
27	9999
28	742
29	651
36	166
37	149
38	54
40	80
41	372
42	1240
43	782
44	683
45	3904
46	100
53	1964
54	854
55	96
67	47
71	7443
72	266
79	1071
80	620
81	1039
82	425
91	104
92	39
93	135
94	51
103	134
104	690
105	3125
106	1700
107	3100
108	1159
109	52
120	78
122	189
123	38
124	102
133	895
135	950
150	8030
152	7648
153	298
