Mass Spectrum: 2,3,6-Trifluorobenzaldehyde
Formula: C7 H3 F3 O
CAS: 104451-70-9
Molecular weight: 160
Origin: NIST Mass Spectrometry Data Center, 1994
m/z	RELATIVE INTENSITY
12	70
13	38
16	8
17	37
18	43
19	43
20	89
25	55
26	89
28	208
29	3897
31	3228
32	22
33	27
36	168
37	906
38	376
39	57
43	40
44	143
45	66
47	25
48	84
49	286
50	623
51	325
53	20
55	323
56	676
57	999
58	42
60	171
61	1619
62	1920
63	2644
64	172
66	43
67	49
68	1043
69	346
70	35
71	82
72	49
73	196
74	710
75	1268
76	57
79	421
80	1075
81	6751
82	663
84	37
85	79
86	405
87	286
88	512
92	486
93	464
94	92
98	84
99	661
100	89
101	419
102	30
103	27
104	43
105	119
106	333
110	114
111	302
112	1756
113	383
114	32
123	47
125	84
128	39
129	38
131	5435
132	2123
133	134
143	60
144	25
159	9999
160	8875
161	650
162	22
