Mass Spectrum: 1H-Imidazole, 1,5-dimethyl-
Formula: C5 H8 N2
CAS: 10447-93-5
Molecular weight: 96
Origin: L.Muller ET.AL.J.Agric.Food Chem.,46,3172(1998)
m/z	RELATIVE INTENSITY
41	1141
42	3203
43	601
51	200
52	500
53	260
54	2032
55	631
56	2142
66	300
67	170
68	2622
69	300
70	260
71	110
78	70
79	30
84	50
95	7036
96	9999
97	611
