Mass Spectrum: Uridine, 3TMS derivative
Formula: C18 H36 N2 O6 Si3
CAS: 10457-16-6
Molecular weight: 460
Origin: NIST Mass Spectrometry Data Center, 2010
m/z	RELATIVE INTENSITY
15	10
26	10
27	20
28	60
29	30
31	20
36	10
39	30
40	30
41	90
42	40
43	140
44	150
45	801
46	50
47	100
51	10
52	20
53	100
54	110
55	230
56	50
57	50
58	80
59	420
60	40
61	100
62	10
63	10
65	10
66	30
67	40
68	60
69	210
70	70
71	50
72	210
73	9999
74	861
75	1101
76	70
77	60
78	10
79	20
80	30
81	80
82	60
83	40
84	30
85	100
86	30
87	60
88	30
89	170
90	20
91	10
93	10
94	20
95	60
96	80
97	100
98	60
99	530
100	150
101	320
102	80
103	2172
104	200
105	110
106	10
108	20
109	20
110	30
111	80
112	70
113	240
114	50
115	561
116	170
117	400
118	50
119	110
120	20
121	10
122	20
123	10
124	70
125	60
126	100
127	110
128	50
129	1001
130	140
131	370
132	60
133	881
134	130
135	110
136	30
137	40
138	50
139	20
140	70
141	100
142	110
143	350
144	60
145	120
146	20
147	2732
148	651
149	490
150	70
151	40
152	20
153	100
154	80
155	100
156	60
157	220
158	40
159	70
160	20
161	20
162	10
163	80
164	10
165	20
166	10
167	40
168	170
169	2132
170	320
171	210
172	30
173	50
174	40
175	50
176	10
177	50
178	10
179	10
181	10
182	10
183	200
184	60
185	420
186	60
187	40
188	10
189	300
190	60
191	611
192	100
193	40
194	10
195	10
196	20
197	10
198	20
199	10
200	10
201	20
202	10
203	120
204	160
205	60
206	20
207	20
208	10
209	10
211	160
212	30
213	410
214	70
215	230
216	80
217	6856
218	1682
219	731
220	110
221	40
222	20
223	10
224	10
225	10
226	100
227	70
228	20
229	70
230	310
231	270
232	70
233	20
234	10
235	10
237	10
239	50
240	10
241	80
242	20
243	731
244	140
245	320
246	70
247	30
248	10
251	30
252	10
255	10
257	100
258	70
259	1401
260	300
261	130
262	20
263	10
265	170
266	30
267	130
268	20
269	10
271	40
272	10
280	30
281	10
283	10
285	10
299	370
300	90
301	30
302	10
313	10
315	220
316	60
317	60
318	20
319	30
320	20
321	10
325	10
327	10
329	20
330	10
331	10
333	30
334	10
342	10
348	70
349	70
350	30
351	10
355	10
357	20
370	20
371	10
387	10
445	100
446	30
447	20
460	10
