Mass Spectrum: Pentanoic acid, 1-ethenyl-1,5-dimethyl-4-hexenyl ester
Formula: C15 H26 O2
CAS: 10471-96-2
Molecular weight: 238
Origin: W.Jennings, T.Shibamoto
m/z	RELATIVE INTENSITY
29	280
41	1471
43	1591
55	1391
57	4194
58	70
60	791
64	70
67	591
68	1992
69	4124
70	190
71	280
72	70
73	190
77	280
78	70
79	1591
80	7397
81	3313
82	591
83	681
85	4394
86	280
89	190
91	891
92	4124
93	9999
94	2993
95	791
105	390
106	70
107	1992
108	390
109	190
121	4594
122	591
136	2392
137	891
139	70
154	190
