Mass Spectrum: Benzoic acid, 2-hydroxy-, 2-propenyl ester
Formula: C10 H10 O3
CAS: 10484-09-0
Molecular weight: 178
Origin: W.Jennings, T.Shibamoto
m/z	RELATIVE INTENSITY
39	851
41	8187
64	190
65	1381
81	120
92	3653
93	851
105	320
120	9999
121	6786
122	530
131	90
132	300
133	90
160	230
178	2823
179	220
