Mass Spectrum: 2-Butenoyl chloride
Formula: C4 H5 Cl O
CAS: 10487-71-5
Molecular weight: 104
Origin: Japan AIST/NIMC Database- Spectrum MS-NW-2640
m/z	RELATIVE INTENSITY
12	20
13	40
14	50
15	229
17	10
18	30
24	20
25	80
26	349
27	299
28	69
29	50
32	10
33	20
34	30
35	99
36	249
37	499
38	799
39	5359
40	769
41	5779
42	239
43	20
44	30
45	10
47	20
48	20
49	90
50	50
51	30
52	10
53	99
54	20
55	10
60	10
61	40
62	10
63	169
65	60
66	20
67	20
68	249
69	9999
70	439
71	40
73	20
75	60
76	189
77	139
78	70
79	40
86	50
89	10
105	189
106	10
107	70
