Mass Spectrum: Germane, tetraphenyl-
Formula: C24 H20 Ge
CAS: 1048-05-1
Molecular weight: 382
Origin: Japan AIST/NIMC Database- Spectrum MS-IW-4531
m/z	RELATIVE INTENSITY
27	30
28	20
31	30
39	40
41	10
42	10
43	20
45	20
46	10
50	80
51	329
52	50
55	10
57	30
63	20
69	10
70	30
71	20
72	40
73	20
74	60
75	30
76	40
77	299
78	199
79	20
83	10
85	10
89	10
95	139
97	189
98	60
99	259
100	10
101	60
102	20
111	10
113	10
115	40
119	20
120	10
121	179
122	20
123	229
124	80
125	259
126	30
127	60
128	30
135	10
137	10
139	20
145	40
146	50
147	1319
148	169
149	1779
150	669
151	2289
152	499
153	519
154	359
155	40
165	20
171	40
173	40
174	20
175	60
176	10
177	10
187	10
189	20
190	20
191	20
195	10
197	70
198	10
199	90
200	40
201	99
202	30
203	20
215	20
221	30
222	249
223	909
224	3849
225	1759
226	5439
227	3519
228	6619
229	1209
230	1369
231	179
232	10
297	10
298	10
299	90
300	50
301	5419
302	1109
303	7389
304	3479
305	9999
306	1929
307	2179
308	409
309	30
377	10
378	659
379	179
380	869
381	499
382	1219
383	319
384	279
385	60
