Mass Spectrum: 3-Iodothiophene
Formula: C4 H3 I S
CAS: 10486-61-0
Molecular weight: 210
Origin: NIST Mass Spectrometry Data Center, 1994
m/z	RELATIVE INTENSITY
12	75
13	63
14	7
24	56
25	159
26	170
28	102
32	336
33	60
34	27
36	194
37	965
38	1485
39	7012
40	239
44	277
45	1814
46	50
47	81
48	116
49	603
50	1044
51	136
56	212
57	1075
58	153
59	49
68	95
69	157
81	1010
82	1061
83	4696
84	273
85	210
105	452
106	36
127	2512
128	185
139	93
140	24
151	25
152	70
159	36
164	51
165	197
176	20
183	58
184	22
210	9999
211	487
212	438
213	16
