Mass Spectrum: 1-Phenylcyclopentanol-1
Formula: C11 H14 O
CAS: 10487-96-4
Molecular weight: 162
Origin: V.A.KOPTYUG, ATLAS OF MASS SPECTRA OF ORGANIC COMPOUNDS
m/z	RELATIVE INTENSITY
51	800
52	200
53	100
55	2400
56	200
57	100
63	200
64	100
65	300
66	100
71	100
77	2200
78	1000
79	400
89	200
91	900
92	200
102	100
103	300
104	100
105	6099
106	500
107	200
115	500
116	100
117	100
120	2300
121	300
128	200
129	300
133	9999
134	1000
135	100
143	300
144	500
145	100
161	300
162	3200
163	400
