Mass Spectrum: Methyl pentafluoropropionylacetate
Formula: C6 H5 F5 O3
CAS: 104857-88-7
Molecular weight: 220
Origin: NIST Mass Spectrometry Data Center
m/z	RELATIVE INTENSITY
12	10
13	100
14	230
15	901
16	30
17	20
18	20
19	30
25	40
26	50
27	170
28	140
29	1241
30	160
31	1121
32	220
33	240
37	30
40	100
41	1181
42	1331
43	270
44	170
45	300
47	70
50	260
51	120
52	30
53	120
55	50
56	90
57	380
59	1862
60	80
61	50
63	170
64	80
67	40
69	9999
70	370
71	180
72	20
73	40
75	250
76	20
78	20
81	80
82	30
85	10
89	40
91	781
92	30
93	80
94	20
95	20
97	20
101	4564
102	200
103	40
109	40
111	50
113	40
119	1221
120	90
123	20
131	60
141	250
147	320
153	70
159	20
162	20
169	30
173	70
189	1451
190	110
220	420
221	30
