Mass Spectrum: Diisobutyl sulfone
Formula: C8 H18 O2 S
CAS: 10495-45-1
Molecular weight: 178
Origin: DC-19-6
m/z	RELATIVE INTENSITY
27	701
28	200
29	2202
39	601
40	200
41	3603
42	400
43	300
44	200
45	100
53	200
55	601
56	2002
57	9999
58	701
63	400
64	200
65	300
66	100
67	200
71	100
80	100
81	400
83	100
85	100
95	200
105	100
107	200
109	100
121	200
123	2602
124	100
163	100
178	100
