Mass Spectrum: Decyl disulfide
Formula: C20 H42 S2
CAS: 10496-18-1
Molecular weight: 346
Origin: Japan AIST/NIMC Database- Spectrum MS-NW-3940
m/z	RELATIVE INTENSITY
15	40
26	60
27	1129
28	559
29	2349
30	90
32	259
33	20
34	50
35	70
36	10
37	10
38	20
39	779
40	129
41	4949
42	1269
43	9709
44	369
45	359
46	119
47	839
48	30
49	40
50	20
51	50
52	30
53	329
54	389
55	5539
56	2729
57	9999
58	619
59	199
60	429
61	609
62	60
63	40
64	50
65	60
66	50
67	699
68	859
69	3299
70	2629
71	5229
72	309
73	289
74	129
75	80
76	20
77	50
78	20
79	229
80	20
81	469
82	619
83	2349
84	1259
85	5179
86	409
87	1389
88	179
89	519
90	40
91	60
92	10
93	70
94	10
95	309
96	369
97	1159
98	589
99	539
100	50
101	649
102	80
103	119
104	10
105	20
106	10
107	20
109	70
110	119
111	479
112	549
113	70
114	20
115	329
116	30
117	40
119	10
121	30
122	10
123	20
124	10
125	30
126	10
127	20
128	10
129	269
130	20
131	50
135	30
136	10
137	30
138	70
139	20
140	729
141	99
142	20
143	149
144	20
145	30
146	10
147	10
149	10
153	10
154	10
155	10
157	40
159	10
163	10
167	10
168	30
169	10
170	10
171	259
172	139
173	1829
174	759
175	179
176	40
177	10
178	10
187	20
195	20
197	30
201	30
202	10
204	10
205	40
206	2249
207	309
208	209
209	40
210	70
211	10
213	50
214	10
215	10
223	10
229	10
299	10
303	10
306	10
308	20
312	30
313	30
314	20
317	10
318	40
344	30
345	30
346	3659
347	919
348	439
349	90
350	20
