Mass Spectrum: Cyclohexane, 1,2-dichloro-, cis-
Formula: C6 H10 Cl2
CAS: 10498-35-8
Molecular weight: 152
Origin: NIST Mass Spectrometry Data Center, 1994
m/z	RELATIVE INTENSITY
13	18
15	548
16	13
26	741
27	2933
28	670
29	386
32	11
35	125
36	152
37	266
38	560
39	3538
40	496
41	3073
42	311
43	31
47	39
48	55
49	492
50	616
51	1149
52	413
53	1732
54	1371
55	1503
56	124
57	28
60	43
61	255
62	821
63	322
64	251
65	462
66	164
67	1416
68	83
69	39
72	24
73	173
75	1270
76	198
77	935
78	24
79	2218
80	6099
81	9999
82	626
83	61
85	45
86	12
87	91
88	562
89	171
90	309
91	51
92	44
96	69
98	38
99	23
100	18
101	98
102	10
103	54
109	40
110	11
111	30
112	12
116	609
117	74
118	203
119	22
152	105
154	62
156	12
