Mass Spectrum: 2-Cyclopenten-1-one, 2-hydroxy-
Formula: C5 H6 O2
CAS: 10493-98-8
Molecular weight: 98
Origin: J.A. ENZELL, RES. DEP., SWED. TOB. CO., STOCKHOLM, SWEDEN
m/z	RELATIVE INTENSITY
40	1100
41	3400
42	5500
43	2400
44	500
55	6300
56	600
69	3100
70	1400
98	9999
