Mass Spectrum: 1-Pentanol, 2-methyl-
Formula: C6 H14 O
CAS: 105-30-6
Molecular weight: 102
Origin: Japan AIST/NIMC Database- Spectrum MS-NW- 743
m/z	RELATIVE INTENSITY
15	80
17	40
18	149
26	90
27	1179
28	189
29	1659
30	50
31	1329
32	50
33	20
37	20
38	70
39	949
40	159
41	2969
42	1829
43	9999
44	339
45	269
46	10
50	40
51	60
52	20
53	179
54	99
55	2539
56	1799
57	259
58	109
59	209
60	10
62	10
63	10
65	20
67	90
68	30
69	2159
70	2729
71	3389
72	189
73	30
79	10
81	10
82	10
83	60
84	1339
85	109
