Mass Spectrum: Propanoic acid, ethenyl ester
Formula: C5 H8 O2
CAS: 105-38-4
Molecular weight: 100
Origin: Japan AIST/NIMC Database- Spectrum MS-NW-7692
m/z	RELATIVE INTENSITY
13	30
14	149
15	399
16	10
18	10
25	50
26	489
27	2299
28	639
29	9649
30	209
31	40
32	10
38	10
39	40
41	60
42	339
43	1199
44	1159
45	80
46	10
53	30
54	10
55	169
56	259
57	9999
58	349
59	20
71	30
73	60
74	20
100	429
101	30
