Mass Spectrum: 2-Pentanone, 4-methyl-, oxime
Formula: C6 H13 N O
CAS: 105-44-2
Molecular weight: 115
Origin: Japan AIST/NIMC Database- Spectrum MS-NW-1209
m/z	RELATIVE INTENSITY
14	30
15	539
16	10
18	10
26	80
27	1139
28	769
29	859
30	169
31	239
32	119
33	429
34	20
37	30
38	119
39	1149
40	299
41	3029
42	3529
43	1999
44	109
45	149
46	70
49	10
50	50
51	80
52	70
53	139
54	729
55	709
56	1109
57	1869
58	519
59	80
60	189
64	10
65	20
66	30
67	90
68	90
69	289
70	50
71	20
72	99
73	9999
74	419
75	30
77	10
79	20
80	30
81	30
82	209
83	369
84	309
85	40
86	10
87	10
94	10
96	30
97	99
98	249
99	30
100	1229
101	80
113	10
114	80
115	239
116	20
