Mass Spectrum: 2,6-Octadien-1-ol, 3,7-dimethyl-, propanoate, (Z)-
Formula: C13 H22 O2
CAS: 105-91-9
Molecular weight: 210
Origin: R. RYHAGE KAROLINSKA INSTITUTET, STOCKHOLM
m/z	RELATIVE INTENSITY
29	370
41	1600
43	320
53	200
55	170
57	3680
58	110
66	180
67	660
68	4470
69	9999
70	470
77	110
79	390
80	2470
81	1100
82	170
84	320
85	260
91	180
92	1180
93	5260
94	840
95	320
97	120
105	130
107	530
108	260
109	110
121	2050
122	210
123	210
136	920
137	260
154	130
