Mass Spectrum: Butanoic acid, propyl ester
Formula: C7 H14 O2
CAS: 105-66-8
Molecular weight: 130
m/z	RELATIVE INTENSITY
12	20
13	50
14	260
15	1031
16	40
17	10
18	10
19	20
20	10
24	10
25	40
26	671
27	5645
28	1071
29	1812
30	180
31	891
32	20
33	10
36	10
37	110
38	240
39	2092
40	320
41	3924
42	2742
43	9999
44	380
45	340
46	10
47	30
48	10
49	10
50	20
51	10
52	10
53	40
54	10
55	310
56	170
57	360
58	60
59	571
60	1551
61	701
62	20
63	10
67	10
68	10
69	70
70	100
71	9378
72	430
73	901
74	40
75	20
76	10
77	10
78	40
79	10
83	10
84	10
85	10
86	10
87	110
88	400
89	5045
90	230
91	30
92	10
100	60
101	470
102	370
103	20
104	10
115	30
116	10
129	10
130	10
131	10
