Mass Spectrum: 1-Butanol, 3-methyl-, propanoate
Formula: C8 H16 O2
CAS: 105-68-0
Molecular weight: 144
m/z	RELATIVE INTENSITY
14	20
15	120
16	10
25	20
26	220
27	1651
28	871
29	4254
30	120
31	260
37	20
38	40
39	651
40	120
41	1441
42	1201
43	2843
44	150
45	220
50	20
51	30
52	10
53	120
54	80
55	3133
56	571
57	9999
58	360
59	50
60	20
61	10
67	20
68	20
69	430
70	4884
71	931
72	801
73	110
74	140
75	1061
76	40
77	10
83	10
84	10
85	220
86	60
87	601
88	90
89	90
90	10
97	10
99	10
100	10
101	390
102	60
103	10
114	10
115	80
116	10
129	10
