Mass Spectrum: 1,4-Cyclohexanedimethanol
Formula: C8 H16 O2
CAS: 105-08-8
Molecular weight: 144
Origin: NIST Mass Spectrometry Data Center, 1990.
m/z	RELATIVE INTENSITY
15	76
16	31
18	78
26	143
27	1423
28	621
29	1721
30	31
31	2364
32	65
39	1872
40	383
41	3852
42	337
43	784
44	171
45	254
50	108
51	264
52	154
53	997
54	854
55	2890
56	223
57	960
58	89
63	66
65	384
66	515
67	5024
68	540
69	1124
70	244
71	107
77	639
78	406
79	1987
80	1018
81	858
82	319
83	300
84	100
91	583
93	3937
95	9999
96	817
97	188
98	159
107	177
108	1446
109	163
111	55
113	226
126	251
