Mass Spectrum: Carbamic acid, methyl-, ethyl ester
Formula: C4 H9 N O2
CAS: 105-40-8
Molecular weight: 103
Origin: NIST Mass Spectrometry Data Center
m/z	RELATIVE INTENSITY
14	20
15	380
16	10
19	20
25	10
26	240
27	1321
28	1431
29	3073
30	2562
31	540
32	150
40	10
41	30
42	150
43	360
44	1631
45	1621
46	90
47	30
54	10
55	30
56	330
57	280
58	9999
59	1351
60	530
61	10
74	2582
75	4104
76	681
77	30
88	340
89	10
103	2813
104	200
105	10
