Mass Spectrum: 2-Butenedioic acid (Z)-, dibutyl ester
Formula: C12 H20 O4
CAS: 105-76-0
Molecular weight: 228
Origin: NIST Mass Spectrometry Data Center, 1990.
m/z	RELATIVE INTENSITY
14	40
15	82
16	13
17	5
18	14
19	12
26	663
27	1634
28	673
29	2911
30	109
31	111
32	3
39	646
41	3449
42	236
43	361
44	90
45	210
50	15
51	27
53	344
54	1187
55	1261
56	2233
57	4978
58	237
59	30
67	17
68	25
69	33
71	408
72	242
73	83
75	275
81	247
82	730
83	50
84	19
85	23
86	34
87	13
95	14
97	75
99	9999
100	1917
101	188
108	20
109	72
112	48
113	63
114	16
117	4164
118	220
119	46
126	162
127	190
128	28
130	15
136	23
139	71
142	16
143	74
144	12
153	90
154	375
155	1635
156	249
157	85
171	85
173	705
174	70
175	12
199	14
