Mass Spectrum: 1,4-Benzenedimethanethiol
Formula: C8 H10 S2
CAS: 105-09-9
Molecular weight: 170
Origin: NIST Mass Spectrometry Data Center
m/z	RELATIVE INTENSITY
15	20
18	20
26	30
27	140
28	20
29	10
32	70
33	210
34	90
35	30
36	10
37	40
38	110
39	591
40	50
41	60
42	10
43	30
44	10
45	1611
46	110
47	330
48	10
49	30
50	400
51	781
52	270
53	130
54	20
55	10
57	20
58	90
59	200
60	30
61	70
62	200
63	601
64	140
65	540
66	80
67	360
68	460
69	260
70	50
71	90
72	10
73	30
74	170
75	160
76	210
77	1091
78	1061
79	180
80	10
81	40
82	80
83	40
84	60
85	40
86	50
87	50
88	10
89	641
90	320
91	3393
92	360
93	410
94	50
95	70
96	20
97	190
98	40
99	20
101	30
102	310
103	1521
104	7216
105	861
106	60
107	10
108	70
109	140
110	30
111	20
117	10
119	20
120	30
121	480
122	110
123	601
124	60
125	40
132	10
133	30
134	340
135	1111
136	340
137	9999
138	1001
139	510
140	50
153	10
165	10
167	10
168	20
170	4274
171	450
172	400
173	40
174	10
