Mass Spectrum: 1-Hexyn-3-ol
Formula: C6 H10 O
CAS: 105-31-7
Molecular weight: 98
Origin: Japan AIST/NIMC Database- Spectrum MS-NW-3132
m/z	RELATIVE INTENSITY
14	20
15	149
17	30
18	109
25	50
26	359
27	2569
28	339
29	829
30	30
31	149
32	20
36	10
37	119
38	309
39	1479
40	229
41	3019
42	729
43	2999
44	239
45	159
49	40
50	279
51	419
52	369
53	509
54	229
55	9999
56	1839
57	489
58	90
59	20
60	40
61	30
62	50
63	80
64	20
65	209
66	40
67	169
68	109
69	999
70	1429
71	379
72	119
73	20
74	30
75	10
77	229
78	40
79	939
80	159
81	99
82	10
83	3219
84	199
85	20
91	10
93	30
95	20
97	639
98	60
99	10
