Mass Spectrum: Betazole
Formula: C5 H9 N3
CAS: 105-20-4
Molecular weight: 111
Origin: Drug Lab
m/z	RELATIVE INTENSITY
29	50
30	651
37	30
38	70
39	140
40	20
41	210
42	250
43	70
49	20
50	190
51	230
52	190
53	210
54	550
55	450
56	100
62	30
63	40
64	20
65	30
66	100
67	90
68	60
69	90
76	20
78	20
80	80
81	3683
82	9999
83	641
84	20
93	130
94	100
95	40
96	20
109	20
110	80
111	260
112	20
