Mass Spectrum: Thiourea, N,N'-diethyl-
Formula: C5 H12 N2 S
CAS: 105-55-5
Molecular weight: 132
Origin: Japan AIST/NIMC Database- Spectrum MS-NW-1999
m/z	RELATIVE INTENSITY
14	20
15	179
17	20
18	229
26	70
27	739
28	809
29	1069
30	799
31	10
32	30
33	20
34	20
35	10
39	10
40	60
41	99
42	389
43	1329
44	9999
45	299
46	90
47	30
48	50
50	20
51	30
52	10
53	20
54	60
55	729
56	399
57	30
58	20
59	289
60	2169
61	139
62	109
69	159
70	20
71	1189
72	119
73	20
74	40
75	20
76	129
83	339
84	20
85	20
86	80
87	70
88	519
89	179
90	80
97	20
98	269
99	509
100	50
103	189
104	20
105	10
130	10
131	359
132	6049
133	469
134	299
135	10
