Mass Spectrum: 2-Chloro-N-ethylacetamide
Formula: C4 H8 Cl N O
CAS: 105-35-1
Molecular weight: 121
Origin: NIST Mass Spectrometry Data Center, 1994
m/z	RELATIVE INTENSITY
12	87
13	283
14	1274
15	2108
16	78
17	65
18	628
19	13
25	85
26	738
27	3028
28	5048
29	7546
30	7870
35	165
36	128
37	78
38	182
39	233
40	660
41	1152
42	3001
43	1969
44	9999
45	134
46	32
47	180
48	420
49	3084
50	214
51	975
52	80
53	20
54	45
55	34
56	206
57	84
58	469
60	12
62	27
63	30
64	82
65	15
66	29
68	62
69	24
70	38
71	12
72	7357
73	276
75	31
76	299
77	1159
78	122
79	379
80	17
84	17
86	4731
87	233
88	22
94	56
96	17
106	669
107	33
108	228
121	949
122	92
123	291
124	26
