Mass Spectrum: Pentanoic acid, 3-methyl-
Formula: C6 H12 O2
CAS: 105-43-1
Molecular weight: 116
Origin: Japan AIST/NIMC Database- Spectrum MS-NW-5127
m/z	RELATIVE INTENSITY
14	30
15	109
17	20
18	70
26	109
27	1269
28	209
29	1819
30	60
31	179
32	20
37	30
38	80
39	959
40	159
41	2729
42	449
43	1309
44	60
45	1219
46	30
47	20
49	10
50	60
51	80
52	20
53	149
54	50
55	1179
56	1559
57	2379
58	129
59	489
60	9999
61	1389
62	80
63	20
65	10
67	20
68	60
69	449
70	129
71	70
72	10
73	409
74	70
82	10
83	219
84	10
85	20
86	40
87	1689
88	119
89	20
94	10
95	20
97	30
98	90
99	70
100	50
101	139
102	10
115	20
116	10
117	20
