Mass Spectrum: Benzene, 1,4-diethenyl-
Formula: C10 H10
CAS: 105-06-6
Molecular weight: 130
Origin: NIST Mass Spectrometry Data Center, 1998.
m/z	RELATIVE INTENSITY
26	60
27	210
37	40
38	110
39	510
40	30
41	40
49	50
50	660
51	1450
52	350
53	110
57	20
61	90
62	280
63	860
64	570
65	510
66	20
73	50
74	420
75	410
76	360
77	1250
78	630
79	60
85	30
86	80
87	110
88	40
89	290
90	40
91	180
92	10
97	10
98	110
99	40
100	20
101	170
102	810
103	890
104	510
105	50
113	40
114	70
115	3220
116	310
117	20
126	270
127	1620
128	3720
129	3400
130	9999
131	1160
132	50
