Mass Spectrum: Ethyl cyanoacetate
Formula: C5 H7 N O2
CAS: 105-56-6
Molecular weight: 113
Origin: Japan AIST/NIMC Database- Spectrum MS-NW-1495
m/z	RELATIVE INTENSITY
12	30
13	60
14	149
15	359
16	10
17	10
18	30
25	40
26	399
27	2249
28	999
29	9999
30	219
31	299
32	30
38	179
39	359
40	1749
41	1299
42	479
43	629
44	159
45	989
46	30
47	10
51	10
52	10
53	10
54	129
55	20
56	20
57	20
59	10
60	99
61	10
67	169
68	7099
69	279
70	20
71	10
73	40
85	70
86	1059
87	40
88	20
98	40
112	20
113	179
114	20
115	50
