Mass Spectrum: 6-Octen-1-ol, 3,7-dimethyl-, formate
Formula: C11 H20 O2
CAS: 105-85-1
Molecular weight: 184
Origin: MASS SPECTRA OF ORGANIC COMPOUNDS, V. 5, B. H. KENNETT ET AL, DIV. OF FOOD RESEARCH, CSIRO, AUSTRALIA
m/z	RELATIVE INTENSITY
26	100
27	1200
29	1400
30	200
31	1200
39	1600
40	500
41	7700
42	800
43	1400
45	200
46	100
51	200
52	100
53	1300
54	500
55	5500
56	2300
57	900
65	300
66	200
67	3100
68	3600
69	9999
70	1500
71	400
77	400
78	200
79	400
80	300
81	4000
82	3800
83	1400
84	200
85	100
91	300
93	300
94	300
95	4000
96	1000
97	200
109	1500
110	600
123	2600
124	200
138	1600
139	200
184	50
