Mass Spectrum: Dibutyl adipate
Formula: C14 H26 O4
CAS: 105-99-7
Molecular weight: 258
Origin: H. Fales, LC, NHLBI, NIH, Bethesda, MD 20892
m/z	RELATIVE INTENSITY
41	5841
42	1011
43	2032
44	142
45	355
47	54
48	21
52	26
53	263
54	342
55	5956
56	4639
57	3390
58	169
59	863
60	705
61	245
63	16
64	37
65	25
67	64
68	213
69	284
70	83
71	153
72	13
73	1029
74	133
75	34
78	21
79	4
81	73
82	161
83	1810
84	772
85	171
86	164
87	2717
88	107
89	19
91	50
92	4
95	21
96	16
97	29
98	81
99	226
100	2032
101	2445
102	357
103	123
105	4
108	4
109	42
110	166
111	4420
112	652
113	82
114	23
115	13
116	49
117	32
124	6
126	12
127	100
128	251
129	7042
130	404
131	63
140	15
141	39
142	88
143	2523
144	193
145	43
147	40
153	18
155	55
156	2727
157	361
158	297
159	35
169	76
173	27
183	17
184	280
185	9999
186	1100
187	125
188	4
202	24
203	391
204	38
229	34
230	18
243	11
257	166
258	498
259	78
260	4
