Mass Spectrum: Ethylene brassylate
Formula: C15 H26 O4
CAS: 105-95-3
Molecular weight: 270
Origin: NIST Mass Spectrometry Data Center, 1994
m/z	RELATIVE INTENSITY
14	71
15	324
18	42
19	77
26	202
27	2160
28	2118
29	3453
30	145
31	407
39	1876
41	8890
42	3912
43	4288
44	517
45	1173
51	90
53	795
54	1262
55	9999
56	1846
57	1163
58	617
59	324
60	419
61	336
65	153
67	2268
68	1024
69	3132
70	865
71	889
72	115
73	461
74	126
77	117
78	71
79	802
80	526
81	1777
82	804
83	2720
84	3716
85	924
86	6117
87	2166
88	124
91	192
92	98
93	591
94	381
95	944
96	804
97	2268
98	7263
99	4151
100	468
101	277
104	274
105	155
107	631
108	212
109	442
110	469
111	1179
112	2256
113	649
114	115
115	168
117	153
118	37
119	142
120	98
121	378
122	208
123	404
124	450
125	1450
126	325
127	227
128	58
129	117
131	68
133	113
134	76
135	164
136	113
137	295
138	217
139	251
140	80
141	355
142	80
143	156
144	61
145	137
146	61
147	94
148	89
149	359
150	80
151	159
152	222
153	80
154	61
155	1038
156	151
159	274
160	43
161	70
162	100
163	348
164	117
165	95
166	171
167	99
168	33
169	217
170	40
171	101
172	73
173	513
174	68
179	55
180	273
181	201
182	90
183	101
185	141
187	1366
188	163
189	47
190	56
191	37
197	111
199	82
207	34
208	284
209	179
210	34
211	1242
212	206
213	105
224	65
227	2945
228	466
229	61
241	104
242	94
252	95
269	47
270	277
271	47
272	3
