Mass Spectrum: Geranyl formate
Formula: C11 H18 O2
CAS: 105-86-2
Molecular weight: 182
Origin: H. Fales, LC, NHLBI, NIH, Bethesda, MD 20892
m/z	RELATIVE INTENSITY
41	5612
42	393
43	917
44	152
45	84
46	10
47	35
49	13
50	58
51	195
52	114
53	856
54	131
55	710
56	172
57	351
58	70
59	163
60	42
61	18
62	13
63	42
64	16
65	220
66	98
67	1232
68	2544
69	9999
70	722
71	220
72	39
73	46
74	14
75	13
76	10
77	261
78	57
79	342
80	432
81	504
82	153
83	218
84	120
85	217
86	34
87	55
88	10
89	29
90	7
91	228
92	246
93	1012
94	231
95	174
96	103
97	95
98	48
99	65
100	25
101	30
102	7
103	28
104	11
105	96
106	28
107	213
108	86
109	90
110	34
111	61
112	49
113	60
114	23
115	35
116	12
117	19
118	11
119	41
120	11
121	547
122	62
123	169
124	38
125	29
126	16
127	24
128	16
129	27
130	8
131	17
132	9
133	13
134	10
135	35
136	1117
137	197
138	30
139	123
140	18
141	18
142	12
143	21
144	4
145	12
146	3
147	14
148	7
149	14
150	12
151	15
152	12
153	28
154	7
155	18
164	3
166	6
167	16
168	9
179	4
180	2
181	4
182	19
183	7
184	2
