Mass Spectrum: Methyldiethanolamine
Formula: C5 H13 N O2
CAS: 105-59-9
Molecular weight: 119
Origin: NIST Mass Spectrometry Data Center, 1998.
m/z	RELATIVE INTENSITY
15	160
18	70
19	20
26	50
27	360
28	260
29	380
30	260
31	380
32	10
38	20
39	30
40	80
41	290
42	2150
43	760
44	8769
45	3130
46	80
51	20
52	20
54	80
55	60
56	460
57	370
58	660
59	50
70	280
71	70
72	150
73	60
74	310
75	30
77	40
82	10
84	10
86	70
88	9999
89	500
90	20
100	50
104	20
105	50
118	50
119	230
120	20
