Mass Spectrum: 2,5-Cyclohexadiene-1,4-dione, dioxime
Formula: C6 H6 N2 O2
CAS: 105-11-3
Molecular weight: 138
Origin: NIST Mass Spectrometry Data Center, 1998.
m/z	RELATIVE INTENSITY
26	380
27	200
36	220
38	430
39	860
41	200
42	160
43	220
49	120
50	680
51	1630
52	2190
53	1690
54	210
55	140
61	150
62	490
63	1940
64	870
65	1290
66	570
67	260
68	310
74	260
75	330
76	740
77	680
78	2220
79	390
81	210
86	100
88	240
90	880
93	200
95	410
103	230
106	330
107	470
108	750
122	1070
123	170
137	260
138	9999
139	670
