Mass Spectrum: Acetic acid, cyano-, methyl ester
Formula: C4 H5 N O2
CAS: 105-34-0
Molecular weight: 99
Origin: Japan AIST/NIMC Database- Spectrum MS-NW-5077
m/z	RELATIVE INTENSITY
12	80
13	119
14	249
15	4489
16	50
17	120
18	30
24	20
25	50
26	129
27	149
28	439
29	839
30	149
31	609
32	99
33	80
36	40
37	10
38	429
39	869
40	2939
41	539
42	479
43	60
44	229
45	40
50	10
51	30
52	40
53	40
54	989
55	989
56	40
57	10
58	10
59	9999
60	239
61	40
66	10
67	1169
68	6379
69	259
70	20
71	10
74	20
99	40
100	10
101	50
