Mass Spectrum: Hippuric acid, TBDMS derivative
Formula: C15 H23 N O3 Si
CAS: 105041-03-0
Molecular weight: 293
Origin: NIST Mass Spectrometry Data Center
m/z	RELATIVE INTENSITY
27	30
28	20
29	100
30	10
31	10
38	10
39	80
40	10
41	230
42	30
43	110
44	20
45	240
46	20
47	170
48	10
49	10
50	120
51	500
52	40
53	20
54	10
55	40
56	70
57	290
58	250
59	310
60	70
61	140
62	10
63	20
65	10
67	10
69	10
70	10
71	10
72	130
73	1621
74	240
75	1461
76	260
77	2732
78	210
79	20
83	10
84	10
85	40
86	90
87	130
88	120
90	20
91	70
92	10
96	110
99	50
100	50
101	50
102	60
103	50
105	9999
106	911
107	60
114	10
115	260
116	160
117	170
118	120
119	30
120	10
121	10
130	80
131	30
132	40
133	40
134	270
135	120
136	20
137	20
143	10
144	10
145	10
146	10
147	10
148	20
149	80
150	10
151	10
161	30
162	180
163	90
164	20
165	10
175	10
176	10
177	10
178	60
179	90
180	20
181	10
190	70
191	30
192	1361
193	360
194	90
195	10
206	20
207	10
208	10
234	20
236	6376
237	1201
238	360
239	40
248	380
249	80
250	20
278	170
279	40
280	10
