Mass Spectrum: Quinoline, 5,6,7,8-tetrahydro-
Formula: C9 H11 N
CAS: 10500-57-9
Molecular weight: 133
Origin: Japan AIST/NIMC Database- Spectrum MS-NW-8387
m/z	RELATIVE INTENSITY
15	20
26	80
27	409
28	199
29	40
30	30
37	50
38	179
39	1189
40	119
41	249
42	60
43	10
44	10
45	10
49	20
50	339
51	899
52	509
53	239
54	99
55	30
56	10
58	199
59	159
61	30
62	119
63	469
64	289
65	889
66	189
67	109
68	20
73	10
74	90
75	119
76	149
77	869
78	929
79	859
80	119
81	10
86	10
87	10
88	10
89	149
90	219
91	499
92	509
93	219
94	20
98	10
100	10
101	40
102	119
103	279
104	1249
105	3519
106	529
107	149
108	10
110	10
115	149
116	80
117	1879
118	2099
119	229
120	40
121	10
128	70
129	40
130	1109
131	359
132	9999
133	9889
134	1039
135	60
