Mass Spectrum: Ethyl 2-octynoate
Formula: C10 H16 O2
CAS: 10519-20-7
Molecular weight: 168
Origin: Japan AIST/NIMC Database- Spectrum MS-IW-7358
m/z	RELATIVE INTENSITY
12	10
14	40
15	209
16	20
17	50
18	259
19	20
25	40
26	469
27	3269
28	1159
29	6859
30	199
31	239
32	60
37	139
38	609
39	2749
40	569
41	4719
42	729
43	1389
44	549
45	709
46	50
47	80
49	30
50	349
51	809
52	619
53	2009
54	629
55	5859
56	889
57	1209
58	90
59	50
60	30
61	60
62	99
63	209
64	80
65	709
66	2869
67	5469
68	1709
69	619
70	279
71	359
72	30
73	109
74	40
75	20
76	10
77	859
78	179
79	2629
80	1449
81	2489
82	519
83	479
84	3089
85	769
86	1019
87	60
88	40
89	30
90	10
91	479
92	90
93	2269
94	1539
95	7499
96	669
97	1389
98	689
99	499
100	50
101	20
102	10
103	30
104	20
105	70
106	20
107	449
108	70
109	119
110	30
111	1769
112	1169
113	359
114	529
115	40
117	10
118	10
119	10
120	20
121	639
122	899
123	9999
124	919
125	1519
126	229
127	60
128	10
135	20
137	20
138	10
139	1289
140	699
141	189
142	10
153	129
154	10
167	30
168	10
169	50
