Mass Spectrum: Divinyldimethylsilane
Formula: C6 H12 Si
CAS: 10519-87-6
Molecular weight: 112
Origin: Institute of Organic Chemistry, Novosibirsk, USSR 1988
m/z	RELATIVE INTENSITY
27	89
28	3719
29	279
30	2869
31	679
41	89
42	99
43	1379
44	1099
45	1339
46	89
55	629
56	79
57	219
58	939
59	3209
60	199
61	109
69	519
70	419
71	4609
72	539
73	319
83	89
84	219
85	1199
86	99
95	629
96	89
97	9999
98	1229
99	399
111	99
112	129
