Mass Spectrum: Syringic acid, 2TMS derivative
Formula: C15 H26 O5 Si2
CAS: 10517-29-0
Molecular weight: 342
Origin: NIST Mass Spectrometry Data Center, 1998.
m/z	RELATIVE INTENSITY
15	60
27	20
28	10
29	70
31	20
38	10
42	20
43	240
44	150
45	980
46	70
47	90
50	30
51	20
52	10
53	80
54	10
55	60
56	10
57	60
58	140
59	740
60	70
61	100
62	30
63	60
64	30
65	60
66	140
68	20
69	60
70	50
71	80
72	10
73	5489
74	520
75	660
76	80
77	170
78	110
79	80
80	10
81	110
82	30
83	150
84	40
85	60
87	10
89	610
90	140
91	260
92	70
93	180
94	40
95	110
96	320
97	60
98	220
99	120
100	10
101	20
102	20
103	100
104	180
105	230
106	120
107	160
108	50
109	260
110	50
111	100
112	80
113	100
115	30
116	10
117	50
118	50
119	260
120	140
121	190
122	210
123	140
124	80
125	50
126	80
127	160
129	10
131	30
132	20
133	390
134	270
135	360
136	120
137	890
138	120
139	110
140	10
141	2500
145	20
147	230
149	1660
150	380
151	400
152	220
153	90
154	30
155	20
156	980
159	10
160	10
161	60
162	60
163	170
164	180
165	520
166	170
167	290
168	120
169	40
170	10
175	10
176	10
177	90
178	190
179	760
180	480
183	40
190	10
191	80
192	80
193	490
194	270
195	820
196	170
205	20
206	30
207	240
208	350
209	460
210	200
213	70
214	10
219	10
221	210
223	2770
224	570
225	260
226	50
233	10
235	70
236	50
237	600
238	160
239	140
240	40
241	60
242	10
249	10
251	160
253	4880
254	1220
265	10
267	390
268	80
269	310
279	10
281	90
283	2480
284	610
285	240
286	30
295	50
297	6909
298	1670
299	710
300	110
301	10
309	10
312	7869
313	1990
314	840
315	130
316	20
325	20
327	9999
328	2690
329	1090
330	180
331	20
342	3730
343	1020
344	410
345	140
346	10
