Mass Spectrum: 3,5-Difluorophenylacetic acid
Formula: C8 H6 F2 O2
CAS: 105184-38-1
Molecular weight: 172
Origin: NIST Mass Spectrometry Data Center
m/z	RELATIVE INTENSITY
14	10
15	10
17	20
18	10
26	30
27	50
28	140
29	180
31	340
33	50
37	90
38	150
39	190
42	50
43	40
44	100
45	851
46	20
48	10
49	50
50	300
51	490
52	20
53	40
56	100
57	581
58	30
61	140
62	240
63	380
65	20
68	130
69	90
70	50
72	20
73	40
74	210
75	681
76	140
77	380
78	60
79	30
80	130
81	420
82	60
83	90
84	30
85	80
86	70
87	70
88	70
89	20
92	30
93	50
94	60
95	140
96	80
97	40
99	120
101	1451
102	100
103	10
104	30
105	120
107	891
108	220
109	150
113	70
114	50
115	80
123	30
125	571
127	9999
128	2252
129	140
130	50
141	30
143	60
144	90
154	60
155	30
170	20
172	3083
173	260
174	30
