Mass Spectrum: 2-Methyl-1-undecanol
Formula: C12 H26 O
CAS: 10522-26-6
Molecular weight: 186
Origin: NIST Mass Spectrometry Data Center, 1990.
m/z	RELATIVE INTENSITY
27	1917
28	1176
29	3693
31	2517
39	1529
41	7440
42	2041
43	8970
44	395
45	411
53	537
54	596
55	5200
56	5671
57	9999
58	1401
59	242
67	733
68	702
69	4589
70	3358
71	3713
72	252
81	337
82	1245
83	2956
84	2155
85	1954
96	648
97	2538
98	1068
99	370
110	246
111	1186
112	646
125	515
126	397
139	170
140	472
