Mass Spectrum: 1-Butene, 4-chloro-2-methyl-
Formula: C5 H9 Cl
CAS: 10523-96-3
Molecular weight: 104
Origin: COMPAGNIE FRANCAISE DE RAFFINAGE, FRANCE.
m/z	RELATIVE INTENSITY
26	408
27	2865
28	541
29	3295
30	79
31	102
35	62
36	327
37	269
38	632
39	4138
40	1240
41	5560
42	1081
43	439
49	396
50	401
51	684
52	216
53	2677
54	316
55	9999
56	529
57	134
61	146
62	201
63	267
64	57
65	211
66	230
67	1586
68	1475
69	7070
70	461
71	132
75	181
76	196
77	59
78	65
87	21
88	17
89	647
90	35
91	233
104	3077
105	187
106	1006
