Mass Spectrum: CF3C.$.CC.$.CCF3
Formula: C6 F6
CAS: 10524-09-1
Molecular weight: 186
Origin: ASES Database, Dalian Institute, P.R. China
m/z	RELATIVE INTENSITY
31	8517
36	290
48	690
50	800
55	600
60	190
67	680
69	4594
74	780
79	3453
86	1010
93	1301
98	3993
117	9999
136	2402
148	1291
167	7767
186	6285
