Mass Spectrum: 1-Butene, 4-chloro-3-methyl-
Formula: C5 H9 Cl
CAS: 10524-01-3
Molecular weight: 104
Origin: COMPAGNIE FRANCAISE DE RAFFINAGE, FRANCE.
m/z	RELATIVE INTENSITY
26	325
27	2008
28	337
29	2371
30	58
31	73
35	28
36	142
37	152
38	316
39	2265
40	428
41	2686
42	572
43	158
49	370
50	320
51	558
52	154
53	1988
54	302
55	9999
56	511
57	61
61	107
62	104
63	196
64	32
65	185
66	106
67	635
68	707
69	4255
70	258
71	37
75	141
76	183
77	56
78	67
87	23
88	13
89	489
90	22
91	143
102	183
103	20
104	467
105	29
106	131
