Mass Spectrum: Benzenepentanol
Formula: C11 H16 O
CAS: 10521-91-2
Molecular weight: 164
Origin: Japan AIST/NIMC Database- Spectrum MS-NW-5589
m/z	RELATIVE INTENSITY
15	30
18	20
26	40
27	449
28	139
29	279
30	10
31	859
32	20
37	10
38	50
39	689
40	70
41	519
42	60
43	479
44	80
45	80
50	159
51	519
52	149
53	129
54	20
55	899
56	50
57	119
58	20
61	10
62	60
63	259
64	80
65	1249
66	90
67	129
68	469
69	50
70	20
71	60
73	109
74	40
75	50
76	50
77	719
78	659
79	539
80	60
81	10
85	10
86	10
87	10
89	209
90	109
91	9999
92	2889
93	239
94	30
95	20
101	10
102	70
103	399
104	7359
105	1869
106	149
107	50
108	10
115	299
116	99
117	4789
118	1359
119	139
120	40
121	10
127	20
128	60
129	80
130	40
131	609
132	80
133	30
134	10
143	20
144	20
145	239
146	4319
147	539
148	30
162	30
164	449
165	50
