Mass Spectrum: 1,3-Bis(3-aminophenoxy)benzene
Formula: C18 H16 N2 O2
CAS: 10526-07-5
Molecular weight: 292
Origin: NIST Mass Spectrometry Data Center, 1994
m/z	RELATIVE INTENSITY
17	41
18	133
27	143
28	564
30	87
37	68
38	426
39	2271
40	210
41	491
42	287
44	36
50	355
51	498
52	789
53	933
54	323
55	133
61	36
62	170
63	1138
64	1354
65	5601
66	806
67	84
68	165
69	60
70	123
75	187
76	238
77	345
78	227
79	196
80	1093
81	272
82	47
83	56
87	20
88	46
89	152
90	195
91	404
92	1719
93	528
94	202
95	57
96	44
101	76
102	149
103	148
104	107
105	63
106	214
107	60
108	225
109	574
110	143
113	35
115	628
116	224
117	363
118	123
119	40
120	45
123	52
124	54
126	111
127	766
128	776
129	383
130	430
131	232
132	159
133	123
134	20
136	251
137	45
138	26
139	230
140	109
141	112
142	95
143	365
144	256
145	106
146	311
152	44
154	819
155	566
156	1318
157	221
158	45
159	23
161	166
162	58
164	19
165	54
166	106
167	126
168	87
169	50
170	246
171	122
172	311
173	91
179	23
180	62
181	69
182	462
183	3383
184	755
185	109
186	46
191	27
193	36
194	50
195	69
196	89
197	41
198	183
199	222
200	207
201	104
202	39
204	41
205	33
206	42
207	48
208	28
209	50
210	30
212	58
217	52
218	97
219	66
220	64
221	47
222	98
223	60
224	36
230	72
231	44
232	42
233	46
234	33
235	50
236	50
237	38
245	66
246	321
247	110
248	134
249	59
251	29
257	49
258	41
261	42
263	434
264	461
265	107
273	58
274	104
275	127
276	45
277	38
289	26
292	9999
293	2061
294	250
