Mass Spectrum: Moxaverine
Formula: C20 H21 N O2
CAS: 10539-19-2
Molecular weight: 307
Origin: R RYHAGE MS-LAB KAROLINSKA INSTITUTET STOCKHOLM SWEDEN
m/z	RELATIVE INTENSITY
13	74
14	130
15	65
16	42
25	37
26	428
27	112
28	42
30	42
31	60
38	135
39	340
40	23
48	5
49	60
50	163
51	168
52	102
53	149
54	19
61	51
62	121
63	181
64	102
65	112
69	33
70	130
73	130
74	33
75	200
76	186
77	237
78	163
79	74
81	51
82	98
83	344
85	298
86	56
87	47
88	126
89	386
90	135
91	377
92	88
94	107
95	84
97	33
99	33
100	88
101	205
102	558
103	214
104	37
105	56
107	60
108	93
109	484
110	19
111	88
112	47
113	93
114	293
115	479
116	158
117	144
119	19
121	79
122	93
123	191
124	56
125	84
126	79
127	121
128	102
129	79
130	172
131	233
132	186
133	65
137	42
138	172
139	126
140	191
141	88
142	93
143	56
144	102
145	93
146	298
151	84
152	70
153	42
154	242
155	47
156	102
157	60
158	172
159	112
160	65
162	47
163	84
164	107
165	181
166	121
167	60
168	74
170	88
171	60
172	107
174	51
175	56
176	228
177	121
178	219
179	56
180	102
184	65
185	98
186	42
189	135
190	177
191	126
192	223
193	79
194	47
195	60
196	33
198	37
199	56
200	102
201	186
202	65
203	172
204	261
205	279
206	121
207	93
208	28
212	33
213	47
214	23
215	60
216	140
217	270
218	377
219	140
220	209
221	116
222	19
225	19
226	33
227	65
228	84
229	98
230	191
231	219
232	456
233	721
234	423
235	79
236	70
237	19
243	51
244	126
245	223
246	451
247	382
248	1252
249	1024
250	214
251	37
258	56
259	126
260	624
261	586
262	721
263	228
264	596
265	219
266	51
268	47
272	74
273	112
274	205
275	256
276	954
277	558
278	214
279	251
280	84
282	84
286	56
288	28
289	84
290	856
291	619
292	9999
293	1908
294	377
295	42
296	37
297	9
298	28
304	98
305	102
306	3560
307	3755
308	721
309	195
310	51
