Mass Spectrum: Benzamide, N-propyl-
Formula: C10 H13 N O
CAS: 10546-70-0
Molecular weight: 163
Origin: CARL DJERASSI DEPT OF CHEM STANFORD UNIV STANFORD CALIF 94305
m/z	RELATIVE INTENSITY
41	200
43	100
45	100
50	300
51	1100
52	100
74	100
75	100
76	200
77	3500
78	300
79	100
104	100
105	9999
106	800
122	200
134	500
135	200
148	100
162	400
163	2500
164	300
