Mass Spectrum: Sulfur dichloride
Formula: Cl2 S
CAS: 10545-99-0
Molecular weight: 102
m/z	RELATIVE INTENSITY
16	70
32	1822
34	80
35	1491
37	470
48	60
51	410
52	280
53	60
64	751
65	20
66	70
67	9999
68	80
69	3693
70	440
71	150
72	260
102	6085
103	50
104	5195
105	40
106	1011
108	30
