Mass Spectrum: Benzoic acid, 4-(methylamino)-
Formula: C8 H9 N O2
CAS: 10541-83-0
Molecular weight: 151
Origin: Japan AIST/NIMC Database- Spectrum MS-NW-2416
m/z	RELATIVE INTENSITY
14	10
15	149
16	10
17	20
18	70
25	10
26	50
27	239
28	339
29	40
30	449
31	10
36	10
37	169
38	369
39	909
40	109
41	189
42	289
43	40
44	70
45	229
46	60
49	60
50	629
51	679
52	379
53	249
54	129
55	109
56	10
58	30
59	20
60	50
61	339
62	269
63	639
64	479
65	759
66	279
67	109
68	50
69	10
73	60
74	309
75	299
76	329
77	1609
78	649
79	1199
80	189
81	139
82	20
84	10
87	10
88	30
89	40
90	169
91	339
92	99
93	139
94	70
95	10
102	30
103	70
104	489
105	419
106	1429
107	179
108	189
109	40
117	20
118	119
119	20
122	119
123	40
132	159
133	30
134	4519
135	429
136	60
148	339
149	209
150	5199
151	9999
152	909
153	70
