Mass Spectrum: Isoxazole, trimethyl-
Formula: C6 H9 N O
CAS: 10557-82-1
Molecular weight: 111
m/z	RELATIVE INTENSITY
42	7206
43	8508
44	400
54	4404
55	5805
56	400
68	8508
69	601
82	2302
83	200
96	8608
97	1802
98	200
110	1601
111	9999
112	801
