Mass Spectrum: 1,3,5-Triazine, hexahydro-1,3,5-tris(1-methylethyl)-
Formula: C12 H27 N3
CAS: 10556-98-6
Molecular weight: 213
Origin: E. SCHUMACHER INORG. CHEM. INST., UNIV., ZURICH, SWITZERLAND
m/z	RELATIVE INTENSITY
41	1990
42	6310
43	5420
44	830
55	1160
56	9999
57	2120
70	1740
71	2810
72	4280
84	130
85	2860
100	290
127	4520
141	540
142	3260
212	830
213	620
