Mass Spectrum: 2-Pentene, 2,3-dimethyl-
Formula: C7 H14
CAS: 10574-37-5
Molecular weight: 98
Origin: Japan AIST/NIMC Database- Spectrum MS-NW-4828
m/z	RELATIVE INTENSITY
14	20
15	219
26	90
27	1409
28	90
29	1279
30	30
31	129
36	20
37	50
38	109
39	1789
40	339
41	6529
42	509
43	1889
44	60
45	90
46	10
49	10
50	129
51	249
52	119
53	759
54	229
55	9999
56	1369
57	459
58	179
59	889
60	30
61	10
62	30
63	60
64	10
65	169
66	70
67	729
68	159
69	2109
70	449
71	99
72	20
73	10
74	20
77	90
78	20
79	149
80	20
81	419
82	90
83	8289
84	569
85	479
86	30
91	10
95	30
96	70
97	90
98	3779
99	409
100	40
