Mass Spectrum: 4H-1,2,4-Triazole, 4-methyl-
Formula: C3 H5 N3
CAS: 10570-40-8
Molecular weight: 83
m/z	RELATIVE INTENSITY
26	750
27	6399
28	2600
29	300
30	150
38	100
39	200
40	550
41	550
42	2700
43	100
53	300
54	150
55	1500
56	700
83	9999
84	450
