Mass Spectrum: Hex-4-yn-3-one
Formula: C6 H8 O
CAS: 10575-41-4
Molecular weight: 96
Origin: ASES Database, Dalian Institute, P.R. China
m/z	RELATIVE INTENSITY
29	510
37	300
38	500
39	1901
41	300
43	200
66	200
67	9999
68	600
81	390
95	200
96	700
