Mass Spectrum: Stigmast-4-en-3-one
Formula: C29 H48 O
CAS: 1058-61-3
Molecular weight: 412
Origin: S.HAYASHI, DEPT. OF CHEM., HIROSHIMA UNIV., HIROSHIMA, JAPAN.
m/z	RELATIVE INTENSITY
27	510
28	700
29	1090
39	660
40	170
41	3660
42	560
43	5670
44	510
53	790
54	200
55	5060
56	810
57	2920
58	220
65	400
66	200
67	2140
68	530
69	2830
70	350
71	1520
77	1210
78	300
79	2400
80	420
81	2750
82	610
83	1700
84	420
85	1110
91	2320
92	480
93	2220
94	830
95	3080
96	610
97	1550
98	300
99	280
103	200
105	1990
106	690
107	2380
108	770
109	2120
110	490
111	860
115	350
117	610
118	250
119	1450
120	740
121	2070
122	1260
123	2120
124	9999
125	1210
128	260
129	280
131	830
132	350
133	1510
134	1010
135	2000
136	940
137	1230
138	400
139	200
141	250
143	360
145	770
146	400
147	2070
148	1350
149	2380
150	400
157	350
159	750
160	400
161	880
162	360
163	610
171	300
173	630
174	510
175	790
176	350
177	460
185	320
187	730
188	280
189	400
191	300
201	460
202	350
203	340
211	300
213	280
215	300
227	300
229	3440
230	1010
231	400
243	300
244	460
245	610
253	230
257	410
269	510
270	350
271	1160
272	400
275	710
288	910
289	1820
290	360
298	400
299	430
313	250
314	380
327	380
328	200
355	350
356	300
367	200
370	1110
371	350
397	400
398	830
399	200
410	560
411	200
412	3940
413	1260
414	200
