Mass Spectrum: Cholesta-5,7-dien-3-ol, acetate, (3.beta.)-
Formula: C29 H46 O2
CAS: 1059-86-5
Molecular weight: 426
Origin: LAC, NIDDK, NIH, Bethesda, MD 20892
m/z	RELATIVE INTENSITY
41	2269
43	9999
44	224
45	35
49	7
51	27
52	8
53	443
54	57
55	2368
57	1325
58	59
61	60
65	97
66	67
67	961
68	271
69	1229
71	754
72	34
77	353
78	53
79	1188
81	2118
82	331
83	362
84	31
85	109
91	607
92	91
93	626
94	214
95	954
96	44
97	560
98	47
99	39
103	51
104	25
105	579
106	126
107	632
108	146
109	477
110	117
111	144
112	8
113	16
115	108
116	52
117	248
118	81
119	278
120	53
121	300
122	99
123	270
124	72
125	68
127	34
128	110
129	175
130	84
131	325
132	94
133	333
134	310
135	386
136	72
137	71
138	7
139	24
141	214
142	157
143	1280
144	273
145	689
146	147
147	201
148	16
149	135
150	34
151	87
152	108
153	47
154	11
155	147
156	74
157	540
158	1589
159	576
160	133
161	192
162	55
163	93
164	7
165	41
166	15
167	52
168	51
169	213
170	98
171	200
172	84
173	116
174	39
175	83
176	25
177	41
179	37
180	16
181	61
182	36
183	184
184	66
185	143
186	39
187	80
189	47
191	33
193	44
194	44
195	97
196	65
197	279
198	222
199	278
200	52
201	28
203	33
205	31
206	62
207	37
209	58
210	10
211	354
212	288
213	136
214	36
215	40
217	15
219	33
221	59
222	7
223	47
224	27
225	80
226	70
227	73
228	7
229	16
231	27
233	17
235	7
237	65
238	40
239	60
240	23
241	26
243	24
245	14
247	25
249	27
251	87
252	65
253	469
254	95
255	7
256	14
257	23
258	26
259	51
261	7
264	29
265	30
266	15
267	40
269	17
275	14
280	8
281	29
285	40
294	23
295	7
308	7
311	7
315	38
323	33
324	7
325	34
337	17
349	56
350	33
351	305
352	72
355	28
363	42
364	92
365	354
366	9794
367	2896
368	373
369	32
370	52
380	107
381	55
382	38
383	39
398	46
399	27
426	26
