Mass Spectrum: Tetramethylfuran
Formula: C8 H12 O
CAS: 10599-58-3
Molecular weight: 124
Origin: F. TURECEK,HEYROVSKY INST PHYS CHEM & ELECTROCHEM,PRAGUE,CZECH
m/z	RELATIVE INTENSITY
26	100
27	1190
28	80
29	220
32	80
38	160
39	1520
40	260
41	1030
42	140
43	6980
44	200
50	420
51	990
52	400
53	1580
54	180
55	440
61	200
62	220
63	320
64	60
65	530
66	180
67	690
69	60
78	1070
80	2330
81	300
82	4650
83	300
91	160
93	100
95	300
107	180
108	140
109	8370
110	690
122	280
123	9999
124	9300
125	870
