Mass Spectrum: 2,5-Dimethyl-4-methoxyphenylacetonitrile
Formula: C11 H13 N O
CAS: 105909-12-4
Molecular weight: 175
Origin: NIST Mass Spectrometry Data Center, 1994
m/z	RELATIVE INTENSITY
15	1496
18	70
26	134
27	860
28	401
29	313
30	70
31	106
32	13
37	103
38	412
39	2360
40	413
41	650
42	77
43	132
45	33
50	673
51	1546
52	583
53	560
54	122
55	152
57	67
58	67
59	89
60	26
61	88
62	394
63	1178
64	551
65	1476
66	390
67	165
72	33
74	238
75	326
76	418
77	2038
78	823
79	938
80	222
86	62
87	192
88	213
89	855
90	485
91	2907
92	828
93	144
101	128
102	445
103	1368
104	799
105	3152
106	357
107	156
113	59
115	1110
116	1188
117	1217
118	366
119	202
120	174
121	48
127	58
128	132
130	652
131	265
132	335
133	1237
134	48
135	2784
136	313
140	61
142	101
143	176
144	517
145	189
146	59
147	286
148	1571
149	371
150	37
158	69
160	9999
161	1119
162	72
174	763
175	6955
176	891
177	69
