Mass Spectrum: 1-Propanone, 1-(5-methyl-2-furanyl)-
Formula: C8 H10 O2
CAS: 10599-69-6
Molecular weight: 138
Origin: MASS SPECTRA OF ORGANIC COMPOUNDS, V. 5, B. H. KENNETT ET AL, DIV. OF FOOD RESEARCH, CSIRO, AUSTRALIA
m/z	RELATIVE INTENSITY
26	600
27	3200
29	1700
37	100
38	400
39	600
40	100
41	300
42	200
43	1300
50	500
51	900
52	800
53	3000
54	300
55	300
56	100
57	500
65	100
77	100
79	100
80	100
81	300
82	100
95	100
108	100
109	9999
110	1000
111	100
138	2600
139	300
