Mass Spectrum: 3-Acetyl-2,5-dimethyl furan
Formula: C8 H10 O2
CAS: 10599-70-9
Molecular weight: 138
Origin: NIST Mass Spectrometry Data Center
m/z	RELATIVE INTENSITY
13	20
14	130
15	1211
18	10
19	10
26	140
27	470
28	10
29	40
37	110
38	210
39	801
40	150
41	510
43	9869
44	220
47	20
48	20
49	120
50	841
51	1001
52	641
53	1712
54	110
55	80
60	10
61	140
62	170
63	200
64	40
65	280
66	100
67	500
68	30
69	80
73	20
74	30
75	20
77	170
78	50
79	150
81	3123
82	150
83	10
91	60
93	60
94	240
95	1001
96	90
105	10
107	10
108	20
109	120
110	10
119	40
120	10
123	9999
124	761
125	60
138	4794
139	440
140	30
