Mass Spectrum: Citronellol
Formula: C10 H20 O
CAS: 106-22-9
Molecular weight: 156
Origin: NIST Mass Spectrometry Data Center
m/z	RELATIVE INTENSITY
15	120
16	10
17	20
18	70
19	80
25	10
26	80
27	1732
28	390
29	1672
30	80
31	2833
32	40
33	10
37	20
38	80
39	2502
40	540
41	9428
42	931
43	1982
44	260
45	370
46	10
49	10
50	90
51	310
52	150
53	1501
54	460
55	4804
56	2492
57	1111
58	90
59	60
60	10
62	20
63	80
64	20
65	410
66	190
67	5875
68	2762
69	9999
70	1682
71	2712
72	160
73	30
74	10
75	10
76	10
77	380
78	80
79	561
80	380
81	5155
82	4984
83	1261
84	260
85	270
86	250
87	50
89	10
91	240
92	30
93	230
94	230
95	4484
96	901
97	180
98	40
99	120
100	40
101	10
103	10
104	10
105	40
106	10
107	70
108	30
109	1802
110	661
111	180
112	130
113	50
114	10
115	10
117	20
119	20
121	70
123	2482
124	260
125	20
128	10
132	10
134	10
136	20
137	20
138	991
139	130
140	10
141	10
154	10
156	530
157	70
