Mass Spectrum: Propanoic acid, propyl ester
Formula: C6 H12 O2
CAS: 106-36-5
Molecular weight: 116
Origin: Chuck Anderson, Aldrich Chemical Co.
m/z	RELATIVE INTENSITY
14	34
15	156
16	3
19	6
25	10
26	348
27	2737
28	863
29	6094
30	275
31	845
32	10
36	3
37	18
38	53
39	547
40	96
41	1487
42	999
43	2047
44	76
45	51
53	11
54	3
55	96
56	165
57	9999
58	358
59	499
60	16
73	111
74	358
75	5213
76	177
77	22
86	136
87	1422
88	61
89	4
115	4
117	5
