Mass Spectrum: p-Benzoquinone
Formula: C6 H4 O2
CAS: 106-51-4
Molecular weight: 108
Origin: Japan AIST/NIMC Database- Spectrum MS-NW-1277
m/z	RELATIVE INTENSITY
12	40
13	50
14	20
18	230
24	90
25	679
26	5269
27	229
28	239
29	69
31	39
36	159
37	419
38	249
39	70
40	20
41	209
42	20
44	30
48	70
49	299
50	699
51	619
52	2299
53	1929
54	9749
55	409
56	20
60	119
61	289
62	209
63	129
64	30
69	10
73	20
74	20
77	20
78	30
79	90
80	3429
81	229
82	4219
83	179
84	20
108	9999
109	679
110	259
111	10
