Mass Spectrum: Butanoic acid, anhydride
Formula: C8 H14 O3
CAS: 106-31-0
Molecular weight: 158
Origin: Japan AIST/NIMC Database- Spectrum MS-NW-3133
m/z	RELATIVE INTENSITY
14	20
15	90
18	10
25	10
26	129
27	1309
28	109
29	229
30	10
31	10
37	50
38	80
39	559
40	109
41	1339
42	439
43	4579
44	139
45	109
53	10
54	10
55	529
56	20
57	20
60	40
69	50
70	389
71	9999
72	469
73	269
74	10
85	10
87	20
88	20
89	30
