Mass Spectrum: Ethane, 1,2-dibromo-
Formula: C2 H4 Br2
CAS: 106-93-4
Molecular weight: 186
Origin: NIST Mass Spectrometry Data Center, 1990.
m/z	RELATIVE INTENSITY
12	66
13	95
14	189
15	33
16	2
17	27
18	17
24	97
25	546
26	2920
27	9749
28	756
29	22
53	12
65	12
79	631
80	247
81	735
82	216
83	25
91	131
92	128
93	591
94	134
95	473
103	29
104	163
105	375
106	29
107	9999
108	29
109	9902
110	194
158	46
160	88
162	52
186	212
188	437
189	56
190	209
