Mass Spectrum: 1-Pentanol, 2-ethyl-4-methyl-
Formula: C8 H18 O
CAS: 106-67-2
Molecular weight: 130
Origin: M.C. HAMMING CONTINENTAL OIL CO., PONCA CITY, OKLA, USA
m/z	RELATIVE INTENSITY
13	8
14	65
15	342
16	24
17	16
18	41
19	49
20	4
24	4
25	8
26	119
27	2020
28	305
29	2082
30	86
31	1397
32	28
33	32
37	32
38	78
39	1356
40	243
41	3773
42	659
43	4321
44	202
45	251
46	8
47	4
49	8
50	49
51	103
52	45
53	305
54	127
55	2688
56	3360
57	9999
58	457
59	193
60	8
61	8
62	8
63	24
65	41
66	24
67	119
68	136
69	1447
70	795
71	251
72	74
73	70
74	8
75	4
77	24
78	8
79	24
80	8
81	37
82	49
83	1426
84	465
85	61
86	4
87	8
91	4
95	8
96	8
97	379
98	235
99	301
100	24
105	4
111	16
112	173
113	16
115	16
130	4
