Mass Spectrum: Benzenethiol, 4-chloro-
Formula: C6 H5 Cl S
CAS: 106-54-7
Molecular weight: 144
Origin: Japan AIST/NIMC Database- Spectrum MS-NW-3102
m/z	RELATIVE INTENSITY
14	50
16	10
25	10
26	30
27	30
28	139
29	10
32	20
33	30
34	30
35	20
36	60
37	209
38	209
39	379
40	30
41	20
44	70
45	629
46	10
47	40
48	20
49	109
50	559
51	299
52	40
53	129
54	379
55	20
56	10
57	159
58	279
59	70
60	70
61	179
62	249
63	619
64	80
65	839
66	50
68	40
69	869
70	60
71	99
72	319
73	499
74	389
75	739
76	119
77	109
78	10
79	80
80	20
81	199
82	429
83	109
84	289
85	99
86	40
87	30
91	10
92	40
93	70
94	20
95	50
96	10
97	30
99	399
100	1199
101	179
102	399
103	30
104	10
105	60
106	60
107	159
108	2869
109	5239
110	549
111	509
112	259
113	99
114	70
115	10
116	10
118	239
119	10
120	90
129	10
142	70
143	999
144	9999
145	1099
146	3619
147	279
148	149
149	10
