Mass Spectrum: Oxirane, [(2-propenyloxy)methyl]-
Formula: C6 H10 O2
CAS: 106-92-3
Molecular weight: 114
Origin: Japan AIST/NIMC Database- Spectrum MS-NW-5739
m/z	RELATIVE INTENSITY
12	10
13	20
14	149
15	929
16	20
25	40
26	429
27	2499
28	679
29	3519
30	519
31	3759
32	40
33	10
34	10
37	90
38	219
39	2609
40	469
41	9999
42	579
43	1279
44	359
45	429
46	20
47	10
50	10
51	10
52	10
53	70
54	119
55	1359
56	279
57	8339
58	2449
59	169
60	20
61	30
65	10
66	30
67	50
68	99
69	149
70	149
71	509
72	40
73	90
74	10
81	40
82	10
83	319
84	259
85	40
86	10
87	20
95	40
97	10
98	10
99	10
113	30
114	10
115	10
