Mass Spectrum: 2-Ethoxyethyl acrylate
Formula: C7 H12 O3
CAS: 106-74-1
Molecular weight: 144
Origin: NIST Mass Spectrometry Data Center, 1994
m/z	RELATIVE INTENSITY
4	43
14	88
15	346
16	28
19	93
25	75
26	794
27	3843
28	847
29	2290
30	28
31	3611
32	73
39	43
41	800
42	409
43	2094
44	2602
45	1437
46	48
52	15
53	145
55	9999
56	546
57	195
58	15
59	4838
60	201
61	53
65	15
68	74
69	41
70	147
71	15
72	6715
73	783
74	36
82	100
83	72
85	511
86	104
87	24
89	214
99	1208
100	438
101	289
