Mass Spectrum: 1-Propene, 3-bromo-
Formula: C3 H5 Br
CAS: 106-95-6
Molecular weight: 120
Origin: NIST Mass Spectrometry Data Center, 1990.
m/z	RELATIVE INTENSITY
12	42
13	62
14	89
15	242
17	17
24	42
25	146
26	495
27	486
36	146
37	865
38	1628
39	7204
40	1018
41	9999
42	379
79	416
80	95
81	392
82	86
91	33
92	38
93	149
94	50
95	116
104	20
105	61
106	24
107	46
117	31
118	18
120	2011
122	2005
123	63
