Mass Spectrum: 1,2-Ethanediamine, N,N'-diethyl-N,N'-dimethyl-
Formula: C8 H20 N2
CAS: 106-66-1
Molecular weight: 144
Origin: RADIAN CORP
m/z	RELATIVE INTENSITY
15	30
18	50
27	100
28	220
29	190
30	120
32	40
40	20
41	60
42	580
43	170
44	2060
45	50
54	40
55	20
56	190
57	300
58	210
59	10
70	140
71	80
72	9999
73	480
84	20
85	50
86	170
113	10
144	160
