Mass Spectrum: Decanedioic acid, dimethyl ester
Formula: C12 H22 O4
CAS: 106-79-6
Molecular weight: 230
Origin: NIST Mass Spectrometry Data Center
m/z	RELATIVE INTENSITY
14	10
15	490
16	10
26	50
27	611
28	350
29	1071
30	70
31	200
33	40
37	10
38	30
39	1131
40	260
41	3954
42	1351
43	3573
44	200
45	641
46	20
47	20
48	10
50	20
51	80
52	60
53	641
54	540
55	9999
56	1191
57	871
59	5875
60	180
61	60
62	10
63	10
64	10
65	150
66	80
67	1381
68	741
69	4154
70	761
71	410
72	100
73	1141
74	9859
75	571
76	60
77	150
78	60
79	851
80	561
81	1561
82	711
83	4704
84	5535
85	631
87	4304
88	520
89	40
91	210
92	80
93	591
94	571
95	1291
96	1511
97	6826
98	8438
99	681
100	180
101	1241
102	120
103	20
104	110
105	100
106	190
107	761
108	100
109	480
110	1181
111	1391
112	871
113	380
114	360
115	1141
116	140
117	30
118	10
119	250
120	490
121	1571
122	310
123	390
124	1401
125	9348
126	851
127	330
128	110
129	190
130	160
131	110
132	10
133	20
135	10
136	20
137	490
138	5975
139	2212
140	220
141	110
142	300
143	100
144	651
145	60
146	10
147	80
148	821
149	350
150	40
151	140
152	30
153	10
154	160
155	110
156	260
157	4694
158	480
159	40
160	10
164	10
165	150
166	4134
167	611
168	70
169	40
170	631
171	110
172	50
173	10
174	20
180	90
181	20
183	10
187	20
197	10
198	230
199	5115
200	631
201	70
202	10
231	20
