Mass Spectrum: 1,2,3-Propanetriol, 1-acetate
Formula: C5 H10 O4
CAS: 106-61-6
Molecular weight: 134
Origin: RADIAN CORP
m/z	RELATIVE INTENSITY
14	20
15	200
27	80
28	130
29	260
31	280
32	20
42	290
43	9999
44	550
45	120
55	20
56	90
57	120
60	40
61	480
73	170
74	480
86	370
103	2430
104	120
116	30
