Mass Spectrum: Butanedioic acid, dimethyl ester
Formula: C6 H10 O4
CAS: 106-65-0
Molecular weight: 146
Origin: NIST Mass Spectrometry Data Center, 1998.
m/z	RELATIVE INTENSITY
14	20
15	550
16	10
25	10
26	220
27	720
28	660
29	520
30	80
31	210
32	10
33	20
37	10
38	10
39	70
40	10
41	320
42	440
43	280
44	50
45	690
46	20
47	20
53	90
54	70
55	6259
56	660
57	690
58	120
59	4820
60	120
61	20
68	20
69	10
71	20
72	50
73	10
74	40
75	10
81	10
82	20
83	70
84	50
85	140
86	150
87	1960
88	120
89	10
91	10
99	80
101	110
102	10
114	2840
115	9999
116	570
117	70
131	10
