Mass Spectrum: Hexanoic acid, methyl ester
Formula: C7 H14 O2
CAS: 106-70-7
Molecular weight: 130
Origin: NIST Mass Spectrometry Data Center
m/z	RELATIVE INTENSITY
14	10
15	150
26	70
27	621
28	200
29	681
30	30
31	110
33	20
37	10
38	50
39	871
40	170
41	1692
42	1161
43	3753
44	190
45	250
48	10
50	20
51	20
52	20
53	210
54	80
55	1852
56	280
57	520
59	2742
60	110
61	40
62	10
63	10
66	10
67	60
68	40
69	400
70	450
71	1071
72	70
74	9999
75	591
76	60
80	40
81	40
83	80
85	10
87	4034
88	550
89	40
97	80
98	80
99	2732
100	200
101	1171
102	80
113	10
115	10
129	20
130	40
131	60
