Mass Spectrum: Hexanedioic acid, bis(2-methoxyethyl) ester
Formula: C12 H22 O6
CAS: 106-00-3
Molecular weight: 262
Origin: RADIAN CORP
m/z	RELATIVE INTENSITY
15	180
26	50
27	340
29	1470
30	70
31	880
33	30
39	310
40	20
41	850
42	590
43	1360
44	60
45	5030
46	110
53	150
54	180
55	4410
56	1040
57	190
58	9999
59	9230
60	360
61	20
67	80
68	230
69	330
70	20
71	60
72	40
73	100
74	50
75	80
77	80
81	80
82	230
83	2350
84	1120
85	190
86	290
87	50
88	70
89	60
97	80
98	90
99	540
100	170
101	440
109	40
110	10
111	9730
112	1000
113	820
114	100
115	90
118	520
125	20
126	230
127	210
128	270
129	600
130	50
131	170
132	20
140	30
141	490
142	60
143	220
145	680
146	50
155	2960
156	540
157	60
158	860
159	100
160	90
169	820
170	80
186	130
187	2320
188	230
232	40
