Mass Spectrum: Benzene, 1,4-dibromo-
Formula: C6 H4 Br2
CAS: 106-37-6
Molecular weight: 234
Origin: Chuck Anderson, Aldrich Chemical Co.
m/z	RELATIVE INTENSITY
25	40
26	90
27	39
36	146
37	854
38	1249
39	117
48	67
49	585
50	3955
51	514
52	14
60	74
61	183
62	99
63	29
72	53
73	901
74	3227
75	4809
76	2879
77	640
78	537
79	193
80	44
81	174
82	41
91	25
93	35
104	50
105	47
106	48
107	37
116	26
117	357
118	656
119	357
128	115
129	138
130	122
131	130
141	12
143	13
152	9
153	44
155	5347
156	322
157	4999
158	268
234	5221
235	284
236	9999
237	397
238	5094
239	239
