Mass Spectrum: Oxirane, ethyl-
Formula: C4 H8 O
CAS: 106-88-7
Molecular weight: 72
Origin: Japan AIST/NIMC Database- Spectrum MS-NW- 923
m/z	RELATIVE INTENSITY
12	10
13	40
14	259
15	989
16	30
17	20
18	70
25	70
26	739
27	4689
28	579
29	2229
30	129
31	2139
32	60
33	10
36	20
37	219
38	429
39	3049
40	1999
41	9589
42	9999
43	979
44	349
45	389
49	30
50	99
51	60
52	20
53	139
54	80
55	99
56	119
57	2139
58	70
59	10
68	10
69	20
70	30
71	2199
72	2199
73	99
