Mass Spectrum: 2-Propenoic acid, oxiranylmethyl ester
Formula: C6 H8 O3
CAS: 106-90-1
Molecular weight: 128
Origin: NIST Mass Spectrometry Data Center, 1998.
m/z	RELATIVE INTENSITY
14	20
15	80
25	30
26	270
27	1420
28	150
29	480
30	40
31	410
37	20
38	30
39	90
40	20
41	80
42	180
43	270
44	80
45	170
46	10
52	10
53	100
54	80
55	9999
56	870
57	90
58	10
68	40
69	40
70	180
71	40
72	30
73	180
74	10
81	10
82	10
83	10
85	70
86	10
97	20
98	60
99	10
127	20
