Mass Spectrum: Octanoic acid, ethyl ester
Formula: C10 H20 O2
CAS: 106-32-1
Molecular weight: 172
Origin: Japan AIST/NIMC Database- Spectrum MS-NW- 440
m/z	RELATIVE INTENSITY
15	40
17	10
18	30
26	80
27	989
28	239
29	2269
30	60
31	90
32	10
38	10
39	449
40	99
41	1769
42	569
43	1669
44	139
45	919
46	30
47	20
50	10
51	20
53	109
54	80
55	1249
56	329
57	2859
58	129
59	149
60	2349
61	1729
62	40
65	10
67	139
68	60
69	509
70	1379
71	129
73	1909
74	309
75	60
77	20
79	20
80	40
81	80
82	109
83	389
84	389
85	80
86	20
87	389
88	9999
89	719
90	70
95	10
96	20
97	229
98	299
99	40
101	3539
102	319
103	40
105	10
107	10
108	20
109	139
110	20
111	40
115	719
116	70
124	10
125	129
126	20
127	2659
128	259
129	689
130	90
143	369
144	60
145	169
157	40
172	239
173	40
