Mass Spectrum: Piperazine, 1,4-dimethyl-
Formula: C6 H14 N2
CAS: 106-58-1
Molecular weight: 114
Origin: Japan AIST/NIMC Database- Spectrum MS-NW-1040
m/z	RELATIVE INTENSITY
14	20
15	569
26	90
27	369
28	459
29	139
30	219
31	20
39	60
40	70
41	359
42	3489
43	9999
44	2289
45	70
52	40
53	20
54	199
55	209
56	1169
57	699
58	1009
59	90
67	20
68	50
69	30
70	1759
71	2829
72	309
73	10
80	10
81	20
82	40
83	70
84	40
85	189
86	60
95	30
96	20
97	129
98	80
99	439
100	40
111	30
112	60
113	249
114	5359
115	399
116	10
