Mass Spectrum: 1,4-Benzenediamine
Formula: C6 H8 N2
CAS: 106-50-3
Molecular weight: 108
Origin: NIST Mass Spectrometry Data Center, 1998.
m/z	RELATIVE INTENSITY
27	270
29	90
37	110
38	170
39	380
40	260
41	400
42	180
50	190
51	330
52	1430
53	1620
54	1470
55	180
61	150
62	120
63	320
64	200
65	230
66	170
67	270
78	220
79	230
80	3830
81	1720
82	250
90	140
91	300
92	70
105	160
106	200
107	2570
108	9999
109	830
