Mass Spectrum: Ethyl 3,3-diethoxypropionate
Formula: C9 H18 O4
CAS: 10601-80-6
Molecular weight: 190
Origin: Chuck Anderson, Aldrich Chemical Co.
m/z	RELATIVE INTENSITY
14	32
15	326
16	11
25	3
26	126
27	1486
28	326
29	5224
30	167
31	619
32	11
36	3
39	13
41	85
42	399
43	2297
44	912
45	968
46	23
47	2702
48	26
49	8
53	2
54	8
55	150
56	13
57	19
59	36
60	213
61	163
69	45
70	65
71	3400
72	394
73	178
75	3265
76	98
77	12
85	3
86	3
87	388
88	76
89	2319
90	70
91	11
98	7
99	115
100	34
101	83
102	46
103	9999
104	501
105	90
115	1052
116	75
117	2544
118	126
119	14
129	19
133	222
134	8
144	30
145	4211
146	411
147	39
161	754
162	46
163	4
189	4
