Mass Spectrum: Benzenemethanol, 2-chloro-.alpha.-(4-chlorophenyl)-.alpha.-(trichloromethyl)-
Formula: C14 H9 Cl5 O
CAS: 10606-46-9
Molecular weight: 368
Origin: S.M. Lee, CA Export Lab. Services, CA, USA
m/z	RELATIVE INTENSITY
51	400
62	100
63	230
73	130
74	380
75	1581
76	671
77	290
82	240
83	801
84	140
85	691
86	190
87	330
90	250
93	130
98	160
99	250
100	90
101	70
104	230
105	170
108	120
109	110
110	290
111	3483
112	611
113	1321
114	220
117	210
119	190
123	290
124	110
125	170
139	9999
140	821
141	3253
142	280
150	140
151	110
152	340
163	320
164	190
165	120
176	170
199	641
200	120
201	220
215	350
217	130
233	150
234	160
235	150
246	260
248	180
250	1411
251	6726
252	1802
253	4224
254	781
255	741
262	310
264	210
