Mass Spectrum: 1H-Indole, 1-ethyl-
Formula: C10 H11 N
CAS: 10604-59-8
Molecular weight: 145
m/z	RELATIVE INTENSITY
51	550
52	150
62	220
63	901
64	230
65	250
76	220
77	1301
89	2352
90	851
91	300
101	200
102	400
103	701
104	150
114	400
115	701
116	651
117	150
128	400
129	200
130	9999
131	1451
143	280
145	5005
146	751
