Mass Spectrum: 3-Hepten-1-ol
Formula: C7 H14 O
CAS: 10606-47-0
Molecular weight: 114
Origin: NIST Mass Spectrometry Data Center, 1990.
m/z	RELATIVE INTENSITY
26	245
27	1771
28	497
29	1488
30	245
31	1835
32	8
38	290
39	2788
40	606
41	5405
42	1324
43	1210
44	377
45	144
50	277
51	495
52	240
53	1338
54	2563
55	9999
56	1637
57	1206
58	142
63	121
65	371
66	290
67	2713
68	1719
69	1109
70	437
71	305
72	144
77	204
79	557
81	5926
82	498
83	662
84	244
85	153
86	295
95	280
96	2090
97	176
114	229
