Mass Spectrum: Bis(3,4-dichlorophenylthio)methane
Formula: C13 H8 Cl4 S2
CAS: 106241-40-1
Molecular weight: 368
Origin: NIST Mass Spectrometry Data Center, 1994
m/z	RELATIVE INTENSITY
18	66
35	62
36	124
37	112
38	130
39	130
45	9999
46	579
47	507
48	30
49	71
50	359
51	186
57	108
58	58
60	37
61	157
62	359
63	663
64	47
69	628
70	56
71	96
72	87
73	365
74	562
75	1013
76	92
77	247
78	26
79	192
81	261
82	202
83	115
84	268
85	239
86	125
87	105
89	36
92	52
93	80
94	62
95	50
96	58
97	252
98	50
99	124
103	67
105	130
106	241
107	507
108	150
109	1049
110	273
111	632
112	300
113	129
114	83
115	30
116	57
117	40
118	35
119	79
120	167
121	774
122	87
123	140
124	32
133	272
134	34
135	161
137	35
142	1304
143	226
144	519
145	259
146	109
147	147
148	56
149	54
155	656
156	754
157	310
158	278
159	197
160	36
161	95
176	88
177	445
178	157
179	292
180	82
181	58
187	25
189	124
191	8480
192	824
193	5633
194	541
195	1148
196	93
197	48
368	1391
369	288
370	1865
371	285
372	947
373	179
374	287
375	44
376	43
