Mass Spectrum: Undecanedioic acid, 2TMS derivative
Formula: C17 H36 O4 Si2
CAS: 106450-25-3
Molecular weight: 360
Origin: G.S. KING, CHEM. PATHOL. DEP., QUEEN CHARLOTTE'S HOSP., LONDON,
m/z	RELATIVE INTENSITY
40	120
41	880
42	120
43	920
44	440
45	1080
47	520
55	2800
56	240
57	400
58	160
59	280
61	400
67	680
68	80
69	1680
70	80
71	160
72	320
73	9999
74	760
75	6840
76	480
77	600
79	520
81	560
83	800
84	160
85	200
89	120
91	160
93	680
95	560
96	120
97	720
98	280
99	120
101	80
103	80
105	400
107	320
109	240
110	120
111	320
112	80
116	480
117	2200
118	160
119	240
121	560
129	1720
130	200
131	320
132	280
133	400
134	80
135	680
136	80
137	80
139	800
143	160
145	520
146	80
147	1800
148	280
149	1480
150	160
151	280
152	400
153	160
156	120
157	160
159	120
161	80
162	80
163	80
169	80
170	240
171	200
173	320
180	200
181	200
185	80
187	120
199	560
200	120
201	80
202	120
204	1200
205	240
206	240
207	80
213	240
217	1680
218	400
219	160
227	400
228	80
229	2120
230	360
231	160
237	160
269	120
273	80
301	280
329	800
330	160
345	5040
346	1280
347	480
