Mass Spectrum: Butanedioic acid, ethyl phenylmethyl ester
Formula: C13 H16 O4
CAS: 106478-00-6
Molecular weight: 236
Origin: E. Dziwinski, Inst. Heavy Org. Synth. Blachownia, Kedzierzyn-Kozle, Poland
m/z	RELATIVE INTENSITY
39	400
41	300
51	500
55	900
56	1600
63	300
65	1200
73	700
74	800
77	700
79	800
89	500
90	900
91	9999
92	1100
101	4800
102	1700
105	700
107	3500
108	700
121	100
129	4200
130	400
162	600
190	300
191	100
208	400
236	400
