Mass Spectrum: Silanol, trimethyl-
Formula: C3 H10 O Si
CAS: 1066-40-6
Molecular weight: 90
Origin: James Shoemaker, St. Louis Online Library of Metabolic Mass Spectra
m/z	RELATIVE INTENSITY
15	689
28	369
29	269
30	50
31	99
41	70
42	149
43	449
44	99
45	2459
46	199
47	1269
48	60
49	40
50	10
51	10
52	10
53	60
54	20
55	50
56	30
57	60
58	30
59	299
60	149
61	269
62	20
63	10
64	10
65	10
66	10
67	10
68	10
69	10
70	10
71	10
72	40
73	139
74	99
75	9999
76	639
77	359
89	10
90	40
91	10
92	10
