Mass Spectrum: Stannane, chlorotrimethyl-
Formula: C3 H9 Cl Sn
CAS: 1066-45-1
Molecular weight: 200
Origin: Japan AIST/NIMC Database- Spectrum MS-NW-3022
m/z	RELATIVE INTENSITY
12	10
13	30
14	90
15	449
16	20
17	20
18	49
26	20
27	99
28	50
29	50
32	20
35	30
36	109
37	10
38	30
44	20
112	40
113	10
114	20
115	20
116	579
117	459
118	1039
119	599
120	1349
121	369
122	179
123	50
124	229
125	70
126	10
127	70
128	30
129	139
130	259
131	1109
132	819
133	1759
134	919
135	2049
136	80
137	329
138	70
139	359
140	10
141	10
142	70
143	20
144	40
145	50
146	739
147	449
148	1219
149	509
150	1609
151	969
152	569
153	1889
154	819
155	2649
156	179
157	1019
158	10
159	489
160	70
161	2309
162	1309
163	3879
164	1529
165	5199
166	619
167	869
168	1109
169	1119
170	1459
171	169
172	549
173	30
174	269
175	10
176	70
177	239
179	249
180	99
181	3689
182	2029
183	7109
184	2879
185	9999
186	919
187	3739
188	90
189	1779
190	40
191	459
192	20
195	60
196	119
197	159
198	209
199	229
200	299
201	149
202	109
203	50
204	50
205	30
206	10
