Mass Spectrum: Silane, chlorodimethyl-
Formula: C2 H7 Cl Si
CAS: 1066-35-9
Molecular weight: 94
Origin: NIST Mass Spectrometry Data Center, 1994
m/z	RELATIVE INTENSITY
15	3954
16	88
25	63
26	221
27	543
28	63
29	1310
30	260
31	1167
33	37
35	248
36	147
37	111
38	66
40	274
41	1277
42	2404
43	4850
44	454
45	193
47	55
48	64
49	82
50	20
53	819
54	198
55	321
56	20
57	493
58	20
59	7318
60	576
61	288
62	20
63	4432
64	887
65	3002
66	322
67	529
68	36
69	16
73	9
75	63
76	236
77	559
78	2148
79	7611
80	1168
81	2670
82	185
83	95
93	9999
94	1166
95	3454
96	261
97	129
