Mass Spectrum: Silane, butyltrimethoxy-
Formula: C7 H18 O3 Si
CAS: 1067-57-8
Molecular weight: 178
Origin: RADIAN CORP
m/z	RELATIVE INTENSITY
27	60
28	310
29	110
31	20
32	140
39	40
40	20
41	50
45	110
46	10
47	70
55	10
58	20
59	550
60	160
61	540
62	40
63	30
74	60
75	60
76	40
77	170
78	10
85	10
87	30
88	20
89	20
90	370
91	3200
92	270
93	140
104	70
105	30
107	80
115	30
117	60
118	30
119	30
121	9999
122	940
123	550
124	20
136	40
147	40
149	110
178	40
