Mass Spectrum: Dibutyltin diacetate
Formula: C12 H24 O4 Sn
CAS: 1067-33-0
Molecular weight: 352
Origin: Japan AIST/NIMC Database- Spectrum MS-NW-2707
m/z	RELATIVE INTENSITY
12	40
13	109
14	349
15	1059
16	119
17	10
18	30
24	10
25	50
26	269
27	1389
28	419
29	3689
30	80
31	129
32	40
37	40
38	80
39	1009
40	169
41	4099
42	699
43	4399
44	249
45	2969
46	30
47	40
49	20
50	99
51	90
52	40
53	169
54	70
55	579
56	979
57	4749
58	239
59	10
60	2139
61	139
62	10
63	10
65	10
67	10
69	20
70	10
71	30
72	20
73	90
74	10
75	20
77	20
78	20
79	269
80	20
81	70
82	10
84	40
85	10
87	10
91	90
92	30
94	10
96	10
100	10
105	10
106	20
112	10
113	10
115	10
116	139
117	259
118	329
119	389
120	429
121	409
122	50
123	60
124	50
125	70
129	60
130	30
131	80
132	99
133	889
134	549
135	1429
136	549
137	1869
138	40
139	339
140	10
141	319
143	30
144	10
145	40
146	20
147	60
148	20
149	50
150	10
151	40
152	10
153	40
154	10
155	60
157	30
159	20
161	20
162	10
163	20
164	10
165	10
167	10
169	20
171	319
172	20
173	369
174	219
175	4599
176	2479
177	7739
178	2809
179	9999
180	279
181	1589
182	50
183	1729
184	50
185	30
189	20
190	10
191	30
192	20
193	60
194	40
195	80
196	40
197	99
198	30
199	90
200	10
201	60
203	50
204	20
205	60
206	30
207	90
208	10
209	30
210	20
211	70
212	30
213	70
214	20
215	70
216	10
217	30
218	10
219	50
220	30
221	80
222	30
223	90
225	20
227	20
228	10
229	70
230	50
231	149
232	109
233	229
234	199
235	589
236	489
237	859
238	449
239	1009
240	90
241	149
242	30
243	169
244	10
245	10
247	10
248	10
249	30
250	20
251	80
252	40
253	109
254	40
255	109
256	30
257	60
258	20
259	60
260	20
261	50
262	20
263	50
264	20
265	60
266	20
267	99
268	40
269	139
270	50
271	139
272	20
273	60
274	10
275	30
277	10
279	10
281	10
283	10
285	90
286	10
287	229
288	60
289	1269
290	829
291	4169
292	2319
293	6649
294	2179
295	6109
296	589
297	1229
298	129
299	999
300	90
301	10
307	10
309	20
311	60
312	30
313	99
314	40
315	139
316	30
317	80
318	10
319	50
320	20
321	60
322	20
323	60
324	10
325	40
326	20
327	50
328	20
329	50
331	10
333	10
