Mass Spectrum: Methyl diethylphosphonoacetate
Formula: C7 H15 O5 P
CAS: 1067-74-9
Molecular weight: 210
Origin: NIST Mass Spectrometry Data Center
m/z	RELATIVE INTENSITY
12	20
13	20
14	130
15	2292
17	20
18	60
19	30
26	591
27	3603
28	741
29	6626
30	350
31	871
33	300
39	90
42	5645
43	4224
44	360
45	1902
47	1792
48	581
49	360
50	50
54	70
55	180
57	120
58	70
59	90
60	40
61	270
62	90
63	150
65	2813
66	30
67	20
68	60
69	80
71	30
74	5805
75	520
76	80
77	280
78	1141
79	671
80	490
81	4034
82	190
83	50
89	50
91	1521
92	170
93	1221
95	5075
96	1181
97	781
98	20
99	70
105	2112
106	621
107	150
109	3293
110	170
111	260
112	80
113	520
119	530
120	60
121	280
122	1471
123	9999
124	671
125	370
126	30
127	40
131	30
134	40
135	70
137	4644
138	581
139	140
141	80
149	200
151	2953
152	520
153	90
155	4834
156	200
157	40
165	1962
166	1371
167	100
179	2062
180	170
181	50
183	8848
184	480
185	100
209	50
210	240
211	50
