Mass Spectrum: Pentane, 3-ethyl-3-methyl-
Formula: C8 H18
CAS: 1067-08-9
Molecular weight: 114
Origin: Japan AIST/NIMC Database- Spectrum MS-NW-3698
m/z	RELATIVE INTENSITY
15	40
26	50
27	909
28	30
29	1129
30	20
38	20
39	559
40	70
41	1879
42	179
43	9999
44	329
45	20
50	30
51	60
52	20
53	189
54	50
55	669
56	259
57	3209
58	139
63	10
65	30
67	60
68	10
69	629
70	70
71	60
77	10
83	40
84	1849
85	7189
86	499
87	20
98	20
99	209
100	10
