Mass Spectrum: Butanenitrile, 4-(triethoxysilyl)-
Formula: C10 H21 N O3 Si
CAS: 1067-47-6
Molecular weight: 231
Origin: RADIAN CORP
m/z	RELATIVE INTENSITY
26	20
27	170
28	30
29	430
31	40
39	70
40	30
41	460
42	210
43	100
45	930
46	50
47	70
52	10
54	30
55	20
58	20
59	60
60	30
61	130
62	550
63	1280
64	90
65	70
66	40
67	10
68	100
69	30
71	80
72	70
73	730
74	100
75	110
76	230
77	380
78	40
79	3110
80	180
81	120
85	110
86	190
87	270
88	400
89	830
90	230
91	1080
92	70
93	100
96	30
97	10
98	10
99	50
100	60
101	370
102	2200
103	570
104	160
105	280
106	20
107	1260
108	80
109	50
112	140
113	220
114	200
115	150
116	100
117	380
118	150
119	3920
120	380
121	170
127	10
128	90
129	60
130	1030
131	230
132	90
133	180
134	20
135	1000
136	90
137	30
141	110
142	50
143	90
144	150
145	210
146	30
147	760
148	80
149	40
156	30
157	30
158	2660
159	560
160	210
161	70
162	50
163	9999
164	1170
165	450
166	20
170	40
172	100
174	80
175	120
176	30
184	40
185	160
186	4060
187	500
202	1350
203	1500
204	240
205	60
