Mass Spectrum: Phosphoramidic acid, diethyl ester
Formula: C4 H12 N O3 P
CAS: 1068-21-9
Molecular weight: 153
Origin: NIST Mass Spectrometry Data Center, 1994
m/z	RELATIVE INTENSITY
14	37
15	258
16	50
17	367
18	215
19	47
26	284
27	1077
28	399
29	1285
30	239
31	134
32	14
41	37
42	150
43	510
44	386
45	1009
46	189
47	546
48	39
62	223
63	186
64	396
65	441
80	9999
81	5011
82	857
91	76
94	53
96	266
98	9143
99	75
100	55
108	1645
109	1537
110	157
124	546
126	7223
127	235
128	54
138	192
152	137
153	602
154	42
