Mass Spectrum: Acetic acid, hydrazide
Formula: C2 H6 N2 O
CAS: 1068-57-1
Molecular weight: 74
Origin: Japan AIST/NIMC Database- Spectrum MS-NW-3033
m/z	RELATIVE INTENSITY
12	20
13	70
14	329
15	1549
16	209
17	269
18	459
25	20
26	40
27	80
28	909
29	539
30	259
31	2439
32	9999
33	80
38	80
39	139
40	399
41	809
42	559
43	5039
44	319
45	99
56	10
59	209
60	60
74	579
75	20
