Mass Spectrum: Heptane, 4,4-dimethyl-
Formula: C9 H20
CAS: 1068-19-5
Molecular weight: 128
Origin: NIST Mass Spectrometry Data Center, 1990.
m/z	RELATIVE INTENSITY
15	115
16	13
27	1716
28	217
29	1533
30	34
37	12
39	1316
40	287
41	3675
42	12
43	9340
44	328
45	7
50	34
51	101
52	44
53	334
54	86
55	913
56	1499
57	3655
58	162
62	18
63	20
65	55
66	19
67	107
68	18
69	826
70	18
71	1617
72	85
77	32
78	16
79	24
81	16
84	3352
85	9999
86	623
87	17
91	5
97	9
113	412
114	35
