Mass Spectrum: Propanedioic acid, (acetylamino)-, diethyl ester
Formula: C9 H15 N O5
CAS: 1068-90-2
Molecular weight: 217
Origin: Japan AIST/NIMC Database- Spectrum MS-IW-3885
m/z	RELATIVE INTENSITY
18	40
26	30
27	369
28	809
29	1289
30	139
31	70
41	40
42	119
43	3519
44	109
45	109
46	199
47	70
55	20
56	70
57	589
58	119
59	10
60	10
61	10
69	40
70	20
71	199
72	109
73	40
74	2229
75	99
76	10
84	20
86	20
87	10
88	109
89	10
99	2559
100	289
101	60
102	9999
103	1159
104	80
114	10
115	10
116	159
117	10
118	10
125	30
126	40
127	529
128	50
129	20
130	20
131	20
143	20
144	1199
145	1459
146	109
147	10
171	10
172	799
173	189
174	40
176	20
217	70
218	109
219	10
