Mass Spectrum: Pentane, 3-ethyl-2,4-dimethyl-
Formula: C9 H20
CAS: 1068-87-7
Molecular weight: 128
Origin: Japan AIST/NIMC Database- Spectrum MS-NW-4592
m/z	RELATIVE INTENSITY
15	40
17	10
26	20
27	699
28	30
29	589
30	20
37	10
38	30
39	509
40	90
41	1679
42	369
43	9999
44	329
50	10
51	40
52	20
53	139
54	40
55	649
56	809
57	2709
58	139
63	10
65	30
66	10
67	70
68	30
69	1539
70	199
71	469
72	20
77	10
79	10
81	10
83	90
84	2399
85	4979
86	329
87	10
97	10
98	10
99	40
128	10
