Mass Spectrum: N-Hexanoyl-DL-homoserine lactone
Formula: C10 H17 N O3
CAS: 106983-28-2
Molecular weight: 199
Origin: NIST Mass Spectrometry Data Center
m/z	RELATIVE INTENSITY
15	30
18	10
26	70
27	941
28	1001
29	1531
30	230
31	60
37	10
38	40
39	981
40	190
41	3023
42	1441
43	9759
44	911
45	120
46	20
48	10
50	20
51	50
52	50
53	270
54	470
55	2923
56	3403
57	9999
58	500
59	470
60	70
61	10
62	10
63	10
65	30
66	20
67	90
68	150
69	591
70	500
71	3023
72	571
73	120
74	500
75	20
77	10
78	10
79	20
80	90
81	100
82	80
83	1722
84	540
85	771
86	200
87	150
88	10
94	20
95	20
96	60
97	200
98	550
99	2272
100	801
101	1621
102	1231
103	70
104	10
108	10
109	10
110	40
111	10
112	110
113	80
114	80
115	420
116	50
117	10
122	10
123	10
125	1892
126	230
127	30
128	420
129	40
136	10
137	10
138	80
139	40
140	70
141	150
143	7066
144	510
145	60
152	30
153	20
154	50
155	30
156	681
157	100
158	10
166	10
168	10
169	20
170	240
171	40
180	10
181	30
182	10
184	10
198	10
199	70
200	20
