Mass Spectrum: Hexane, 2,3,5-trimethyl-
Formula: C9 H20
CAS: 1069-53-0
Molecular weight: 128
m/z	RELATIVE INTENSITY
26	30
27	1471
28	140
29	1191
30	30
37	10
38	20
39	781
40	150
41	2502
42	861
43	9999
44	350
45	10
46	10
47	10
48	10
50	10
51	30
52	20
53	180
54	50
55	751
56	941
57	2282
58	100
59	10
63	10
64	10
65	20
66	10
67	60
68	20
69	931
70	400
71	1451
72	80
73	10
77	10
78	10
79	10
80	10
81	10
82	10
83	40
84	2442
85	4054
86	250
87	10
91	10
93	10
95	10
97	10
98	10
99	10
112	10
113	20
114	10
127	10
128	160
129	10
