Mass Spectrum: N-Capryloyl-DL-homoserine lactone
Formula: C12 H21 N O3
CAS: 106983-30-6
Molecular weight: 227
Origin: NIST Mass Spectrometry Data Center
m/z	RELATIVE INTENSITY
15	10
26	30
27	420
28	430
29	861
30	120
31	30
38	10
39	450
40	100
41	2162
42	631
43	2682
44	420
45	60
46	10
50	10
51	30
52	20
53	180
54	260
55	2632
56	1842
57	9999
58	490
59	280
60	50
65	30
66	10
67	210
68	90
69	330
70	160
71	220
72	210
73	60
74	370
75	10
77	10
78	10
79	40
80	30
81	80
82	110
83	1211
84	500
85	420
86	90
87	90
88	10
91	10
93	10
94	10
95	20
96	30
97	230
98	460
99	160
100	360
101	1051
102	941
103	50
104	10
107	10
108	10
109	130
110	40
111	50
112	90
113	20
114	60
115	270
116	20
122	10
123	10
125	1241
126	260
127	530
128	380
129	30
136	10
138	70
139	30
140	20
141	30
143	4834
144	370
145	40
150	10
152	20
153	10
154	30
156	721
157	90
158	10
166	10
167	20
168	30
169	20
170	100
171	10
180	20
181	10
182	10
183	10
184	80
185	20
198	70
199	10
209	10
227	60
228	10
