Mass Spectrum: N-Methylglycine
Formula: C3 H7 N O2
CAS: 107-97-1
Molecular weight: 89
Origin: NIST Mass Spectrometry Data Center, 1998.
m/z	RELATIVE INTENSITY
15	260
18	660
27	120
28	1990
30	470
31	120
36	140
41	310
42	2360
43	740
44	9999
45	1320
60	190
89	940
