Mass Spectrum: Methane, chloromethoxy-
Formula: C2 H5 Cl O
CAS: 107-30-2
Molecular weight: 80
Origin: Japan AIST/NIMC Database- Spectrum MS-NW-4408
m/z	RELATIVE INTENSITY
12	20
13	70
14	279
15	2509
16	60
17	20
18	70
26	10
27	10
28	279
29	2799
30	419
31	259
32	129
35	149
36	159
37	50
38	50
40	20
42	30
43	50
44	139
45	9999
46	239
47	70
48	99
49	1329
50	90
51	469
52	20
53	40
61	10
63	30
65	10
78	10
79	359
80	70
81	119
82	20
