Mass Spectrum: Ethane, 1-bromo-2-chloro-
Formula: C2 H4 Br Cl
CAS: 107-04-0
Molecular weight: 142
Origin: NIST Mass Spectrometry Data Center, 1998.
m/z	RELATIVE INTENSITY
12	10
13	10
14	30
15	10
24	30
25	170
26	970
27	3240
28	170
35	120
36	50
37	50
38	20
47	70
48	80
49	460
50	30
51	140
53	10
54	10
59	20
60	150
61	490
62	590
63	9999
64	390
65	3400
66	70
79	350
80	100
81	360
82	100
83	10
91	70
92	50
93	530
94	60
95	460
96	10
103	10
104	70
105	190
106	170
107	370
108	110
109	190
114	10
116	20
127	10
129	10
140	10
141	20
142	980
143	40
144	1250
145	30
146	310
147	10
