Mass Spectrum: Sarin
Formula: C4 H10 F O2 P
CAS: 107-44-8
Molecular weight: 140
Origin: VERIFIN - Methodology B1-1979
m/z	RELATIVE INTENSITY
27	300
28	50
38	70
39	500
40	100
41	700
42	500
43	800
47	300
59	100
67	100
79	200
80	100
81	1000
82	90
83	70
84	50
98	200
99	9999
100	100
125	3302
126	100
