Mass Spectrum: 3-Mercaptopropionic acid
Formula: C3 H6 O2 S
CAS: 107-96-0
Molecular weight: 106
Origin: NIST Mass Spectrometry Data Center, 1998.
m/z	RELATIVE INTENSITY
15	30
25	110
26	710
27	3140
28	3900
29	1170
31	180
32	240
33	410
34	610
35	1260
36	90
37	30
38	30
41	20
42	1390
43	1410
44	410
45	6439
46	1890
47	5089
48	130
49	160
53	100
54	90
55	2720
56	160
57	770
58	1630
59	2370
60	7579
61	3420
62	390
63	300
72	100
73	990
74	10
75	50
78	30
87	280
88	4700
89	460
90	160
106	9999
107	280
108	500
