Mass Spectrum: Acetic acid, chloro-, 1,1-dimethylethyl ester
Formula: C6 H11 Cl O2
CAS: 107-59-5
Molecular weight: 150
Origin: RADIAN CORP
m/z	RELATIVE INTENSITY
14	160
15	640
25	10
26	210
27	1490
29	3030
30	100
31	340
35	60
37	140
38	260
39	2420
40	300
41	5690
42	1470
43	2740
44	20
45	180
47	130
48	240
49	2390
50	310
51	890
52	100
53	190
54	40
55	460
56	660
57	9999
58	740
59	8580
60	350
61	30
71	20
76	140
77	2380
78	70
79	820
135	1480
136	90
137	500
138	30
