Mass Spectrum: 2-Pentene, 2,4,4-trimethyl-
Formula: C8 H16
CAS: 107-40-4
Molecular weight: 112
Origin: Japan AIST/NIMC Database- Spectrum MS-NW-3307
m/z	RELATIVE INTENSITY
15	109
26	40
27	919
28	50
29	939
30	20
31	10
32	10
37	20
38	80
39	1199
40	169
41	2629
42	199
43	1299
44	50
45	10
46	30
49	10
50	99
51	209
52	80
53	579
54	109
55	8209
56	609
57	2129
58	109
59	20
61	10
62	30
63	60
64	10
65	119
66	60
67	319
68	50
69	1929
70	249
71	20
72	10
74	10
75	10
77	139
78	30
79	209
80	30
81	339
82	40
83	40
84	10
91	20
93	10
95	70
96	119
97	9999
98	829
99	30
110	10
112	2609
113	249
114	10
