Mass Spectrum: Chloromethyl cyanide
Formula: C2 H2 Cl N
CAS: 107-14-2
Molecular weight: 75
Origin: Japan AIST/NIMC Database- Spectrum MS-NW-1496
m/z	RELATIVE INTENSITY
12	309
13	229
14	179
24	99
25	189
26	279
27	179
28	579
29	30
30	10
35	569
36	239
37	219
38	1179
39	1319
40	4339
41	129
42	20
43	10
44	229
47	1109
48	8469
49	679
50	2649
51	139
59	20
60	40
61	30
62	10
73	229
74	449
75	9999
76	389
77	3209
78	90
