Mass Spectrum: Ethylenediamine
Formula: C2 H8 N2
CAS: 107-15-3
Molecular weight: 60
Origin: NIST Mass Spectrometry Data Center, 1998.
m/z	RELATIVE INTENSITY
14	20
15	90
16	30
17	30
18	150
25	10
26	50
27	270
28	1950
29	310
30	9999
31	280
32	50
38	50
39	70
40	250
41	510
42	1250
43	1540
44	400
45	10
52	10
53	50
54	10
55	10
56	20
57	30
58	60
59	660
60	680
61	60
