Mass Spectrum: Ethanamine, 2-chloro-N,N-dimethyl-
Formula: C4 H10 Cl N
CAS: 107-99-3
Molecular weight: 107
Origin: Japan AIST/NIMC Database- Spectrum MS-NW-5406
m/z	RELATIVE INTENSITY
14	50
15	749
17	30
18	169
25	10
26	149
27	669
28	469
29	329
30	1039
31	20
32	20
39	40
40	90
41	219
42	1879
43	539
44	759
45	40
48	10
49	80
51	30
52	30
54	80
55	90
56	449
57	379
58	9999
59	379
61	30
62	10
63	209
65	60
70	269
71	249
72	749
73	40
78	40
80	10
90	30
106	119
107	439
108	70
109	139
