Mass Spectrum: Propane, 1-iodo-
Formula: C3 H7 I
CAS: 107-08-4
Molecular weight: 170
Origin: NIST Mass Spectrometry Data Center, 1992
m/z	RELATIVE INTENSITY
12	21
13	39
14	136
15	493
16	10
24	13
25	93
26	742
27	5254
28	558
29	116
32	3
36	50
37	336
38	629
39	2752
40	626
41	5899
42	3
43	9999
44	346
45	4
63	5
127	1894
128	292
129	21
139	57
140	52
141	240
142	40
152	20
153	19
155	172
156	3
164	3
165	3
167	4
170	3845
171	130
