Mass Spectrum: 1-Butanamine, 3-methyl-
Formula: C5 H13 N
CAS: 107-85-7
Molecular weight: 87
Origin: Japan AIST/NIMC Database- Spectrum MS-NW-8300
m/z	RELATIVE INTENSITY
15	80
17	40
18	20
26	20
27	339
28	419
29	229
30	9999
31	229
32	20
39	309
40	50
41	459
42	309
43	289
44	479
45	149
50	20
51	20
52	10
53	30
54	20
55	299
56	60
57	20
58	159
59	40
69	10
70	569
71	30
72	30
86	40
87	559
88	60
