Mass Spectrum: Acetaldoxime
Formula: C2 H5 N O
CAS: 107-29-9
Molecular weight: 59
Origin: NIST Mass Spectrometry Data Center, 1992
m/z	RELATIVE INTENSITY
12	227
13	368
14	1031
15	3498
16	499
17	398
18	478
19	125
20	26
24	190
25	496
26	1606
27	2053
28	2509
29	503
30	1412
31	816
32	167
33	101
38	1236
39	1682
40	4794
41	8261
42	2760
43	689
44	5223
45	91
46	15
55	14
56	35
59	9999
60	300
61	25
