Mass Spectrum: Propyl mercaptan
Formula: C3 H8 S
CAS: 107-03-9
Molecular weight: 76
Origin: Japan AIST/NIMC Database- Spectrum MS-NW-3863
m/z	RELATIVE INTENSITY
13	10
14	50
15	289
16	20
17	90
18	449
20	10
25	50
26	469
27	4539
28	319
29	789
30	20
32	159
33	219
34	179
35	689
36	70
37	249
38	399
39	2309
40	699
41	7539
42	8449
43	9219
44	329
45	1759
46	2059
47	8789
48	1029
49	419
50	40
55	50
56	30
57	169
58	399
59	369
60	119
61	1169
62	40
63	50
64	10
66	10
68	50
69	159
70	20
71	119
72	10
73	80
74	50
75	149
76	9999
77	439
78	469
79	20
