Mass Spectrum: 1,3-Butanediol
Formula: C4 H10 O2
CAS: 107-88-0
Molecular weight: 90
Origin: Japan AIST/NIMC Database- Spectrum MS-NW-1817
m/z	RELATIVE INTENSITY
12	10
13	40
14	289
15	1509
16	60
17	99
18	449
19	419
25	30
26	439
27	2919
28	3109
29	2509
30	149
31	3419
32	60
33	10
34	20
36	10
37	99
38	169
39	1089
40	259
41	1389
42	1509
43	9999
44	2109
45	9139
46	519
47	219
49	60
50	70
51	70
52	10
53	119
54	119
55	429
56	50
57	2489
58	129
59	60
60	10
61	20
62	70
63	40
69	20
70	20
71	229
72	2559
73	149
74	10
75	759
76	20
89	30
90	10
