Mass Spectrum: Butane, 1-bromo-3-methyl-
Formula: C5 H11 Br
CAS: 107-82-4
Molecular weight: 150
Origin: Japan AIST/NIMC Database- Spectrum MS-NW- 902
m/z	RELATIVE INTENSITY
14	10
15	90
26	209
27	2169
28	359
29	1519
30	30
31	10
37	50
38	139
39	1259
40	189
41	3249
42	1289
43	9999
44	339
49	20
50	99
51	109
52	40
53	269
54	60
55	3939
56	299
57	429
58	10
59	20
62	10
63	10
67	20
69	209
70	3819
71	4619
72	239
73	10
79	40
80	60
81	40
82	70
93	70
95	70
105	10
106	20
107	209
108	20
109	189
120	10
121	50
122	20
123	40
124	20
135	80
137	70
150	179
151	20
152	169
153	10
