Mass Spectrum: Butane, 1-chloro-3-methyl-
Formula: C5 H11 Cl
CAS: 107-84-6
Molecular weight: 106
Origin: Japan AIST/NIMC Database- Spectrum MS-NW-1111
m/z	RELATIVE INTENSITY
14	30
15	139
26	199
27	2129
28	119
29	1909
30	40
31	40
32	10
35	10
36	80
37	60
38	139
39	1399
40	199
41	3919
42	3549
43	9999
44	339
45	40
49	169
50	99
51	149
52	50
53	349
54	109
55	5089
56	709
57	1409
58	70
59	119
61	50
62	99
63	409
64	40
65	129
67	90
68	30
69	639
70	4979
71	1029
72	50
73	40
75	60
76	409
77	749
78	149
79	249
81	40
82	30
83	159
84	149
85	139
86	20
87	10
89	10
90	109
91	469
92	60
93	139
94	30
105	30
106	40
107	20
108	10
