Mass Spectrum: 1-Hexyn-3-ol, 3,5-dimethyl-
Formula: C8 H14 O
CAS: 107-54-0
Molecular weight: 126
Origin: NIST Mass Spectrometry Data Center
m/z	RELATIVE INTENSITY
15	20
26	20
27	290
29	260
31	20
37	20
38	90
39	971
40	220
41	1251
42	250
43	2953
44	80
45	80
47	20
49	10
50	170
51	410
52	100
53	611
54	60
55	821
56	170
57	540
58	100
59	80
61	10
62	40
63	100
64	20
65	280
66	290
67	330
68	490
69	9999
70	721
71	150
74	10
75	10
77	400
78	60
79	80
80	10
81	110
82	20
83	190
84	871
85	80
91	340
92	30
93	380
94	30
95	50
96	20
97	20
98	10
100	10
107	20
109	10
111	1411
112	100
