Mass Spectrum: Acetamide, 2-cyano-
Formula: C3 H4 N2 O
CAS: 107-91-5
Molecular weight: 84
Origin: Japan AIST/NIMC Database- Spectrum MS-NW-1842
m/z	RELATIVE INTENSITY
12	80
13	99
14	229
15	30
16	469
17	119
18	20
24	30
25	60
26	109
27	239
28	589
29	169
30	80
38	559
39	849
40	2289
41	5729
42	359
43	419
44	9999
45	129
46	20
50	20
51	20
52	20
53	70
54	10
55	70
66	50
67	269
68	319
69	10
84	369
85	20
