Mass Spectrum: Pentane, 2-methyl-
Formula: C6 H14
CAS: 107-83-5
Molecular weight: 86
m/z	RELATIVE INTENSITY
2	10
12	10
13	10
14	50
15	480
16	20
26	160
27	2342
28	270
29	1601
30	40
32	10
39	1341
40	230
41	2903
42	5405
43	9999
44	320
53	110
54	30
55	500
56	420
57	1011
58	40
69	50
70	641
71	2672
72	140
84	10
85	70
86	330
87	20
