Mass Spectrum: 2-Propanol, 1-methoxy-
Formula: C4 H10 O2
CAS: 107-98-2
Molecular weight: 90
Origin: Japan AIST/NIMC Database- Spectrum MS-NW- 685
m/z	RELATIVE INTENSITY
14	60
15	659
16	20
17	10
18	60
19	20
26	60
27	499
28	90
29	739
30	50
31	1139
32	30
33	119
37	50
38	30
39	169
40	30
41	379
42	129
43	869
44	209
45	9999
46	489
47	2889
48	60
55	20
56	30
57	189
58	80
59	349
60	10
71	70
72	60
73	50
75	379
76	10
89	20
90	60
