Mass Spectrum: Allyl levulinate
Formula: C8 H12 O3
CAS: 1070-35-5
Molecular weight: 156
Origin: W.Jennings, T.Shibamoto
m/z	RELATIVE INTENSITY
27	80
28	530
29	320
39	621
40	90
41	7557
42	751
43	9999
44	420
45	80
51	190
54	190
55	1752
56	831
57	1151
58	1071
59	80
60	1131
63	210
68	951
69	210
70	230
71	1832
72	621
73	390
81	100
96	120
98	130
99	7086
100	731
101	290
114	220
141	250
156	120
