Mass Spectrum: Butanoic acid, 3,3-dimethyl-
Formula: C6 H12 O2
CAS: 1070-83-3
Molecular weight: 116
Origin: NIST Mass Spectrometry Data Center, 1992
m/z	RELATIVE INTENSITY
13	25
14	133
15	464
16	84
17	4
18	17
26	198
27	1785
28	744
29	2775
30	100
31	544
32	74
37	55
38	295
39	2618
40	497
41	4746
42	821
43	2541
44	128
45	1036
49	47
50	207
51	230
52	104
53	445
54	47
55	2012
56	47
57	9999
58	902
59	8890
60	2012
61	99
67	54
69	139
70	51
71	55
72	137
73	47
82	93
83	224
85	47
99	76
100	161
101	804
102	61
