Mass Spectrum: Propane, 1,1,1,3-tetrachloro-
Formula: C3 H4 Cl4
CAS: 1070-78-6
Molecular weight: 180
m/z	RELATIVE INTENSITY
13	40
14	90
15	60
24	40
25	210
26	1131
27	3263
28	931
29	20
35	671
36	1241
37	1521
38	1561
39	2312
40	110
41	20
42	10
47	1041
48	410
49	5595
50	220
51	1651
52	20
53	50
54	100
55	140
56	70
57	20
58	10
59	40
60	430
61	2002
62	280
63	9779
64	250
65	2793
66	60
70	20
71	120
72	410
73	1291
74	210
75	881
76	40
77	220
78	10
80	20
82	520
83	4734
84	390
85	3013
86	90
87	480
91	20
94	20
95	520
96	510
97	370
98	320
99	70
100	50
104	10
105	20
106	10
107	130
108	30
109	9999
110	320
111	5535
112	320
113	1031
114	70
115	10
117	1732
118	30
119	1661
120	20
121	540
123	60
129	10
130	20
131	160
132	30
133	150
134	10
135	40
143	120
144	310
145	6696
146	500
147	6316
148	210
149	1972
150	80
151	220
152	10
