Mass Spectrum: Pentane, 2,2,4,4-tetramethyl-
Formula: C9 H20
CAS: 1070-87-7
Molecular weight: 128
Origin: Japan AIST/NIMC Database- Spectrum MS-NW-4579
m/z	RELATIVE INTENSITY
15	30
18	40
26	20
27	279
28	60
29	819
30	20
37	10
38	20
39	399
40	70
41	1709
42	90
43	569
44	20
46	10
47	20
48	30
49	10
50	20
51	30
52	10
53	90
54	20
55	309
56	2569
57	9999
58	469
59	10
65	10
67	40
69	30
70	60
71	219
72	10
77	10
79	20
81	20
83	20
97	10
113	169
114	20
