Mass Spectrum: Heptane, 2,2-dimethyl-
Formula: C9 H20
CAS: 1071-26-7
Molecular weight: 128
m/z	RELATIVE INTENSITY
12	20
13	10
14	30
15	360
16	20
25	10
26	130
27	1692
28	280
29	2242
30	50
31	10
37	20
38	60
39	1131
40	190
41	3003
42	310
43	1792
44	60
45	10
46	10
47	10
48	10
49	10
50	30
51	70
52	30
53	200
54	50
55	591
56	4564
57	9999
58	440
59	10
62	10
63	10
64	10
65	20
66	10
67	50
68	10
69	130
70	100
71	1481
72	80
73	10
77	10
78	10
79	10
80	10
81	10
82	10
83	10
84	10
85	20
91	10
97	10
112	20
113	500
114	50
115	10
128	10
