Mass Spectrum: Propanenitrile, 3-(trichlorosilyl)-
Formula: C3 H4 Cl3 N Si
CAS: 1071-22-3
Molecular weight: 187
Origin: RADIAN CORP
m/z	RELATIVE INTENSITY
26	210
27	360
28	90
35	80
36	20
38	30
39	40
40	170
48	60
49	140
51	220
52	310
53	190
54	600
63	2770
64	380
65	1100
66	40
77	60
89	20
98	2150
99	490
100	1490
101	320
102	290
112	100
114	70
116	20
117	40
123	40
124	710
125	150
126	510
127	60
128	120
129	260
131	120
133	9600
134	540
135	9999
136	490
137	3500
138	150
139	420
147	160
149	190
151	140
152	320
153	50
154	180
160	440
162	460
164	120
187	7250
188	630
189	7170
190	610
191	2490
192	180
193	280
