Mass Spectrum: 2,2,7,7-Tetramethyloctane
Formula: C12 H26
CAS: 1071-31-4
Molecular weight: 170
Origin: NIST Mass Spectrometry Data Center, 1990.
m/z	RELATIVE INTENSITY
27	445
28	328
29	1244
39	677
41	3448
42	278
43	1288
44	71
51	38
53	218
55	1274
56	4931
57	9999
58	419
65	36
67	128
69	641
70	207
71	1375
72	93
83	123
85	1405
86	103
97	47
99	684
100	53
112	208
113	85
155	196
