Mass Spectrum: 2-Butynedinitrile
Formula: C4 N2
CAS: 1071-98-3
Molecular weight: 76
m/z	RELATIVE INTENSITY
12	1722
14	300
15	10
24	651
25	30
26	571
27	20
36	611
37	30
38	2793
39	90
40	60
41	100
42	10
43	10
45	10
48	210
49	10
50	1651
51	130
52	50
62	1001
63	70
76	9999
77	530
78	70
