Mass Spectrum: 3-Acetyl-1H-pyrroline
Formula: C6 H7 N O
CAS: 1072-82-8
Molecular weight: 109
Origin: Organic Synthesis Lab, MSU, Moscow.TRC 659
m/z	RELATIVE INTENSITY
26	75
27	265
29	78
33	48
37	301
38	837
39	2646
40	324
41	161
42	97
43	597
44	107
47	300
49	43
50	195
51	192
52	132
53	528
55	20
57	19
62	36
63	74
64	43
65	171
66	3348
67	319
78	27
80	123
93	223
94	9999
95	567
109	5078
110	369
