Mass Spectrum: 1H-Pyrazole, 1,3,5-trimethyl-
Formula: C6 H10 N2
CAS: 1072-91-9
Molecular weight: 110
Origin: V.A. KOPTYUG, VOL.4, ATLAS OF MASS SPECTRA OF ORGANIC COMPOUNDS
m/z	RELATIVE INTENSITY
26	190
27	670
28	920
29	220
30	160
31	180
38	270
39	1940
40	610
41	1640
42	1740
43	760
50	100
51	240
52	320
53	340
54	690
55	540
56	1310
57	240
63	200
64	100
65	670
66	450
67	680
68	1300
69	400
70	140
71	110
79	180
80	290
81	240
82	1000
83	200
93	130
94	110
95	2830
96	250
97	100
108	170
109	7710
110	9999
111	750
112	30
