Mass Spectrum: Aziridine, 1-methyl-
Formula: C3 H7 N
CAS: 1072-44-2
Molecular weight: 57
m/z	RELATIVE INTENSITY
2	50
12	160
13	290
14	871
15	4894
16	70
17	10
18	20
20	10
24	30
25	160
26	1001
27	1832
28	2692
29	510
30	571
31	30
32	10
36	10
37	10
38	140
39	210
40	651
41	1141
42	9999
43	270
44	20
47	10
50	20
51	90
52	150
53	20
54	240
55	160
56	260
57	3273
58	120
59	10
