Mass Spectrum: Heptane, 2,6-dimethyl-
Formula: C9 H20
CAS: 1072-05-5
Molecular weight: 128
m/z	RELATIVE INTENSITY
24	10
25	10
26	90
27	2402
28	320
29	1952
30	40
37	30
38	60
39	1361
40	250
41	3433
42	2652
43	9999
44	340
45	30
48	20
49	10
50	20
51	60
52	30
53	190
54	60
55	661
56	1371
57	4644
58	200
59	10
63	10
64	10
65	20
66	10
67	40
68	20
69	300
70	150
71	2432
72	130
73	10
77	10
78	10
79	10
80	10
81	10
82	10
83	10
84	370
85	1321
86	110
87	10
91	10
97	10
98	10
99	20
111	10
112	90
113	801
114	70
115	10
126	10
127	10
128	280
129	20
