Mass Spectrum: 4H-Thiopyran-4-one, tetrahydro-
Formula: C5 H8 O S
CAS: 1072-72-6
Molecular weight: 116
Origin: NIST Mass Spectrometry Data Center, 2011
m/z	RELATIVE INTENSITY
14	20
15	30
25	40
26	480
27	1491
28	3533
29	180
31	10
32	60
33	60
34	80
35	70
36	10
37	60
38	100
39	310
40	40
41	190
42	881
43	991
44	90
45	2762
46	4294
47	500
48	220
49	50
50	120
51	100
52	40
53	220
54	70
55	1211
56	160
57	520
58	1601
59	2702
60	6105
61	500
62	300
63	40
65	20
67	10
68	10
69	70
70	30
71	50
72	10
73	180
74	80
75	10
81	10
82	30
83	50
84	10
85	50
86	40
87	90
88	5115
89	240
90	240
91	10
93	10
97	20
98	10
99	10
101	10
116	9999
117	671
118	500
119	30
