Mass Spectrum: Octane, 2,7-dimethyl-
Formula: C10 H22
CAS: 1072-16-8
Molecular weight: 142
Origin: MPI,H2303-G1693,20-JUL-68 (ID=4, PURITY=4)
m/z	RELATIVE INTENSITY
24	2
25	14
26	55
27	1165
28	119
29	1479
30	38
36	13
37	10
38	26
39	792
40	158
41	3444
42	2009
43	9999
44	301
45	5
46	2
47	2
48	3
49	4
50	8
51	27
52	17
53	165
54	62
55	825
56	1660
57	9240
58	413
59	4
63	2
65	16
66	10
67	47
68	34
69	429
70	297
71	2973
72	169
73	8
75	2
77	4
78	9
79	5
80	3
81	5
82	3
83	78
84	51
85	1710
86	111
87	2
98	77
99	1608
100	122
101	2
111	12
113	1
126	15
127	104
128	8
142	1
