Mass Spectrum: Pyrazole, 1,4-dimethyl-
Formula: C5 H8 N2
CAS: 1072-68-0
Molecular weight: 96
Origin: V.A. KOPTYUG, VOL.4, ATLAS OF MASS SPECTRA OF ORGANIC COMPOUNDS
m/z	RELATIVE INTENSITY
26	410
27	1200
28	1550
29	230
30	140
37	200
38	440
39	1350
40	480
41	1820
42	3690
43	720
50	150
51	290
52	450
53	940
54	1660
55	890
56	200
57	310
65	110
66	390
67	470
68	2120
69	450
70	110
79	100
80	100
81	830
82	280
83	220
93	100
94	190
95	9999
96	9310
97	600
98	30
