Mass Spectrum: 1H-Imidazole, 2-ethyl-
Formula: C5 H8 N2
CAS: 1072-62-4
Molecular weight: 96
Origin: Japan AIST/NIMC Database- Spectrum MS-NW-4640
m/z	RELATIVE INTENSITY
12	10
13	20
14	90
15	249
25	40
26	379
27	719
28	1549
29	259
30	70
36	20
37	149
38	299
39	1169
40	949
41	2059
42	1169
43	50
44	10
46	70
47	179
48	10
50	10
51	90
52	339
53	239
54	2319
55	139
56	149
57	10
62	10
63	20
64	30
65	30
66	109
67	209
68	1169
69	409
70	10
78	10
79	20
80	50
81	6749
82	379
83	10
93	209
94	149
95	9999
96	6129
97	429
98	10
