Mass Spectrum: 1,2,4,5-Tetroxane, 3,3,6,6-tetramethyl-
Formula: C6 H12 O4
CAS: 1073-91-2
Molecular weight: 148
m/z	RELATIVE INTENSITY
27	413
28	3856
29	303
42	303
43	9999
44	551
58	854
101	223
