Mass Spectrum: 2(3H)-Furanone, 5-ethenyldihydro-5-methyl-
Formula: C7 H10 O2
CAS: 1073-11-6
Molecular weight: 126
Origin: D.FELIX VARIAN AG. RES. LAB., ZURICH, SWITZERLAND
m/z	RELATIVE INTENSITY
26	400
27	2550
28	2000
29	500
38	200
39	1400
40	250
41	1600
42	800
43	5100
44	300
45	50
50	250
51	350
52	150
53	700
54	400
55	6200
56	3100
57	200
65	450
66	100
67	3200
68	200
69	200
70	250
71	4100
72	150
77	50
79	200
81	400
82	200
83	2200
84	400
93	150
98	2100
99	2550
100	150
111	9999
112	650
126	950
127	200
