Mass Spectrum: Phenol, 2-(methylthio)-
Formula: C7 H8 O S
CAS: 1073-29-6
Molecular weight: 140
Origin: NIST Mass Spectrometry Data Center
m/z	RELATIVE INTENSITY
14	20
15	100
26	40
27	100
28	10
29	40
31	10
32	10
33	10
36	10
37	90
38	250
39	731
40	50
41	30
42	20
43	30
44	20
45	991
46	120
47	160
48	70
49	40
50	200
51	270
52	140
53	881
54	50
55	60
56	10
57	70
58	80
59	40
60	40
61	130
62	270
63	661
64	240
65	410
66	200
67	110
68	50
69	671
70	571
71	280
72	50
73	40
74	80
75	60
76	30
77	410
78	260
79	150
80	20
81	130
82	90
83	20
84	30
85	80
86	10
87	10
89	10
90	10
91	10
92	160
93	180
94	450
95	631
96	601
97	5435
98	400
99	270
100	20
105	20
106	40
107	611
108	80
109	50
110	20
111	160
112	90
113	20
114	10
121	240
122	30
123	30
125	5945
126	480
127	310
128	20
137	50
138	10
140	9999
141	1021
142	591
143	40
