Mass Spectrum: 1,3,2-Dioxathiane, 2,2-dioxide
Formula: C3 H6 O4 S
CAS: 1073-05-8
Molecular weight: 138
Origin: E.Lloyd ET AL.Aust.J.Chem., 30,569(1977)
m/z	RELATIVE INTENSITY
14	180
15	561
16	50
17	180
18	611
24	110
25	180
26	831
27	1631
28	9999
29	2252
30	1071
31	591
39	280
40	160
41	180
42	340
43	320
48	340
55	170
56	230
57	300
58	6146
59	220
63	130
64	220
65	250
81	250
83	130
138	170
