Mass Spectrum: 1,4-Cyclooctadiene
Formula: C8 H12
CAS: 1073-07-0
Molecular weight: 108
Origin: D.HENNEBERG, MAX-PLANCK INSTITUTE, MULHEIM, WEST GERMANY
m/z	RELATIVE INTENSITY
27	4282
28	1797
29	686
37	242
38	474
39	7303
40	818
41	5444
42	232
43	111
44	515
50	888
51	1757
52	1131
53	1484
54	2676
55	313
62	151
63	525
64	161
65	1818
66	2232
67	7848
75	383
76	141
77	3898
78	1585
79	9999
80	6060
81	494
90	121
91	1989
92	272
93	4020
94	232
103	80
105	101
106	20
107	282
108	2707
109	181
