Mass Spectrum: Benzene, 1-methyl-4-propyl-
Formula: C10 H14
CAS: 1074-55-1
Molecular weight: 134
Origin: Japan AIST/NIMC Database- Spectrum MS-NW-3995
m/z	RELATIVE INTENSITY
15	10
26	20
27	229
28	20
29	50
38	30
39	279
40	30
41	149
50	80
51	219
52	70
53	109
55	10
57	20
58	10
61	10
62	40
63	139
64	50
65	219
66	20
74	30
75	30
76	30
77	629
78	189
79	489
80	30
86	10
87	10
89	70
90	20
91	549
92	179
93	30
101	10
102	50
103	339
104	199
105	9999
106	909
107	40
115	129
116	40
117	129
118	30
119	129
120	10
127	10
128	20
129	10
131	10
132	10
133	20
134	2319
135	259
136	10
