Mass Spectrum: Benzoic acid, 4-mercapto-
Formula: C7 H6 O2 S
CAS: 1074-36-8
Molecular weight: 154
Origin: NIST Mass Spectrometry Data Center, 2010
m/z	RELATIVE INTENSITY
15	10
25	10
26	30
27	100
28	50
29	50
31	70
33	50
34	20
36	10
37	180
38	310
39	881
40	70
41	20
44	70
45	1511
46	30
47	60
48	20
49	160
50	971
51	721
52	80
53	410
54	220
56	20
57	280
58	410
59	130
60	60
61	270
62	440
63	1311
64	200
65	1992
66	1001
67	100
68	80
69	1651
70	130
71	150
72	20
73	130
74	591
75	340
76	210
77	320
78	80
79	20
80	40
81	460
82	701
83	180
84	430
85	90
86	30
87	20
90	10
91	10
92	80
93	140
94	40
95	60
96	30
97	480
98	80
99	20
100	190
101	20
102	10
103	20
104	40
105	180
106	80
107	180
108	1001
109	3914
110	1561
111	290
112	60
113	10
117	10
119	300
120	20
121	20
122	60
123	20
124	20
125	440
126	210
127	40
128	10
131	40
135	110
136	641
137	6416
138	571
139	300
140	20
147	10
150	170
153	500
154	9999
155	931
156	520
157	40
158	10
159	10
