Mass Spectrum: Phenylglyoxal
Formula: C8 H6 O2
CAS: 1074-12-0
Molecular weight: 134
Origin: Japan AIST/NIMC Database- Spectrum MS-NW-2412
m/z	RELATIVE INTENSITY
14	10
16	20
17	10
18	30
25	10
26	50
27	219
28	199
29	309
36	20
37	159
38	189
39	209
40	10
43	20
44	40
48	10
49	119
50	1119
51	2969
52	219
53	40
56	10
60	10
61	70
62	90
63	80
64	10
73	90
74	349
75	209
76	279
77	8659
78	649
79	20
85	10
86	20
87	10
89	30
90	10
102	20
104	30
105	9999
106	1209
107	80
