Mass Spectrum: Benzene, 1-bromo-2,3,4,5-tetrafluoro-
Formula: C6 H Br F4
CAS: 1074-91-5
Molecular weight: 228
Origin: Chuck Anderson, Aldrich Chemical Co.
m/z	RELATIVE INTENSITY
28	17
31	1596
32	23
36	84
37	203
44	12
48	23
49	43
55	208
56	282
60	95
61	633
62	46
65	72
67	52
68	463
69	121
73	19
74	330
75	1080
76	26
79	1177
80	1790
81	223
86	322
87	104
91	64
92	179
93	499
98	681
99	9160
100	447
105	77
106	19
110	156
111	134
114	689
115	693
117	346
118	87
124	21
129	131
130	717
131	45
137	26
148	407
149	6902
150	387
153	37
155	36
159	61
161	64
177	36
179	36
197	73
199	68
209	100
211	98
228	9999
229	487
230	9418
231	520
