Mass Spectrum: Phenyltrichlorogermane
Formula: C6 H5 Cl3 Ge
CAS: 1074-29-9
Molecular weight: 256
Origin: MUS218 A. Mujsce, AT&T Bell Labs., Murray Hill, N.J., USA
m/z	RELATIVE INTENSITY
27	189
35	147
36	34
37	141
38	169
39	199
41	39
43	53
49	157
50	1482
51	3029
52	132
55	36
60	19
61	47
62	61
70	231
71	25
72	296
73	259
74	1054
75	623
76	557
77	4107
78	285
81	37
83	30
84	45
85	62
86	24
87	21
94	36
95	304
96	37
97	411
98	156
99	462
100	40
101	119
105	1568
107	2666
108	662
109	3837
110	304
111	1757
112	9999
113	900
114	3341
115	247
116	27
118	23
119	132
120	40
121	264
122	126
123	372
124	94
125	183
126	30
127	40
129	18
131	18
137	18
140	162
142	295
143	113
144	408
145	121
146	317
147	169
148	90
149	148
150	54
151	123
153	34
155	13
157	15
158	14
164	17
166	14
169	24
175	264
177	531
178	101
179	867
180	95
181	700
182	69
183	291
184	80
185	101
186	97
187	45
188	65
190	18
191	18
193	22
195	14
196	15
197	15
199	17
205	14
209	18
212	17
217	2768
219	5559
220	1562
221	7773
222	1203
223	4584
224	464
225	1306
226	94
227	122
228	29
252	1436
254	3110
255	771
256	4861
257	837
258	3527
259	408
260	1400
261	107
262	243
