Mass Spectrum: Benzene, 1-methyl-2-propyl-
Formula: C10 H14
CAS: 1074-17-5
Molecular weight: 134
Origin: Japan AIST/NIMC Database- Spectrum MS-NW-3642
m/z	RELATIVE INTENSITY
15	20
26	20
27	329
28	10
29	70
37	10
38	50
39	419
40	40
41	219
42	10
43	20
50	119
51	299
52	90
53	129
55	20
57	40
58	20
61	10
62	60
63	189
64	70
65	299
66	30
74	40
75	40
76	30
77	769
78	249
79	699
80	60
86	10
87	10
89	99
90	40
91	699
92	269
93	50
101	10
102	60
103	429
104	209
105	9999
106	959
107	70
108	50
115	179
116	60
117	149
118	30
119	239
120	30
127	10
128	20
131	10
133	10
134	2359
135	249
136	10
