Mass Spectrum: Benzene, 1-methyl-3-propyl-
Formula: C10 H14
CAS: 1074-43-7
Molecular weight: 134
Origin: Japan AIST/NIMC Database- Spectrum MS-NW-3635
m/z	RELATIVE INTENSITY
15	20
18	10
26	20
27	349
28	20
29	80
37	10
38	50
39	459
40	50
41	239
42	10
43	10
50	99
51	319
52	99
53	139
54	10
55	20
57	30
58	20
61	20
62	60
63	209
64	70
65	329
66	40
74	40
75	40
76	40
77	809
78	259
79	659
80	40
86	10
87	10
89	99
90	30
91	869
92	569
93	70
101	10
102	60
103	419
104	209
105	9999
106	1349
107	90
115	189
116	60
117	179
118	50
119	379
120	40
132	10
133	40
134	2659
135	299
136	10
