Mass Spectrum: 1H-Indene, 2,3-dihydro-5,6-dimethyl-
Formula: C11 H14
CAS: 1075-22-5
Molecular weight: 146
m/z	RELATIVE INTENSITY
12	10
13	10
14	30
15	310
16	10
17	10
18	20
25	10
26	230
27	1161
28	210
29	140
30	10
31	10
36	10
37	60
38	190
39	1201
40	110
41	350
42	10
43	20
44	10
45	10
46	10
49	20
50	380
51	851
52	220
53	360
54	10
55	20
56	10
57	40
58	90
59	10
61	50
62	190
63	561
64	350
65	460
66	40
67	40
68	10
69	30
70	90
71	370
72	160
73	100
74	150
75	170
76	100
77	641
78	180
79	140
80	10
81	10
83	10
85	20
86	50
87	80
88	30
89	180
90	30
91	1081
92	20
93	20
94	10
97	10
98	30
99	20
100	10
101	50
102	190
103	280
104	70
105	320
106	10
107	10
109	10
110	10
111	10
113	30
114	50
115	1501
116	671
117	370
118	260
119	130
120	30
125	30
126	70
127	420
128	1161
129	1061
130	591
131	9999
132	10
133	10
139	60
140	20
141	150
142	40
143	120
144	170
145	1752
146	4044
147	475
148	10
