Mass Spectrum: Benzene, 4-pentenyl-
Formula: C11 H14
CAS: 1075-74-7
Molecular weight: 146
Origin: D.HENNEBERG, MAX-PLANCK INSTITUTE, MULHEIM, WEST GERMANY
m/z	RELATIVE INTENSITY
26	436
27	1106
28	1575
29	526
30	17
31	13
32	167
34	6
37	40
38	167
39	1857
40	223
41	676
42	87
43	31
44	67
45	11
48	8
49	22
50	393
51	1150
52	281
53	364
54	100
55	525
56	55
57	58
58	20
61	24
62	143
63	505
64	147
65	1888
66	147
67	270
68	252
69	33
70	11
72	8
73	24
74	100
75	105
76	102
77	1387
78	794
79	923
80	40
81	17
83	13
84	8
85	11
86	17
87	40
88	24
89	268
90	165
91	8158
92	3713
93	259
96	8
97	6
98	13
100	13
102	113
103	720
104	9999
105	3041
106	230
107	8
108	8
112	8
113	13
114	24
115	369
116	120
117	938
118	306
119	46
120	13
121	8
127	40
128	122
129	78
130	46
131	382
132	71
134	8
139	8
141	35
142	17
143	13
145	44
146	648
147	82
