Mass Spectrum: dl-Erythro-1-phenyl-1,2-propanediol
Formula: C9 H12 O2
CAS: 1075-04-3
Molecular weight: 152
Origin: Japan AIST/NIMC Database- Spectrum MS-IW-3421
m/z	RELATIVE INTENSITY
14	10
15	70
17	10
18	70
19	70
26	40
27	409
28	70
29	329
30	10
31	90
37	20
38	80
39	429
40	40
41	90
42	60
43	489
44	40
45	1329
46	30
49	20
50	379
51	1109
52	319
53	249
54	10
55	70
56	60
57	119
58	30
59	40
60	10
61	30
62	90
63	259
64	70
65	199
66	30
67	10
68	10
69	10
71	10
73	20
74	129
75	90
76	99
77	3659
78	789
79	8619
80	729
81	30
86	20
87	20
88	10
89	349
90	629
91	789
92	109
93	20
94	10
102	10
103	80
104	20
105	1029
106	239
107	9659
108	9999
109	819
110	50
115	80
116	20
117	109
118	70
119	189
120	30
121	10
131	10
133	60
134	80
135	30
152	10
