Mass Spectrum: Propanenitrile, 3-(phenylamino)-
Formula: C9 H10 N2
CAS: 1075-76-9
Molecular weight: 146
Origin: MASS SPECTROMETRY CENTER, UNIV. OF UTAH; ALDRICH A08775-5
m/z	RELATIVE INTENSITY
26	261
27	656
28	334
30	246
37	58
38	254
39	685
40	244
41	335
42	53
43	11
44	113
50	424
51	1258
52	648
53	506
62	93
63	279
64	203
65	543
66	249
73	146
74	128
75	128
76	145
77	2519
78	559
79	1056
80	72
91	175
92	141
93	354
104	699
105	406
106	9999
107	865
115	68
116	24
142	71
146	2133
147	278
