Mass Spectrum: 5H-Benzocycloheptene,6,7,8,9-tetrahydro-
Formula: C11 H14
CAS: 1075-16-7
Molecular weight: 146
Origin: J.M.Roman,D.J.Vaderah,SAIC Frederick;Y.B.Tewari,NIST
m/z	RELATIVE INTENSITY
63	440
64	450
65	771
67	120
68	300
77	931
78	861
79	320
89	350
91	3803
92	1431
102	260
103	1051
104	7797
105	3964
106	270
115	2102
116	821
117	6166
118	3353
119	270
127	260
128	831
129	611
130	290
131	4314
132	430
145	951
146	9999
147	1131
