Mass Spectrum: Benzene, 2-methoxy-4-methyl-1-(1-methylethyl)-
Formula: C11 H16 O
CAS: 1076-56-8
Molecular weight: 164
Origin: P.A. Leclercq, Lab. Instrum. Anal., Eindhoven Univ. Technol., Netherlands
m/z	RELATIVE INTENSITY
15	1649
27	649
29	259
39	1029
41	649
50	229
51	589
52	209
53	309
62	119
63	379
65	629
66	109
77	1029
78	419
79	569
89	229
91	2389
92	239
93	259
102	179
103	509
105	859
106	139
107	119
115	1079
116	339
117	1109
119	1489
120	169
121	279
131	169
133	489
134	1009
135	299
149	9999
150	1069
164	2449
165	299
