Mass Spectrum: 1,2,3,6,7,8-Hexahydro-as-indacene
Formula: C12 H14
CAS: 1076-17-1
Molecular weight: 158
Origin: F. TURECEK,HEYROVSKY INST PHYS CHEM & ELECTROCHEM,PRAGUE,CZECH
m/z	RELATIVE INTENSITY
27	200
39	600
40	100
41	300
50	200
51	900
52	100
53	200
62	100
63	700
64	1100
65	1000
74	200
75	200
76	1000
77	1100
78	600
79	300
87	100
89	300
91	700
92	80
101	100
102	300
103	200
104	100
105	100
114	50
115	3200
116	800
117	600
118	100
126	200
127	1000
128	3000
129	9100
130	8900
131	1100
132	100
139	200
140	100
141	1200
142	1200
143	2000
144	300
151	100
152	500
153	600
154	200
155	600
156	300
157	6300
158	9999
159	1300
160	100
