Mass Spectrum: Benzene-D6
Formula: C6 D6
CAS: 1076-43-3
Molecular weight: 84
Origin: NIST Mass Spectrometry Data Center, 1990.
m/z	RELATIVE INTENSITY
12	41
24	25
26	168
28	721
30	402
36	83
38	652
40	814
42	1970
43	64
48	55
50	463
52	2612
54	2395
56	2591
57	108
60	31
62	127
64	140
66	658
67	36
72	17
74	116
76	341
77	22
78	95
79	17
80	360
81	17
82	1674
83	17
84	9999
85	665
86	20
