Mass Spectrum: L-Aspartic acid, 3TBDMS derivative
Formula: C22 H49 N O4 Si3
CAS: 107715-96-8
Molecular weight: 475
Origin: NIST Mass Spectrometry Data Center
m/z	RELATIVE INTENSITY
27	20
28	10
29	170
31	20
39	70
40	20
41	440
42	40
43	120
44	40
45	310
46	30
47	100
48	10
53	20
54	40
55	130
56	150
57	811
58	270
59	851
60	110
61	80
66	10
67	10
68	10
69	20
70	80
71	30
73	9999
74	1211
75	1471
76	110
77	50
82	10
83	30
84	40
85	140
86	100
87	80
88	40
89	10
95	10
96	10
97	30
98	60
99	270
100	641
101	150
102	80
103	230
104	30
105	30
110	10
111	10
112	20
113	50
114	40
115	1051
116	240
117	1001
118	150
119	140
120	20
121	10
126	40
127	20
128	310
129	130
130	661
131	280
132	611
133	1251
134	250
135	140
136	20
137	10
140	10
141	10
142	300
143	70
144	120
145	70
146	160
147	2943
148	540
149	550
150	80
151	30
154	10
155	10
156	30
157	50
158	140
159	210
160	360
161	110
162	60
163	10
168	10
170	30
171	20
172	100
173	160
174	230
175	90
176	60
177	70
178	20
179	10
180	10
184	210
185	50
186	50
187	30
188	230
189	530
190	140
191	120
192	40
193	20
200	30
201	20
202	400
203	100
204	210
205	60
206	100
207	120
208	30
209	20
213	30
214	30
215	10
216	280
217	60
218	100
219	30
220	20
221	90
222	20
223	10
228	10
229	10
230	40
231	50
232	30
233	50
234	20
235	20
242	10
244	1471
245	410
246	350
247	70
248	30
249	20
256	10
257	20
258	561
259	140
260	90
261	20
262	10
263	10
270	10
272	130
273	80
274	30
275	10
276	10
277	120
278	30
279	10
286	500
287	460
288	160
289	120
290	30
291	10
299	10
300	70
302	6466
303	1772
304	701
305	120
306	20
314	10
316	3643
317	1111
318	430
319	110
320	30
321	10
328	30
329	20
330	10
332	20
333	10
334	10
344	20
345	10
346	160
347	50
348	30
349	10
360	10
361	20
362	10
374	20
376	901
377	290
378	140
379	30
380	10
388	10
390	2923
391	981
392	460
393	110
394	30
400	60
401	30
402	30
403	10
416	10
418	7267
419	2602
420	1191
421	280
422	60
423	10
432	90
433	30
434	10
442	10
443	20
444	10
460	420
461	170
462	70
463	20
475	20
476	10
