Mass Spectrum: L-Proline, 2TBDMS derivative
Formula: C17 H37 N O2 Si2
CAS: 107715-91-3
Molecular weight: 343
Origin: NIST Mass Spectrometry Data Center
m/z	RELATIVE INTENSITY
27	10
28	10
29	90
31	10
39	40
40	10
41	260
42	20
43	140
44	40
45	240
46	20
47	50
51	10
52	10
53	20
54	10
55	60
56	90
57	440
58	190
59	711
60	70
61	60
66	130
67	10
68	60
69	40
70	280
71	60
72	350
73	4334
74	400
75	470
76	30
77	20
79	40
81	10
82	10
83	40
84	50
85	130
86	80
87	30
88	10
89	10
93	10
95	10
96	10
97	20
98	60
99	200
100	190
102	40
103	60
104	10
105	20
107	30
110	10
111	10
112	50
113	30
115	190
116	40
117	170
118	30
119	110
120	10
121	10
124	20
125	10
126	130
127	270
128	240
129	60
130	20
131	140
132	80
133	591
134	90
135	50
136	10
138	10
140	30
141	10
142	50
143	50
144	50
145	30
147	1802
148	280
149	160
150	20
152	10
154	50
155	40
156	30
157	20
158	50
159	50
160	20
161	10
168	50
169	20
170	70
171	20
172	30
173	80
174	30
175	10
182	50
184	9999
185	2082
186	591
187	60
188	10
189	30
190	10
196	20
198	30
199	10
200	90
201	20
202	20
212	20
214	10
217	30
218	10
228	30
229	10
230	20
231	10
242	10
256	10
258	2602
259	651
260	250
261	40
262	10
284	10
286	1912
287	480
288	190
289	30
290	10
300	60
301	20
302	10
314	10
328	110
329	30
330	10
342	20
343	10
