Mass Spectrum: L-Threonine, 3TBDMS derivative
Formula: C22 H51 N O3 Si3
CAS: 107715-94-6
Molecular weight: 461
Origin: J.M. Halket, Trace Anal. Unit (TAU), London, UK
m/z	RELATIVE INTENSITY
39	140
41	860
42	60
43	190
44	80
45	530
46	50
47	130
53	20
54	20
55	90
56	300
57	1220
58	370
59	1040
60	140
61	90
68	20
69	80
70	30
73	9999
74	920
75	990
76	70
77	30
81	10
82	10
83	20
84	50
85	130
86	90
87	130
88	170
89	30
97	20
98	70
99	130
100	100
101	80
102	140
103	910
104	90
105	50
112	30
114	400
115	1070
116	180
117	120
118	60
119	70
120	10
128	50
129	10
130	170
131	260
132	510
133	690
134	130
135	80
142	180
143	50
144	50
145	50
146	40
147	860
148	270
149	200
150	30
151	10
156	30
157	20
159	920
160	430
161	90
162	40
170	40
171	80
172	60
173	60
174	60
175	20
176	10
177	110
178	20
186	50
187	20
188	90
189	90
190	40
191	10
200	20
201	10
202	70
203	20
204	40
205	20
206	20
207	30
216	30
218	40
219	10
221	60
222	20
228	10
230	20
232	140
233	30
234	10
244	150
245	120
246	120
247	30
248	10
272	40
273	20
274	30
275	40
276	10
286	30
287	130
288	50
289	20
300	10
302	1340
303	2020
304	580
305	180
306	30
314	30
330	20
332	20
376	740
377	240
378	110
379	30
404	1150
405	390
406	170
407	40
408	10
417	440
418	210
419	100
420	30
446	130
447	50
448	20
