Mass Spectrum: L-Lysine, 3TBDMS derivative
Formula: C24 H56 N2 O2 Si3
CAS: 107715-99-1
Molecular weight: 488
Origin: NIST Mass Spectrometry Data Center
m/z	RELATIVE INTENSITY
27	10
29	80
30	30
31	10
39	50
40	10
41	220
42	30
43	70
44	20
45	190
46	30
47	40
53	10
54	30
55	90
56	420
57	380
58	240
59	1261
60	170
61	60
62	10
65	10
66	10
67	60
68	20
69	30
70	80
71	40
73	9999
74	1862
75	941
76	90
77	30
79	10
80	10
81	10
82	120
83	50
84	2162
85	300
86	280
87	150
88	731
89	90
90	40
92	10
93	10
94	100
95	20
96	40
97	50
98	150
99	240
100	591
101	140
102	120
103	310
104	110
105	30
106	10
107	10
108	10
109	20
110	40
111	120
112	250
113	90
114	550
115	430
116	260
117	190
118	80
119	100
120	20
121	10
123	10
124	50
125	20
126	120
127	60
128	220
129	80
130	821
131	260
132	550
133	1001
134	200
135	90
136	50
137	10
138	30
139	30
140	561
141	140
142	520
143	130
144	731
145	160
146	290
147	2042
148	1021
149	410
150	110
151	30
152	20
153	10
154	40
155	60
156	220
157	170
158	260
159	130
160	170
161	40
162	40
163	10
165	10
166	30
167	1011
168	751
169	150
170	1692
171	290
172	180
173	160
174	130
175	40
176	60
177	10
182	50
183	40
184	240
185	100
186	140
187	50
188	120
189	110
190	70
191	20
192	10
196	60
197	60
198	3293
199	601
200	200
201	40
202	50
203	10
204	40
205	20
206	40
207	20
208	140
209	70
210	50
211	10
212	30
213	40
214	70
215	70
216	70
217	20
218	20
219	10
220	10
221	10
222	10
223	10
224	20
225	230
226	140
227	40
228	20
229	10
230	40
231	20
232	20
233	10
234	10
241	10
242	130
243	50
244	120
245	50
246	30
247	10
248	10
254	10
255	10
256	140
257	50
258	60
259	140
260	50
261	20
262	10
269	10
270	40
271	150
272	1531
273	400
274	310
275	110
276	40
277	10
281	10
282	30
283	30
284	30
285	10
286	20
287	10
288	40
289	10
290	10
298	20
299	961
300	3423
301	931
302	520
303	150
304	50
305	10
313	10
314	340
315	110
316	70
317	20
318	10
320	20
321	10
326	20
327	10
329	1191
330	370
331	140
332	30
333	10
339	210
340	100
341	220
342	160
343	50
344	20
345	10
355	10
356	30
357	10
358	10
359	10
373	10
386	10
403	20
404	10
413	10
414	10
415	10
429	10
431	961
432	380
433	170
434	40
435	10
445	10
473	100
474	40
475	20
476	10
488	520
489	230
490	100
491	30
492	10
