Mass Spectrum: L-Phenylalanine, 2TBDMS derivative
Formula: C21 H39 N O2 Si2
CAS: 107715-95-7
Molecular weight: 393
Origin: J.M. Halket, Trace Anal. Unit (TAU), London, UK
m/z	RELATIVE INTENSITY
39	310
41	1430
42	110
43	400
44	160
45	900
46	80
47	240
50	10
51	40
52	20
53	30
54	10
55	130
56	130
57	1680
58	460
59	1280
60	160
61	120
62	10
63	30
65	290
66	40
67	10
69	30
70	40
71	30
73	9999
74	990
75	1360
76	100
77	100
78	40
79	10
83	30
84	60
85	110
86	80
87	80
88	40
89	60
91	1380
92	120
93	30
97	10
98	10
99	100
100	90
101	40
102	80
103	390
104	120
105	80
107	20
112	10
113	10
115	480
116	100
117	180
118	110
119	120
120	170
121	140
122	20
126	20
128	70
129	10
130	330
131	280
132	740
133	790
134	170
135	180
136	30
139	70
142	110
143	30
144	40
145	110
146	130
147	2090
148	400
149	260
150	40
158	30
160	590
161	160
162	220
163	40
172	20
173	30
174	60
175	40
176	150
177	150
178	80
179	20
188	30
189	110
190	30
191	10
193	10
194	10
195	20
202	50
204	160
205	60
206	70
207	20
216	20
218	120
219	30
220	10
232	10
234	2230
235	460
236	120
237	10
245	150
246	50
247	10
278	10
300	10
302	2830
303	740
304	260
305	50
306	10
308	1860
309	550
310	190
311	40
336	1420
337	420
338	150
339	30
350	80
351	30
378	120
379	40
380	10
