Mass Spectrum: Isoleucine, 2TBDMS derivative
Formula: C18 H41 N O2 Si2
CAS: 107715-90-2
Molecular weight: 359
Origin: J.M. Halket, Trace Anal. Unit (TAU), London, UK
m/z	RELATIVE INTENSITY
39	360
41	2340
42	170
43	450
44	240
45	970
46	100
47	240
48	10
52	10
53	60
54	40
55	240
56	490
57	2810
58	570
59	1870
60	290
61	150
62	10
66	50
67	40
68	80
69	270
70	70
71	40
73	9999
74	1120
75	1420
76	100
77	50
79	10
80	80
82	50
83	60
84	80
85	190
86	280
87	110
88	80
89	20
96	60
97	60
98	100
99	200
100	120
101	60
102	80
103	340
104	50
105	60
107	30
110	20
111	10
112	70
113	60
114	210
115	530
116	100
117	200
118	80
119	110
120	20
122	30
124	10
126	50
128	430
129	70
130	130
131	150
132	620
133	940
134	170
135	80
142	300
143	230
144	160
145	110
147	2310
148	400
149	250
150	30
156	30
157	30
158	50
159	30
160	420
161	110
162	50
170	240
171	60
172	30
173	30
174	80
175	30
184	60
185	20
186	40
188	60
189	110
190	20
191	10
198	30
200	6180
201	1070
202	300
203	40
212	10
216	150
217	40
218	60
230	10
245	50
246	20
272	20
274	2440
275	590
276	240
277	40
300	10
302	2240
303	580
304	220
305	40
316	100
317	30
344	80
345	30
