Mass Spectrum: 1-Butanamine, N-(phenylmethylene)-
Formula: C11 H15 N
CAS: 1077-18-5
Molecular weight: 161
Origin: CARL DJERASSI DEPT OF CHEM STANFORD UNIV STANFORD CALIF 94305
m/z	RELATIVE INTENSITY
41	1287
42	198
44	99
50	396
51	1089
52	297
53	198
54	396
55	396
56	198
57	396
58	297
62	198
63	495
64	297
65	891
76	297
77	1485
78	594
79	297
83	2376
84	3465
85	198
89	891
90	891
91	8712
92	792
103	297
104	3069
105	1089
106	396
117	891
118	9999
119	3663
120	693
130	297
131	297
132	2772
133	693
146	396
160	1980
161	1683
162	396
