Mass Spectrum: Quinoline, 6-methoxy-2-methyl-
Formula: C11 H11 N O
CAS: 1078-28-0
Molecular weight: 173
Origin: MASS SPECTROMETRY CENTER, UNIV. OF UTAH, ALDRICH 10239-2
m/z	RELATIVE INTENSITY
15	244
26	10
27	276
28	82
37	9
38	147
39	463
41	28
50	366
51	644
52	413
53	247
58	87
61	10
62	342
63	598
64	177
65	183
71	113
72	8
74	236
75	290
76	273
77	1159
78	318
79	25
80	120
86	42
87	567
88	180
89	292
90	109
91	10
100	21
101	198
102	377
103	1122
104	249
113	21
114	120
115	440
116	234
117	30
120	24
127	35
128	307
129	318
130	5238
131	599
132	9
140	140
141	79
142	197
143	436
144	211
145	10
157	43
158	4111
159	523
172	355
173	9999
174	1475
175	92
