Mass Spectrum: Benzo[b]thiophene-4-ol, methylcarbamate
Formula: C10 H9 N O2 S
CAS: 1079-33-0
Molecular weight: 207
m/z	RELATIVE INTENSITY
15	500
27	600
29	500
39	300
43	800
44	800
49	600
55	500
56	200
57	300
58	700
69	1200
77	700
78	500
95	400
96	400
97	400
121	1700
122	1900
150	9999
207	1700
