Mass Spectrum: [1,1'-Biphenyl]-2,5-diol
Formula: C12 H10 O2
CAS: 1079-21-6
Molecular weight: 186
Origin: Japan AIST/NIMC Database- Spectrum MS-NW-2465
m/z	RELATIVE INTENSITY
26	70
27	159
28	70
29	50
37	20
38	50
39	219
40	10
41	10
43	20
44	10
49	10
50	199
51	559
52	239
53	159
54	209
55	219
56	20
57	10
61	30
62	109
63	279
64	249
65	109
66	60
67	10
69	60
70	109
71	10
73	20
74	139
75	169
76	159
77	509
78	669
79	109
80	70
81	40
82	309
83	10
84	289
85	20
86	40
87	60
88	30
89	99
90	20
91	80
92	70
93	199
98	40
99	20
100	10
101	70
102	359
103	359
104	80
105	40
110	10
113	30
114	40
115	589
116	99
117	20
118	20
126	60
127	449
128	1029
129	1029
130	219
131	279
132	30
134	10
137	10
138	10
139	289
140	109
141	129
142	20
143	10
144	20
145	10
147	40
155	50
156	109
157	929
158	239
159	20
160	60
167	129
168	119
169	149
170	30
171	199
172	20
184	369
185	2279
186	9999
187	1289
188	119
