Mass Spectrum: Myrtenyl acetate
Formula: C12 H18 O2
CAS: 1079-01-2
Molecular weight: 194
Origin: NIST Mass Spectrometry Data Center
m/z	RELATIVE INTENSITY
14	10
15	50
26	10
27	220
28	30
29	150
30	10
31	20
37	10
38	30
39	671
40	120
41	1131
42	160
43	3353
44	100
45	30
50	90
51	360
52	190
53	631
54	90
55	480
56	80
57	70
58	20
59	30
60	10
61	60
62	30
63	140
64	40
65	631
66	180
67	520
68	160
69	280
70	70
71	20
72	10
73	100
74	20
75	20
77	1441
78	771
79	1692
80	240
81	340
82	90
83	110
84	80
85	150
86	10
87	10
89	70
91	9999
92	4194
93	1591
94	160
95	200
96	180
97	40
98	40
99	10
101	10
102	30
103	300
104	150
105	1341
106	651
107	390
108	1922
109	390
110	70
111	120
112	10
115	180
116	50
117	561
119	5385
120	581
121	210
122	20
123	50
124	20
125	10
127	10
128	10
129	10
131	30
132	10
133	150
134	1631
135	240
136	20
137	60
138	10
150	50
151	30
152	380
153	50
