Mass Spectrum: 2-Nitrophenol, TMS derivative
Formula: C9 H13 N O3 Si
CAS: 1079-56-7
Molecular weight: 211
Origin: NIST Mass Spectrometry Data Center
m/z	RELATIVE INTENSITY
15	50
26	10
27	70
28	40
29	80
30	420
31	20
37	20
38	90
39	200
40	20
41	20
42	60
43	440
44	140
45	951
46	70
47	120
48	10
50	180
51	500
52	200
53	240
54	50
55	120
56	30
57	60
58	80
59	270
60	80
61	150
62	100
63	571
64	450
65	270
66	120
67	80
68	30
69	60
70	40
71	40
72	70
73	1431
74	240
75	821
76	210
77	460
78	621
79	190
80	100
81	50
82	20
83	50
84	20
85	110
86	80
87	20
88	10
89	130
91	581
92	581
93	140
94	110
95	90
96	40
97	30
98	210
99	40
100	30
101	20
102	10
103	10
104	1231
105	190
106	330
107	270
108	100
109	60
110	20
111	20
112	10
113	10
117	10
118	10
119	20
120	70
121	140
122	641
123	100
124	30
125	20
126	20
127	10
131	10
133	30
134	30
135	360
136	1441
137	250
138	150
139	30
140	10
147	80
148	350
149	210
151	5245
152	741
153	290
154	30
163	10
164	30
165	160
166	671
167	100
168	40
178	10
180	320
181	60
182	20
196	9999
197	1772
198	581
199	50
211	100
212	20
