Mass Spectrum: Cyanuric acid
Formula: C3 H3 N3 O3
CAS: 108-80-5
Molecular weight: 129
Origin: NIST Mass Spectrometry Data Center
m/z	RELATIVE INTENSITY
16	50
18	10
26	20
27	80
28	50
29	500
30	100
31	30
40	30
41	230
42	681
43	5515
44	5525
45	90
54	50
65	70
69	110
70	1081
71	30
85	40
86	1461
87	130
92	30
120	80
121	30
129	9999
130	430
131	60
