Mass Spectrum: Benzene, 1,3-dibromo-
Formula: C6 H4 Br2
CAS: 108-36-1
Molecular weight: 234
Origin: Chuck Anderson, Aldrich Chemical Co.
m/z	RELATIVE INTENSITY
24	8
25	57
26	147
27	71
36	216
37	1304
38	1922
39	204
48	72
49	666
50	3873
51	480
52	12
60	49
61	145
62	85
63	27
72	56
73	638
74	2609
75	3790
76	2746
77	611
78	460
79	248
80	41
81	221
82	42
91	33
93	47
104	85
105	105
106	87
107	86
115	14
116	51
117	494
118	830
119	460
128	197
129	211
130	190
131	200
141	17
143	15
152	18
153	64
154	145
155	7691
156	570
157	7471
158	453
159	9
234	4972
235	250
236	9999
237	542
238	4972
239	278
