Mass Spectrum: 2(3H)-Furanone, dihydro-5-methyl-
Formula: C5 H8 O2
CAS: 108-29-2
Molecular weight: 100
Origin: NIST Mass Spectrometry Data Center, 1998.
m/z	RELATIVE INTENSITY
14	50
15	170
16	10
25	40
26	610
27	1560
28	2500
29	2580
30	60
31	50
36	10
37	110
38	200
39	1360
40	350
41	4560
42	730
43	2870
44	320
45	430
46	10
49	60
50	250
51	210
52	70
53	280
54	170
55	1320
56	9999
57	1520
58	50
71	130
72	10
81	10
83	10
85	4680
86	210
87	10
99	300
100	600
101	70
