Mass Spectrum: Cyclohexane, bromo-
Formula: C6 H11 Br
CAS: 108-85-0
Molecular weight: 162
Origin: Japan AIST/NIMC Database- Spectrum MS-NW-3194
m/z	RELATIVE INTENSITY
15	40
26	80
27	579
28	90
29	339
36	20
37	20
38	80
39	889
40	189
41	2419
42	169
43	199
44	10
49	10
50	99
51	149
52	80
53	339
54	619
55	5059
56	259
57	10
62	10
63	20
65	80
66	40
67	809
68	50
69	40
74	10
75	10
77	70
78	20
79	129
80	30
81	719
82	339
83	9999
84	669
85	20
93	10
95	10
106	10
107	10
108	10
119	20
121	20
161	60
162	70
163	50
164	70
165	10
