Mass Spectrum: 4,6-Dimethyl-2-pyrimidone
Formula: C6 H8 N2 O
CAS: 108-79-2
Molecular weight: 124
Origin: E. PICQUENARD, UNIV. PIERRE MARIE CURIE, PARIS, FR.
m/z	RELATIVE INTENSITY
40	700
41	1200
42	2150
43	950
44	550
53	500
54	550
55	1100
56	550
57	950
66	1400
67	700
68	500
69	1000
71	550
81	750
82	1100
83	550
95	2700
96	3700
97	600
109	4600
110	500
124	9999
125	900
