Mass Spectrum: Ethanethiol, 2-(dimethylamino)-
Formula: C4 H11 N S
CAS: 108-02-1
Molecular weight: 105
Origin: Japan AIST/NIMC Database- Spectrum MS-NW-2985
m/z	RELATIVE INTENSITY
15	369
17	20
18	139
26	70
27	319
28	349
29	199
30	769
31	10
32	20
33	30
34	50
39	20
40	50
41	119
42	1149
43	379
44	1229
45	329
46	30
47	50
52	10
54	40
55	40
56	329
57	289
58	9999
59	379
60	349
61	229
62	20
63	10
70	189
71	229
72	759
73	40
102	20
104	20
105	369
106	20
107	20
