Mass Spectrum: 1,3,5-Triazine-2,4,6-triamine
Formula: C3 H6 N6
CAS: 108-78-1
Molecular weight: 126
Origin: Japan AIST/NIMC Database- Spectrum MS-NW-6826
m/z	RELATIVE INTENSITY
12	10
13	50
14	20
16	10
17	10
18	20
26	20
27	109
28	50
29	50
30	10
38	10
39	30
40	30
41	169
42	919
43	4979
44	99
53	99
54	10
55	20
56	90
57	20
58	99
59	50
63	179
67	60
68	909
69	40
70	20
83	679
84	109
85	2209
86	90
93	20
98	30
99	70
109	10
110	70
125	10
126	9999
127	559
128	20
