Mass Spectrum: Succinic anhydride
Formula: C4 H4 O3
CAS: 108-30-5
Molecular weight: 100
Origin: Japan AIST/NIMC Database- Spectrum MS-NW-7945
m/z	RELATIVE INTENSITY
12	30
13	109
14	289
15	60
16	30
17	20
18	70
24	80
25	359
26	1719
27	1549
28	9999
29	239
32	20
36	30
37	80
38	40
40	20
41	99
42	429
43	30
44	169
45	60
52	30
53	149
54	30
55	249
56	4259
57	149
100	499
101	60
