Mass Spectrum: 2,6-Lutidine
Formula: C7 H9 N
CAS: 108-48-5
Molecular weight: 107
Origin: Japan AIST/NIMC Database- Spectrum MS-NW- 652
m/z	RELATIVE INTENSITY
14	10
15	139
26	90
27	339
28	129
29	10
30	10
37	129
38	379
39	1889
40	479
41	409
42	549
43	20
49	30
50	189
51	319
52	229
53	279
54	70
55	20
60	10
61	70
62	139
63	399
64	259
65	1519
66	2349
67	449
68	50
74	20
75	20
76	30
77	419
78	159
79	849
80	299
81	80
89	30
90	40
91	109
92	1569
93	109
104	80
105	50
106	2699
107	9999
108	779
109	30
