Mass Spectrum: Diisopropyl ether
Formula: C6 H14 O
CAS: 108-20-3
Molecular weight: 102
Origin: Japan AIST/NIMC Database- Spectrum MS-NW-5539
m/z	RELATIVE INTENSITY
14	20
15	229
18	10
26	40
27	719
28	30
29	99
31	259
37	20
38	50
39	479
40	99
41	1219
42	319
43	4019
44	159
45	9999
46	239
47	20
57	20
58	70
59	1039
60	30
69	259
70	10
72	10
84	10
87	2229
88	129
102	50
