Mass Spectrum: N,N-Dimethylaminoethanol
Formula: C4 H11 N O
CAS: 108-01-0
Molecular weight: 89
Origin: NIST Mass Spectrometry Data Center, 1998.
m/z	RELATIVE INTENSITY
14	10
15	160
18	40
19	10
26	40
27	160
28	190
29	310
30	830
31	150
32	20
38	10
39	30
40	120
41	260
42	1920
43	670
44	1470
45	330
46	20
51	10
52	20
54	50
55	50
56	330
57	380
58	9999
59	500
60	10
68	10
70	70
71	40
72	50
73	20
74	10
86	20
87	10
88	170
89	580
90	30
