Mass Spectrum: Pyrazine, 2,6-dimethyl-
Formula: C6 H8 N2
CAS: 108-50-9
Molecular weight: 108
Origin: NIST Mass Spectrometry Data Center, 1990.
m/z	RELATIVE INTENSITY
13	22
14	74
15	394
16	20
25	48
26	299
27	441
28	759
29	17
32	21
36	66
37	670
38	1546
39	5001
40	5156
41	883
42	8844
43	226
44	13
48	10
49	32
50	79
51	254
52	398
53	159
54	175
55	44
62	34
63	103
64	277
65	120
66	585
67	803
68	69
69	18
74	10
75	30
76	29
77	11
78	35
79	35
80	168
81	663
82	99
93	232
105	24
108	9999
109	751
110	26
