Mass Spectrum: Benzene, 1-bromo-3-chloro-
Formula: C6 H4 Br Cl
CAS: 108-37-2
Molecular weight: 190
Origin: Chuck Anderson, Aldrich Chemical Co.
m/z	RELATIVE INTENSITY
24	3
25	26
26	70
27	39
35	54
36	147
37	837
38	899
39	139
47	71
48	85
49	639
50	3143
51	766
52	29
54	3
55	563
56	203
60	139
61	321
62	160
63	130
64	8
71	24
72	159
73	819
74	2745
75	6060
76	1249
77	326
78	279
79	165
80	35
81	165
82	40
83	20
84	374
85	478
86	137
87	149
88	5
91	17
93	25
94	3
95	459
96	558
97	155
99	3
104	29
105	17
106	28
107	15
108	32
109	63
110	234
111	5832
112	421
113	1855
114	114
115	5
116	14
117	29
118	12
119	22
128	32
129	25
130	31
131	22
141	17
143	16
151	6
152	7
153	25
154	14
155	146
156	13
157	127
158	5
189	73
190	7802
191	463
192	9999
193	577
194	2405
195	137
