Mass Spectrum: Imidodicarbonic diamide
Formula: C2 H5 N3 O2
CAS: 108-19-0
Molecular weight: 103
Origin: Japan AIST/NIMC Database- Spectrum MS-NW- 412
m/z	RELATIVE INTENSITY
15	50
16	299
17	1449
18	209
26	20
27	90
28	299
29	219
30	40
31	179
32	50
41	70
42	369
43	1769
44	6779
45	99
46	10
55	20
56	20
57	30
59	90
60	9999
61	199
62	20
69	20
70	169
71	10
86	90
87	40
103	2199
104	80
105	20
