Mass Spectrum: 3H-Pyrazol-3-one, 2,4-dihydro-5-methyl-
Formula: C4 H6 N2 O
CAS: 108-26-9
Molecular weight: 98
Origin: Japan AIST/NIMC Database- Spectrum MS-NW-5510
m/z	RELATIVE INTENSITY
12	20
13	40
14	129
15	379
16	10
17	20
18	40
24	20
25	90
26	449
27	699
28	689
29	799
30	159
31	80
32	339
33	10
35	10
36	80
37	449
38	769
39	3439
40	919
41	5079
42	819
43	289
44	109
45	30
48	10
49	50
50	80
51	139
52	169
53	199
54	1209
55	459
56	1519
57	139
58	80
59	20
65	10
66	90
67	1479
68	259
69	1269
70	1329
71	60
79	30
80	20
81	99
82	40
83	80
96	20
97	1169
98	9999
99	559
100	30
