Mass Spectrum: Benzenethiol
Formula: C6 H6 S
CAS: 108-98-5
Molecular weight: 110
Origin: Japan AIST/NIMC Database- Spectrum MS-NW-3087
m/z	RELATIVE INTENSITY
17	10
18	70
26	40
27	109
28	109
32	40
33	30
34	10
36	20
37	149
38	219
39	869
40	60
44	70
45	579
46	10
47	30
48	10
49	60
50	539
51	949
52	90
53	40
54	129
55	209
56	20
57	149
58	269
59	70
60	30
61	90
62	119
63	229
64	40
65	1069
66	3099
67	169
68	30
69	699
70	80
71	179
72	10
73	60
74	199
75	119
76	109
77	1229
78	249
79	10
80	10
81	129
82	219
83	109
84	1359
85	70
86	60
92	10
93	40
95	80
105	20
106	20
107	20
108	249
109	2409
110	9999
111	839
112	479
113	30
