Mass Spectrum: Pyridine, 3-methyl-
Formula: C6 H7 N
CAS: 108-99-6
Molecular weight: 93
Origin: Japan AIST/NIMC Database- Spectrum MS-NW-5548
m/z	RELATIVE INTENSITY
14	10
15	30
25	30
26	229
27	319
28	249
31	99
36	40
37	409
38	829
39	2999
40	1399
41	339
42	50
43	10
44	10
45	80
46	60
48	10
49	90
50	349
51	589
52	319
53	269
54	279
55	10
60	40
61	209
62	359
63	759
64	349
65	2599
66	3939
67	1129
68	50
75	40
76	40
77	10
78	389
79	40
90	10
91	119
92	3049
93	9999
94	719
95	20
