Mass Spectrum: Benzenamine, 3,5-dimethyl-
Formula: C8 H11 N
CAS: 108-69-0
Molecular weight: 121
Origin: NIST Mass Spectrometry Data Center, 1998.
m/z	RELATIVE INTENSITY
15	20
26	30
27	190
28	50
29	20
30	50
37	40
38	140
39	600
40	100
41	310
42	250
43	30
44	10
45	20
46	60
49	20
50	270
51	600
52	420
53	510
54	220
55	30
56	10
58	230
59	250
60	130
62	130
63	310
64	100
65	540
66	290
67	120
68	40
73	20
74	90
75	90
76	110
77	1660
78	600
79	760
80	400
81	70
82	20
85	10
86	30
87	20
88	10
89	130
90	60
91	1150
92	230
93	640
94	290
95	30
98	10
99	10
100	10
101	10
102	90
103	420
104	410
105	260
106	6489
107	540
108	20
116	30
117	120
118	320
119	190
120	5219
121	9999
122	950
123	40
