Mass Spectrum: Maleic anhydride
Formula: C4 H2 O3
CAS: 108-31-6
Molecular weight: 98
Origin: Japan AIST/NIMC Database- Spectrum MS-NW-1870
m/z	RELATIVE INTENSITY
12	169
13	329
14	129
16	50
24	299
25	1269
26	9549
27	279
28	619
29	259
32	10
36	139
37	159
38	20
40	70
41	359
42	80
44	409
45	80
52	229
53	1019
54	9999
55	349
56	20
69	40
82	20
98	2029
99	90
100	10
