Mass Spectrum: Acetaldehyde, tetramer
Formula: C8 H16 O4
CAS: 108-62-3
Molecular weight: 176
Origin: Japan AIST/NIMC Database- Spectrum MS-NW- 634
m/z	RELATIVE INTENSITY
13	30
14	119
15	719
16	60
18	30
25	10
26	80
27	319
28	80
29	979
31	60
41	20
42	149
43	2729
44	579
45	9999
46	209
47	20
58	30
71	10
72	20
87	379
88	60
89	2119
90	90
117	129
131	60
