Mass Spectrum: 1-Propen-2-ol, acetate
Formula: C5 H8 O2
CAS: 108-22-5
Molecular weight: 100
Origin: NIST Mass Spectrometry Data Center, 1990.
m/z	RELATIVE INTENSITY
12	13
13	60
14	301
15	828
16	23
17	2
24	7
25	40
26	198
27	482
28	143
29	299
30	29
31	38
36	12
37	111
38	253
39	963
40	192
41	947
42	1014
43	9999
44	256
45	40
50	5
51	5
53	8
55	12
57	264
58	1345
59	45
60	5
61	15
72	823
73	39
100	442
101	24
