Mass Spectrum: 1,2-Ethanediamine, N,N-dimethyl-
Formula: C4 H12 N2
CAS: 108-00-9
Molecular weight: 88
Origin: Japan AIST/NIMC Database- Spectrum MS-NW-1488
m/z	RELATIVE INTENSITY
14	30
15	429
16	10
17	50
18	40
26	30
27	149
28	459
29	279
30	1609
31	30
32	20
38	10
39	30
40	80
41	209
42	1349
43	539
44	819
45	70
46	10
54	20
55	30
56	229
57	289
58	9999
59	409
69	20
70	60
71	70
72	20
88	339
89	20
