Mass Spectrum: 2H-Pyran-2,6(3H)-dione, dihydro-
Formula: C5 H6 O3
CAS: 108-55-4
Molecular weight: 114
Origin: D.J.MANNING NATIONAL INSTIT. FOR RES. IN DAIRYING, READING, UK
m/z	RELATIVE INTENSITY
25	50
26	460
27	746
29	214
30	29
31	32
32	21
33	14
34	57
35	36
36	21
37	107
38	168
39	746
40	282
41	782
42	9999
43	425
44	1817
45	86
46	14
47	7
48	11
49	14
50	18
51	14
52	18
53	25
54	11
55	156
56	32
57	36
58	39
59	11
60	64
61	7
62	4
63	4
64	11
65	7
66	7
67	14
68	86
69	25
70	3925
71	103
72	39
73	39
74	7
75	4
76	7
77	11
78	11
79	11
80	4
81	14
82	11
83	14
84	7
85	11
86	81
87	25
88	7
89	4
90	4
91	7
92	4
93	7
94	7
95	11
96	7
97	11
114	61
115	5
