Mass Spectrum: Bis(2-chloro-1-methylethyl) ether
Formula: C6 H12 Cl2 O
CAS: 108-60-1
Molecular weight: 170
m/z	RELATIVE INTENSITY
14	20
15	140
16	10
17	10
18	10
19	30
25	10
26	40
27	250
28	70
29	170
30	10
31	100
32	10
33	10
35	10
36	20
37	10
38	40
39	460
40	80
41	2542
42	250
43	420
44	60
45	9999
46	230
47	30
48	20
49	410
50	30
51	130
52	10
53	10
54	10
55	10
56	10
57	80
58	50
59	90
60	10
61	40
62	10
63	20
64	10
65	10
67	10
69	10
71	20
72	10
73	10
74	10
75	40
76	90
77	1291
78	80
79	1011
80	30
81	190
82	10
83	10
85	10
87	10
89	10
91	10
92	10
93	140
94	10
95	50
96	10
97	10
101	10
103	10
105	10
107	30
108	10
109	10
110	10
111	10
113	10
119	10
121	2612
122	150
123	851
124	50
125	10
127	10
130	10
133	10
134	10
135	10
137	10
138	10
155	30
156	10
157	20
