Mass Spectrum: Propanedioic acid, dimethyl ester
Formula: C5 H8 O4
CAS: 108-59-8
Molecular weight: 132
Origin: T.A.BLAZER DU PONT, GIBBSTOWN, N.J., USA
m/z	RELATIVE INTENSITY
12	120
13	223
14	991
15	6049
16	103
26	65
27	462
28	167
29	2596
30	244
31	418
41	381
42	2960
43	1654
44	196
45	930
57	1902
58	413
59	8303
60	193
61	40
69	805
70	62
72	51
73	53
74	3711
75	151
100	400
101	9999
102	482
103	109
104	196
132	326
