Mass Spectrum: Cyclohexylamine
Formula: C6 H13 N
CAS: 108-91-8
Molecular weight: 99
Origin: NIST Mass Spectrometry Data Center, 1992
m/z	RELATIVE INTENSITY
13	8
14	23
15	201
16	12
17	42
18	226
26	142
27	844
28	1604
29	465
30	1136
31	24
32	26
34	6
35	5
37	37
38	114
39	722
40	149
41	709
42	957
43	3062
44	174
45	21
47	16
48	1
49	8
50	65
51	101
52	75
53	193
54	290
55	1
56	9999
57	556
58	20
61	5
62	12
63	15
64	9
65	39
66	31
67	182
68	69
69	89
70	846
71	48
72	2
74	5
75	3
77	50
78	15
79	91
80	35
81	103
82	89
83	9
84	8
93	6
94	8
95	3
96	13
98	160
99	1231
100	85
101	3
