Mass Spectrum: 4-Methyl-2-pentyl acetate
Formula: C8 H16 O2
CAS: 108-84-9
Molecular weight: 144
Origin: Japan AIST/NIMC Database- Spectrum MS-IW-3504
m/z	RELATIVE INTENSITY
14	30
15	319
18	20
26	30
27	649
28	119
29	499
30	10
31	50
37	10
38	40
39	729
40	139
41	2329
42	769
43	9999
44	459
45	659
46	10
50	20
51	40
52	10
53	119
54	30
55	529
56	639
57	659
58	749
59	379
60	50
61	999
62	20
63	10
65	20
66	10
67	119
68	50
69	5829
70	339
71	60
72	20
82	10
83	249
84	3709
85	979
86	90
87	6289
88	299
89	30
100	309
101	399
102	699
103	40
105	10
129	309
130	20
144	70
