Mass Spectrum: Butanoyl chloride, 3-methyl-
Formula: C5 H9 Cl O
CAS: 108-12-3
Molecular weight: 120
Origin: Japan AIST/NIMC Database- Spectrum MS-NW-3537
m/z	RELATIVE INTENSITY
12	20
13	50
14	209
15	609
16	20
18	10
25	30
26	319
27	2779
28	199
29	3199
30	90
31	10
35	90
36	419
37	209
38	419
39	2959
40	589
41	9999
42	2739
43	5499
44	189
45	40
48	10
49	159
50	159
51	149
52	40
53	199
54	50
55	689
56	1239
57	6699
58	289
59	40
60	199
61	30
62	10
63	459
65	139
67	40
68	50
69	1979
70	109
71	30
74	90
75	20
76	40
77	569
78	1759
79	329
80	579
81	60
83	70
84	929
85	5539
86	309
87	50
91	90
92	619
93	40
94	219
101	10
105	639
106	30
107	219
