Mass Spectrum: 4-Heptanol, 2,6-dimethyl-
Formula: C9 H20 O
CAS: 108-82-7
Molecular weight: 144
Origin: Finnish Institute for Verification of the Chemical Weapons Convention -VERIFIN
m/z	RELATIVE INTENSITY
26	20
27	540
28	50
29	561
30	10
31	130
37	10
38	30
39	490
40	90
41	1852
42	240
43	3463
44	691
45	2943
46	70
47	10
50	10
51	30
52	10
53	110
54	20
55	410
56	390
57	811
58	340
59	70
63	10
65	20
66	10
67	100
69	9999
70	651
71	440
72	20
73	30
77	10
79	10
81	10
82	10
83	60
84	30
85	80
86	480
87	4714
88	250
89	20
95	10
98	20
111	50
112	10
126	110
127	20
143	10
