Mass Spectrum: Benzenethiol, 3-methyl-
Formula: C7 H8 S
CAS: 108-40-7
Molecular weight: 124
Origin: NIST Mass Spectrometry Data Center, 1998.
m/z	RELATIVE INTENSITY
15	20
26	50
27	180
28	10
32	20
33	60
34	30
36	10
37	120
38	260
39	1100
40	80
41	90
43	20
45	1160
46	40
47	90
48	10
49	70
50	420
51	630
52	190
53	280
54	20
56	10
57	130
58	230
59	110
60	140
61	290
62	550
63	880
64	170
65	1040
66	100
67	10
68	30
69	650
70	120
71	200
72	20
73	50
74	140
75	80
76	50
77	1020
78	350
79	850
80	300
81	160
82	240
83	110
84	210
85	90
86	100
87	70
88	20
89	650
90	480
91	9999
92	860
93	180
94	30
95	160
96	70
97	420
98	90
99	20
105	10
106	20
107	20
108	230
109	290
110	30
111	10
121	390
122	90
123	1180
124	6919
125	660
126	340
127	30
