Mass Spectrum: Acetic anhydride
Formula: C4 H6 O3
CAS: 108-24-7
Molecular weight: 102
Origin: NIST Mass Spectrometry Data Center, 1998.
m/z	RELATIVE INTENSITY
13	30
14	150
15	550
16	10
25	20
26	30
27	20
29	190
30	10
31	10
40	30
41	210
42	1030
43	9999
44	460
45	200
60	20
87	60
103	10
