Mass Spectrum: Benzene, bromo-
Formula: C6 H5 Br
CAS: 108-86-1
Molecular weight: 156
Origin: NIST Mass Spectrometry Data Center, 1998.
m/z	RELATIVE INTENSITY
25	20
26	70
27	110
36	50
37	330
38	620
39	270
48	50
49	440
50	2960
51	3530
52	170
60	40
61	120
62	130
63	50
72	40
73	370
74	1330
75	820
76	620
77	9999
78	920
79	410
80	50
81	160
82	40
83	10
91	10
93	20
95	10
104	40
105	20
106	40
107	20
116	20
117	50
118	20
119	50
128	30
129	40
130	40
131	40
132	10
141	50
143	40
154	10
156	6659
157	500
158	6429
159	430
160	10
