Mass Spectrum: Mesitylene
Formula: C9 H12
CAS: 108-67-8
Molecular weight: 120
Origin: Japan AIST/NIMC Database- Spectrum MS-NW- 659
m/z	RELATIVE INTENSITY
15	30
26	30
27	359
28	20
29	30
37	30
38	90
39	689
40	70
41	419
42	20
43	10
49	10
50	179
51	529
52	179
53	269
54	20
55	20
57	90
58	139
59	159
60	20
61	30
62	90
63	279
64	50
65	369
66	50
67	30
73	10
74	80
75	60
76	40
77	999
78	359
79	679
80	50
86	20
87	20
89	70
90	20
91	789
92	159
93	70
94	10
98	10
101	20
102	90
103	529
104	279
105	9999
106	919
107	30
115	239
116	60
117	229
118	90
119	1499
120	7009
121	669
122	30
