Mass Spectrum: Formaldehyde, (2,4-dinitrophenyl)hydrazone
Formula: C7 H6 N4 O4
CAS: 1081-15-8
Molecular weight: 210
Origin: Japan AIST/NIMC Database- Spectrum MS-IW-6501
m/z	RELATIVE INTENSITY
14	90
15	40
16	10
25	10
26	169
27	279
28	1309
29	259
30	2619
31	259
32	10
36	10
37	449
38	979
39	2349
40	449
41	539
42	1029
43	179
44	139
45	30
46	159
48	10
49	99
50	969
51	4229
52	2429
53	609
54	229
55	129
56	489
57	20
58	10
60	60
61	739
62	2299
63	6909
64	3599
65	839
66	569
67	169
68	359
69	60
70	10
71	20
73	119
74	959
75	2199
76	1559
77	2119
78	5549
79	8359
80	969
81	129
82	169
83	10
86	70
87	279
88	659
89	2209
90	1769
91	2199
92	1289
93	579
94	159
95	99
96	20
100	10
101	30
102	70
103	239
104	279
105	649
106	739
107	259
108	40
109	10
111	30
116	109
117	449
118	489
119	249
120	99
121	50
122	1989
123	149
124	10
130	30
131	10
132	40
133	60
134	99
135	139
136	149
137	60
138	20
146	30
147	60
148	239
149	40
150	30
151	50
152	1049
153	109
154	30
163	40
164	99
165	40
166	40
168	20
176	40
177	30
178	10
180	3469
181	709
182	149
183	40
192	10
193	20
194	219
195	30
210	9999
211	1029
212	129
213	10
