Mass Spectrum: (2S)-Bornane-10,2-sultam
Formula: C10 H17 N O2 S
CAS: 108448-77-7
Molecular weight: 215
Origin: Japan AIST/NIMC Database- Spectrum MS-IW-4925
m/z	RELATIVE INTENSITY
15	139
26	50
27	1209
28	1809
29	879
30	1419
31	90
32	20
33	10
34	20
37	10
38	70
39	2019
40	489
41	4369
42	929
43	4869
44	2059
45	229
46	30
47	10
48	90
49	10
50	109
51	449
52	329
53	1619
54	889
55	2099
56	1319
57	519
58	369
59	99
60	99
61	20
62	30
63	149
64	209
65	719
66	539
67	3189
68	2459
69	2659
70	1209
71	219
72	40
74	10
75	20
76	30
77	1499
78	379
79	1919
80	1199
81	1799
82	5209
83	6699
84	639
85	639
86	169
87	10
89	30
90	20
91	2439
92	719
93	7259
94	3659
95	3059
96	2139
97	319
98	30
99	10
102	10
103	80
104	70
105	809
106	849
107	1579
108	9999
109	2379
110	1729
111	169
112	10
115	40
116	20
117	149
118	70
119	7509
120	939
121	389
122	2139
123	869
124	129
125	10
130	10
131	30
132	1479
133	299
134	7189
135	1119
136	8589
137	889
138	40
145	30
146	10
147	10
148	60
149	149
150	1549
151	8469
152	969
153	50
157	10
160	20
172	20
200	40
214	20
215	229
216	90
217	20
