Mass Spectrum: Diallyl isophthalate
Formula: C14 H14 O4
CAS: 1087-21-4
Molecular weight: 246
Origin: L.N.Kulikova, V.G. Zaikin, RPFU, Moscow, Russia
m/z	RELATIVE INTENSITY
39	120
41	310
50	60
51	20
57	30
65	40
66	30
74	10
75	70
76	280
77	60
91	130
97	20
103	130
104	230
105	80
115	430
116	110
117	140
119	20
121	40
133	50
143	30
149	290
150	20
161	10
187	20
189	9999
190	1141
191	120
246	561
247	90
