Mass Spectrum: p-Dicyclohexylbenzene
Formula: C18 H26
CAS: 1087-02-1
Molecular weight: 242
Origin: NIST Mass Spectrometry Data Center, 1994
m/z	RELATIVE INTENSITY
4	30
15	40
27	583
28	184
29	928
39	753
41	2877
42	258
43	306
50	52
51	216
52	86
53	426
54	52
55	3950
56	607
57	66
63	132
64	75
65	395
66	52
67	664
68	73
69	196
71	43
75	59
76	112
77	578
78	336
79	476
80	159
81	1265
82	551
83	3884
84	268
89	165
91	6604
92	808
93	115
95	53
100	32
101	36
102	187
103	306
104	1066
105	638
106	71
115	2187
117	9102
118	1055
119	91
127	566
128	2198
129	3351
130	1542
131	928
132	116
139	99
141	572
142	324
143	1343
144	271
145	118
152	119
153	144
154	106
155	175
156	115
157	303
158	830
159	8570
160	1650
161	147
165	66
167	34
169	59
171	88
173	1120
174	208
186	2162
187	408
199	500
200	131
213	141
214	55
242	9999
243	1733
244	151
