Mass Spectrum: n-Propyl chloroformate
Formula: C4 H7 Cl O2
CAS: 109-61-5
Molecular weight: 122
Origin: Japan AIST/NIMC Database- Spectrum MS-NW- 979
m/z	RELATIVE INTENSITY
14	50
15	209
16	20
18	20
25	30
26	359
27	2679
28	609
29	1169
30	219
31	649
32	20
35	149
36	249
37	99
38	169
39	899
40	359
41	3209
42	9999
43	7179
44	719
45	50
49	20
56	10
57	279
58	40
59	559
60	20
63	4859
64	70
65	1569
66	20
78	10
81	99
83	30
93	1529
94	80
95	509
96	20
121	10
