Mass Spectrum: Hexanedioic acid, bis(2-ethoxyethyl) ester
Formula: C14 H26 O6
CAS: 109-44-4
Molecular weight: 290
Origin: RADIAN CORP
m/z	RELATIVE INTENSITY
19	30
26	10
27	490
28	810
29	1510
30	50
31	2120
32	60
39	130
40	10
41	750
42	390
43	1790
44	2240
45	5260
46	120
53	70
54	100
55	2980
56	680
57	160
58	70
59	3450
60	140
61	20
64	70
67	30
68	150
69	170
70	70
71	60
72	9999
73	6800
74	320
81	40
82	100
83	1160
84	1180
85	260
86	250
87	80
88	210
89	330
91	120
99	1490
100	260
101	230
110	110
111	4550
112	640
113	530
114	60
115	60
126	50
127	130
128	510
129	520
130	50
132	160
145	340
146	50
155	2730
156	580
157	310
159	180
172	200
173	610
174	250
183	570
184	40
200	20
201	500
202	60
245	110
246	10
