Mass Spectrum: 5-Hexen-2-one
Formula: C6 H10 O
CAS: 109-49-9
Molecular weight: 98
m/z	RELATIVE INTENSITY
13	50
14	70
15	991
16	10
17	10
18	10
19	10
20	10
25	20
26	290
27	1391
28	340
29	891
30	20
31	40
32	10
36	10
37	70
38	160
39	1121
40	100
41	611
42	300
43	9999
44	260
45	60
46	10
49	30
50	150
51	170
52	70
53	300
54	150
55	1872
56	200
57	40
58	70
59	10
60	10
61	10
62	10
63	10
64	10
65	20
66	10
67	20
68	10
69	40
70	20
71	70
72	10
74	10
77	20
78	10
79	70
80	10
81	10
82	10
83	400
84	40
97	30
98	370
99	40
100	10
