Mass Spectrum: 1-Butanethiol
Formula: C4 H10 S
CAS: 109-79-5
Molecular weight: 90
Origin: NIST Mass Spectrometry Data Center, 1994
m/z	RELATIVE INTENSITY
11	6
12	17
13	57
14	164
15	666
16	4
26	1427
27	6037
28	1988
29	4032
30	93
32	167
33	410
34	356
35	849
36	64
37	248
38	578
39	2607
40	64
41	9999
42	649
43	1143
44	188
45	1801
46	1261
47	3702
48	651
49	324
50	287
51	231
52	85
53	275
54	85
55	2532
56	9599
57	1704
58	579
59	490
60	415
61	1911
62	131
74	8
75	20
76	7
90	4864
91	272
92	227
93	10
