Mass Spectrum: Vinyl ether
Formula: C4 H6 O
CAS: 109-93-3
Molecular weight: 70
Origin: NIST Mass Spectrometry Data Center, 1990.
m/z	RELATIVE INTENSITY
12	101
13	254
14	839
15	1718
16	63
18	8
24	71
25	439
26	2223
27	5737
28	311
29	1722
30	41
31	27
35	18
36	27
37	109
38	159
39	782
40	549
41	2630
42	6806
43	9999
44	3837
45	107
55	51
69	634
70	6862
71	300
72	24
