Mass Spectrum: 1-Butanamine
Formula: C4 H11 N
CAS: 109-73-9
Molecular weight: 73
Origin: Japan AIST/NIMC Database- Spectrum MS-NW- 938
m/z	RELATIVE INTENSITY
15	60
17	20
18	50
26	60
27	349
28	479
29	209
30	9999
31	179
32	10
37	20
38	50
39	229
40	40
41	309
42	189
43	119
44	189
45	40
50	20
51	20
52	10
53	20
54	20
55	80
56	119
57	40
70	10
72	80
73	729
74	40
