Mass Spectrum: Thiourea, N,N'-dibutyl-
Formula: C9 H20 N2 S
CAS: 109-46-6
Molecular weight: 188
Origin: Japan AIST/NIMC Database- Spectrum MS-NW-4247
m/z	RELATIVE INTENSITY
15	119
26	80
27	1089
28	739
29	3489
30	6089
31	129
32	50
33	30
34	80
36	30
38	30
39	569
40	80
41	2609
42	369
43	2549
44	8529
45	279
46	40
47	70
48	10
50	10
51	30
52	20
53	119
54	99
55	1739
56	489
57	4119
58	749
59	179
60	1089
61	90
62	209
64	10
67	20
68	50
69	129
70	129
71	379
72	5609
73	329
74	309
75	289
76	319
77	589
78	30
79	30
81	20
82	109
83	70
84	599
85	369
86	119
87	20
88	60
89	189
90	3469
91	239
92	169
97	70
98	80
99	1909
100	119
101	60
102	30
103	1279
104	1979
105	159
106	90
111	1049
112	339
113	1269
114	169
115	90
116	509
117	1039
118	229
119	60
125	159
126	80
127	109
128	20
129	10
131	809
132	90
133	179
134	10
139	20
141	30
144	20
145	1049
146	599
147	99
148	30
153	30
155	1779
156	209
157	40
159	519
160	60
161	20
173	399
174	40
175	20
186	20
187	1269
188	9999
189	1189
190	499
191	60
