Mass Spectrum: Ethanamine, N-ethyl-
Formula: C4 H11 N
CAS: 109-89-7
Molecular weight: 73
Origin: Japan AIST/NIMC Database- Spectrum MS-NW-8271
m/z	RELATIVE INTENSITY
14	30
15	359
16	10
26	139
27	989
28	1379
29	1509
30	8589
31	139
32	10
33	10
34	10
38	10
39	40
40	90
41	239
42	829
43	209
44	2719
45	70
51	10
52	10
54	30
55	10
56	339
57	129
58	9999
59	369
68	10
70	40
71	20
72	1279
73	2199
74	169
