Mass Spectrum: Butane, 1-bromo-
Formula: C4 H9 Br
CAS: 109-65-9
Molecular weight: 136
Origin: CONTINENTAL OIL CO., PONCA CITY, OKLAHOMA, USA
m/z	RELATIVE INTENSITY
13	76
14	206
15	652
16	24
24	30
25	103
26	1202
27	4991
28	2107
29	5578
30	158
36	27
37	179
38	340
39	1988
40	319
41	6899
42	364
43	437
44	21
49	66
50	204
51	176
52	63
53	171
54	83
55	741
56	1667
57	9999
58	437
59	13
71	14
78	43
79	383
80	175
81	395
82	170
83	26
91	30
92	29
93	290
94	35
95	263
96	21
104	17
105	37
106	65
107	413
108	74
109	368
110	30
119	20
121	17
135	16
136	514
137	36
138	496
139	26
