Mass Spectrum: Ethane, isocyanato-
Formula: C3 H5 N O
CAS: 109-90-0
Molecular weight: 71
Origin: Japan AIST/NIMC Database- Spectrum MS-NW-2722
m/z	RELATIVE INTENSITY
12	40
13	50
14	169
15	869
16	20
18	30
24	10
25	50
26	429
27	1129
28	1879
29	349
30	10
36	10
38	169
39	219
40	549
41	419
42	879
43	1069
44	99
51	20
52	20
54	60
55	349
56	9999
57	269
58	20
68	10
69	10
70	619
71	6059
72	239
73	10
