Mass Spectrum: Propanenitrile, 3-hydroxy-
Formula: C3 H5 N O
CAS: 109-78-4
Molecular weight: 71
Origin: NIST Mass Spectrometry Data Center, 1994
m/z	RELATIVE INTENSITY
12	113
13	135
14	347
15	671
16	6
17	59
18	59
19	19
24	65
25	193
26	711
27	719
28	810
29	2040
30	6
31	9999
32	116
33	28
34	14
36	46
37	109
38	441
39	543
40	1094
41	7289
42	1140
43	281
44	50
50	80
51	418
52	472
53	88
54	80
66	11
67	61
68	76
70	18
72	14
