Mass Spectrum: Piperazine, 1-methyl-
Formula: C5 H12 N2
CAS: 109-01-3
Molecular weight: 100
Origin: NIST Mass Spectrometry Data Center, 1994
m/z	RELATIVE INTENSITY
12	12
13	43
14	271
15	1807
16	22
17	11
26	452
27	1387
28	3860
29	1874
30	1602
31	49
37	16
38	61
39	177
40	386
41	1285
42	5733
43	4723
44	1567
45	161
48	32
49	54
50	13
51	36
52	104
53	13
54	393
55	13
56	2329
57	1422
58	9999
59	363
66	14
67	21
68	70
69	103
70	466
71	237
72	33
73	29
81	68
82	39
83	149
84	68
85	43
95	16
97	59
98	56
100	3136
101	214
