Mass Spectrum: 3-Pyridinol
Formula: C5 H5 N O
CAS: 109-00-2
Molecular weight: 95
Origin: W. KELLY UNILEVER RESEARCH COLWORTH/WELWYN, BEDFORD U.K.
m/z	RELATIVE INTENSITY
26	140
27	250
28	580
29	110
32	20
33	50
37	310
38	610
39	1800
40	960
41	770
42	390
47	110
49	80
50	210
51	220
52	120
53	110
54	50
55	450
56	30
57	20
63	30
64	50
65	60
66	430
67	740
68	950
69	120
75	40
76	60
77	80
78	50
94	350
95	9999
96	540
