Mass Spectrum: Propanoic acid, 2-methyl-, octyl ester
Formula: C12 H24 O2
CAS: 109-15-9
Molecular weight: 200
Origin: V.G.Zaikin, Petrochem. Synth. Inst., Moscow
m/z	RELATIVE INTENSITY
26	90
27	971
28	120
29	991
31	80
36	60
38	60
39	971
40	280
41	3883
42	1872
43	9999
44	360
45	150
51	90
53	170
54	280
55	2512
56	3193
57	3894
58	180
63	30
67	210
68	611
69	2092
70	4384
71	8157
72	390
73	260
81	90
82	591
83	2392
84	2442
85	190
86	50
88	290
89	8287
90	420
91	50
95	50
97	310
98	50
101	160
102	10
110	40
111	90
112	2522
113	280
129	80
157	180
158	20
