Mass Spectrum: Ethanamine, 2-methoxy-
Formula: C3 H9 N O
CAS: 109-85-3
Molecular weight: 75
Origin: Japan AIST/NIMC Database- Spectrum MS-NW-4927
m/z	RELATIVE INTENSITY
13	10
14	60
15	609
16	20
17	40
18	90
26	40
27	169
28	499
29	329
30	9999
31	219
32	20
33	20
39	20
40	40
41	129
42	559
43	189
44	389
45	1109
46	40
47	10
56	20
57	10
58	40
59	40
74	30
75	60
