Mass Spectrum: Ethanol, 2-methoxy-
Formula: C3 H8 O2
CAS: 109-86-4
Molecular weight: 76
Origin: NIST Mass Spectrometry Data Center, 1998.
m/z	RELATIVE INTENSITY
13	10
14	50
15	400
16	10
17	20
19	60
25	10
26	110
27	400
28	110
29	1970
30	170
31	1600
32	40
33	70
37	10
41	40
42	260
43	1080
44	230
45	9999
46	510
47	1150
48	30
56	10
57	20
58	620
59	50
60	20
61	10
75	20
76	750
77	30
