Mass Spectrum: Butanenitrile
Formula: C4 H7 N
CAS: 109-74-0
Molecular weight: 69
Origin: Japan AIST/NIMC Database- Spectrum MS-NW- 927
m/z	RELATIVE INTENSITY
12	20
13	20
14	70
15	209
25	50
26	529
27	2859
28	589
29	6629
30	149
32	70
36	30
37	279
38	319
39	859
40	379
41	9999
42	399
43	20
49	10
50	30
51	139
52	269
53	60
54	119
55	10
57	10
62	20
63	50
64	119
65	20
66	80
67	30
68	80
69	10
70	10
