Mass Spectrum: 2-Methylpiperidine
Formula: C6 H13 N
CAS: 109-05-7
Molecular weight: 99
Origin: Japan AIST/NIMC Database- Spectrum MS-NW- 655
m/z	RELATIVE INTENSITY
15	159
17	30
18	10
26	80
27	599
28	1299
29	459
30	1259
31	10
32	30
37	20
38	60
39	559
40	129
41	949
42	2149
43	1539
44	699
45	20
46	10
50	30
51	60
52	50
53	159
54	169
55	799
56	3039
57	1109
58	319
59	10
62	10
63	20
65	40
66	30
67	139
68	139
69	229
70	1259
71	839
72	40
77	10
78	20
79	30
80	60
81	90
82	159
83	119
84	9999
85	629
86	10
93	30
94	20
96	70
97	90
98	1179
99	1289
100	99
