Mass Spectrum: 10-Undecenoic acid, butyl ester
Formula: C15 H28 O2
CAS: 109-42-2
Molecular weight: 240
Origin: W.Jennings, T.Shibamoto
m/z	RELATIVE INTENSITY
27	70
28	480
29	1311
41	2913
42	390
43	1992
54	611
55	5075
56	9999
57	6095
58	390
59	190
60	2993
61	1391
67	1591
68	1591
69	3753
70	1091
71	921
73	2092
74	390
79	190
80	190
81	1772
82	2572
83	4094
84	3093
85	911
86	70
87	911
88	70
91	70
93	260
94	390
95	911
96	3673
97	2692
98	2092
99	591
100	711
101	1391
102	190
104	70
105	70
107	390
108	190
109	490
110	1111
111	691
112	260
113	260
114	791
115	390
116	490
117	190
119	190
120	70
121	470
122	821
123	1491
124	2923
125	1111
126	70
127	390
128	70
129	721
131	70
133	591
135	70
137	591
138	390
139	70
141	190
142	70
143	190
147	390
148	591
149	1892
150	190
151	70
155	70
165	390
166	1531
167	1311
168	70
183	70
184	70
185	70
