Mass Spectrum: Methylal
Formula: C3 H8 O2
CAS: 109-87-5
Molecular weight: 76
m/z	RELATIVE INTENSITY
12	90
13	200
14	651
15	4114
16	130
17	90
18	10
26	10
27	20
28	230
29	4384
30	310
31	1171
32	60
33	20
37	10
40	10
41	10
42	30
43	80
44	220
45	9999
46	220
47	320
59	10
75	4374
76	140
77	20
