Mass Spectrum: 1H-Pyrrole, 2,5-dihydro-
Formula: C4 H7 N
CAS: 109-96-6
Molecular weight: 69
Origin: Japan AIST/NIMC Database- Spectrum MS-NW-6777
m/z	RELATIVE INTENSITY
12	10
13	20
14	50
15	229
17	10
18	40
24	10
25	40
26	179
27	409
28	2939
29	139
30	379
31	20
32	70
33	209
34	129
36	50
37	339
38	609
39	2249
40	859
41	4589
42	1409
43	3809
44	149
48	10
49	20
50	60
51	80
52	99
53	30
54	139
55	10
62	20
63	30
64	40
65	30
66	109
67	1599
68	9999
69	4579
70	409
71	20
