Mass Spectrum: Octadecanoic acid, octyl ester
Formula: C26 H52 O2
CAS: 109-36-4
Molecular weight: 396
Origin: R.T.HOLMAN,UNIVERSITY OF MINNESOTA
m/z	RELATIVE INTENSITY
26	60
27	550
28	730
29	2060
30	70
31	50
32	140
33	20
36	30
37	20
38	20
39	340
40	110
41	4330
42	1660
43	9660
44	370
45	150
50	20
51	30
52	20
53	180
54	480
55	5190
56	3390
57	9999
58	560
59	170
60	1860
61	5260
62	160
63	70
65	40
66	50
67	700
68	1200
69	4200
70	4000
71	6460
72	390
73	3060
74	300
75	60
77	40
78	30
79	130
80	80
81	620
82	1730
83	4660
84	4330
85	1930
86	140
87	660
88	90
89	70
90	20
91	40
92	20
93	110
94	60
95	550
96	300
97	1860
98	1060
99	450
100	100
101	450
102	150
103	90
104	20
105	20
107	100
108	60
109	300
110	250
111	860
112	9860
113	1490
114	130
115	580
116	440
117	80
119	30
120	20
121	150
122	40
123	190
124	100
125	410
126	120
127	190
128	50
129	1560
130	180
131	40
132	20
133	30
134	20
135	140
136	40
137	90
138	70
139	260
140	80
141	120
142	40
143	280
144	80
145	40
146	20
147	20
148	20
149	110
150	30
151	50
152	50
153	170
154	60
155	80
156	20
157	660
158	120
159	40
161	20
163	80
164	30
165	40
166	40
167	130
168	50
169	60
170	20
171	290
172	220
173	1030
174	110
175	30
177	60
178	20
179	30
180	50
181	90
182	50
183	40
184	20
185	1130
186	170
187	50
188	20
189	20
191	40
192	20
193	30
194	40
195	70
196	60
197	30
198	20
199	280
200	60
201	40
207	40
208	20
209	60
210	40
211	30
213	130
214	60
215	40
216	20
217	20
218	20
219	40
220	40
221	30
222	130
223	60
224	80
225	60
227	230
228	80
229	40
230	20
235	20
236	20
237	20
238	20
239	20
240	20
241	1000
242	190
243	40
246	20
247	70
248	60
249	40
250	20
251	20
252	10
253	10
254	10
255	170
256	60
257	20
264	160
265	180
266	100
267	2200
268	410
269	70
270	30
271	20
272	20
282	60
283	140
284	2860
285	9330
286	1930
287	220
288	40
296	10
297	50
298	30
299	20
300	10
310	10
311	50
312	30
313	20
314	10
321	10
322	30
323	20
324	10
325	70
326	40
327	20
335	10
338	10
339	30
340	100
341	40
342	10
352	20
353	80
354	40
355	20
366	10
367	30
368	60
369	20
370	10
378	20
379	20
380	10
381	10
382	10
394	40
395	60
396	2994
397	830
398	140
399	30
400	10
