Mass Spectrum: Nonanedioic acid, dihexyl ester
Formula: C21 H40 O4
CAS: 109-31-9
Molecular weight: 356
m/z	RELATIVE INTENSITY
15	70
17	220
18	961
19	50
26	90
27	1291
28	1445
29	1892
30	70
31	1331
32	99
38	70
39	871
40	200
41	3713
42	3023
43	9999
44	581
45	450
50	60
51	110
53	200
54	260
55	4544
56	7807
57	2232
58	180
59	200
60	510
61	300
63	90
65	50
67	190
68	160
69	2562
70	1431
71	1431
72	140
73	651
74	80
75	50
76	70
77	160
78	50
79	70
81	100
82	160
83	1231
84	2512
85	5275
86	390
87	310
88	30
89	110
90	20
91	70
94	40
95	60
96	60
97	220
98	130
99	230
100	70
101	230
102	60
103	250
104	80
105	210
106	30
107	70
109	50
110	50
111	190
112	60
113	150
114	70
115	601
116	70
117	240
118	40
119	130
120	20
123	40
124	50
125	180
126	50
127	110
128	50
129	410
130	60
131	150
133	40
134	50
135	20
138	70
139	90
141	150
142	30
143	170
144	70
145	130
152	180
153	50
155	40
156	40
157	320
158	70
159	220
163	70
170	50
171	601
172	70
185	50
199	20
200	120
201	30
214	180
215	40
227	120
228	50
241	290
242	50
255	530
256	90
