Mass Spectrum: 1,2-Ethanediamine, N-methyl-
Formula: C3 H10 N2
CAS: 109-81-9
Molecular weight: 74
Origin: Japan AIST/NIMC Database- Spectrum MS-NW-5025
m/z	RELATIVE INTENSITY
13	20
14	60
15	369
16	40
17	90
18	20
24	10
25	60
27	309
28	1059
29	219
30	1879
31	159
32	10
35	10
36	20
38	30
39	40
40	159
41	289
42	1149
43	589
44	9999
45	479
46	10
50	10
51	20
53	20
54	40
55	80
56	129
57	159
58	70
59	10
73	20
74	549
75	20
