Mass Spectrum: Geranyl isovalerate
Formula: C15 H26 O2
CAS: 109-20-6
Molecular weight: 238
Origin: NIST Mass Spectrometry Data Center
m/z	RELATIVE INTENSITY
27	330
29	330
39	480
40	240
41	4344
42	240
43	811
44	120
51	170
52	110
53	811
55	550
56	110
57	3363
58	150
60	50
63	70
65	170
67	1341
68	4254
69	9999
70	781
77	340
78	70
79	611
80	1421
81	781
82	90
84	200
85	3133
86	170
91	220
92	721
93	3523
94	731
95	330
97	180
105	190
107	801
108	250
111	80
119	130
121	2762
122	400
123	330
136	1451
137	220
138	90
154	200
169	100
