Mass Spectrum: n-Propyl acetate
Formula: C5 H10 O2
CAS: 109-60-4
Molecular weight: 102
Origin: Japan AIST/NIMC Database- Spectrum MS-NW-1063
m/z	RELATIVE INTENSITY
14	60
15	459
17	10
18	70
26	80
27	639
28	139
29	169
30	30
31	479
32	20
37	10
38	30
39	269
40	70
41	689
42	789
43	9999
44	229
45	40
57	109
58	30
59	509
60	50
61	2679
62	60
72	129
73	1379
74	50
87	30
