Mass Spectrum: 2-Hydrazinoethanol
Formula: C2 H8 N2 O
CAS: 109-84-2
Molecular weight: 76
Origin: NIST Mass Spectrometry Data Center
m/z	RELATIVE INTENSITY
15	20
17	40
18	340
19	20
26	40
27	220
28	591
29	530
30	370
31	791
32	190
39	10
40	30
41	100
42	270
43	581
44	170
45	9999
46	190
55	10
56	10
57	140
58	50
59	60
76	811
77	30
