Mass Spectrum: 2H-1,3-Oxazine, tetrahydro-2-(4-methoxyphenyl)-
Formula: C11 H15 N O2
CAS: 109086-77-3
Molecular weight: 193
Origin: P. Vainiotalo, Dep. Chem., Univ. Joensuu, Joensuu, Finland
m/z	RELATIVE INTENSITY
15	220
26	130
27	470
29	370
30	1420
31	710
38	320
39	910
40	70
41	440
42	230
43	220
44	400
45	70
47	300
48	170
49	2810
50	560
51	1210
52	220
53	210
54	200
55	120
56	180
57	120
58	250
59	160
62	190
63	670
64	750
65	850
66	110
70	240
72	150
73	110
74	250
75	180
76	290
77	3270
78	670
79	400
81	190
83	60
84	2100
85	70
86	1350
88	220
89	170
90	210
91	940
92	1260
93	210
94	90
103	160
104	260
105	480
106	200
107	1850
108	270
109	700
110	50
112	180
116	60
117	280
118	660
119	400
120	260
121	4550
122	440
124	610
125	50
132	320
133	460
134	2130
135	9999
136	6660
137	690
138	60
147	140
148	6990
149	4830
150	510
162	750
163	2240
164	260
176	50
192	600
193	540
194	110
