Mass Spectrum: Androst-4-en-3-one, 4-chloro-17-hydroxy-, (17.beta.)-
Formula: C19 H27 Cl O2
CAS: 1093-58-9
Molecular weight: 322
Origin: Drug Lab
m/z	RELATIVE INTENSITY
35	10
36	100
37	10
38	60
39	1271
40	290
41	4394
42	350
43	2672
44	440
45	240
46	10
49	30
50	70
51	741
52	330
53	2562
54	430
55	6015
56	410
57	2322
58	250
59	60
60	10
61	40
62	30
63	360
64	180
65	2372
66	591
67	4134
68	871
69	1041
70	120
71	470
72	70
73	340
74	40
75	370
76	130
77	6075
78	1261
79	5915
80	811
81	3223
82	370
83	631
84	220
85	270
86	200
87	190
88	70
89	490
90	160
91	9999
92	1491
93	7397
94	1451
95	2853
96	410
97	1281
98	180
99	250
100	170
101	330
102	310
103	1421
104	651
105	5645
106	1281
107	4414
108	1101
109	1591
110	831
111	661
112	200
113	891
114	220
115	2652
116	951
117	2452
118	711
119	3123
120	1481
121	4954
122	1621
123	2012
124	811
125	691
126	200
127	1081
128	1922
129	2202
130	1641
131	3433
132	1041
133	3503
134	1201
135	1551
136	1131
137	771
138	240
139	581
140	160
141	1752
142	1001
143	3223
144	1772
145	3653
146	1251
147	4654
148	1591
149	1682
150	360
151	1722
152	520
153	741
154	380
155	1611
156	1952
157	2582
158	9489
159	2752
160	3673
161	1421
162	1341
163	721
164	370
165	1541
166	340
167	671
168	561
169	1011
170	631
171	1922
172	871
173	1962
174	1431
175	941
176	250
177	270
178	190
179	711
180	320
181	671
182	310
183	821
184	340
185	1071
186	510
187	1051
188	390
189	210
190	100
191	110
192	150
193	370
194	190
195	540
196	220
197	601
198	230
199	791
200	591
201	601
202	160
203	200
204	50
205	70
206	50
207	210
208	120
209	470
210	220
211	581
212	290
213	661
214	400
215	430
216	90
217	50
218	20
219	120
220	40
221	240
222	90
223	210
224	120
225	591
226	510
227	2662
228	571
229	430
230	150
231	80
232	40
233	70
234	40
235	330
236	90
237	110
238	30
239	210
240	420
241	330
242	420
243	340
244	350
245	3813
246	741
247	160
248	50
249	110
250	270
251	661
252	190
253	601
254	120
255	30
256	10
257	50
258	270
259	120
260	30
261	30
262	20
263	100
264	20
265	70
266	30
267	70
268	931
269	1551
270	300
271	280
272	50
273	20
275	10
276	10
277	10
278	40
279	40
280	671
281	130
282	210
283	40
284	50
285	60
286	8638
287	3393
288	571
289	200
290	30
291	50
292	10
293	10
294	20
296	10
304	741
305	160
306	250
307	340
308	60
309	100
310	10
320	20
321	20
322	2392
323	500
324	811
325	160
326	20
