Mass Spectrum: Carbanilic acid, n-heptyl ester
Formula: C14 H21 N O2
CAS: 109562-39-2
Molecular weight: 235
Origin: A.A.Kutin, Moscow, Russia
m/z	RELATIVE INTENSITY
33	59
34	16
36	19
37	15
39	3752
40	897
41	7712
43	7837
44	731
45	203
47	2
48	2
50	351
51	798
52	311
53	411
55	2845
57	8423
58	275
59	42
60	32
61	46
62	147
63	428
64	646
65	2057
66	573
67	228
68	138
69	471
70	355
71	145
72	24
73	65
74	47
75	63
77	1719
78	162
79	98
80	64
81	71
82	27
83	106
84	31
85	28
86	13
87	22
88	12
89	28
90	75
91	814
93	9999
94	564
95	43
97	99
98	45
99	30
100	8
101	8
103	11
104	40
106	595
107	97
108	123
109	21
111	15
112	32
114	28
115	24
116	12
117	25
119	737
120	1372
121	122
122	13
123	10
125	17
126	24
127	95
129	48
130	8
131	17
132	60
134	415
137	3445
138	1013
139	84
140	24
142	71
143	48
144	26
145	5
146	5
148	272
149	44
150	19
151	9
152	4
153	20
154	10
155	7
156	15
157	36
158	4
159	9
160	2
162	251
163	26
164	4
165	3
168	24
169	2
170	14
171	51
173	7
176	30
177	3
181	2
182	3
183	23
184	5
185	6
201	11
203	2
223	3
232	7
233	31
235	1754
236	255
237	20
