Mass Spectrum: N-Octadecyl m-nitrobenzamide
Formula: C25 H42 N2 O3
CAS: 109799-65-7
Molecular weight: 418
Origin: NIST Mass Spectrometry Data Center, 1994
m/z	RELATIVE INTENSITY
17	19
28	8
29	78
30	427
39	278
41	2446
42	616
43	3295
44	194
50	179
51	150
53	170
54	261
55	1761
56	792
57	1535
58	77
64	150
65	308
66	93
67	265
68	122
69	933
70	304
71	390
75	277
76	1049
77	236
79	136
81	170
82	121
83	444
84	120
85	170
91	152
92	832
93	111
94	187
95	94
96	62
97	347
98	80
104	1856
105	797
106	169
107	122
109	94
111	107
118	73
119	145
120	2069
121	626
122	221
132	247
133	161
134	953
135	699
136	750
137	143
145	75
146	107
147	225
148	188
149	75
150	9999
151	1101
152	226
161	90
163	736
164	569
165	106
166	90
167	1248
168	150
175	100
177	209
179	3051
180	2319
181	299
191	304
192	144
193	1266
194	304
205	297
207	654
208	274
217	146
219	126
220	148
221	1166
222	236
231	221
233	134
234	417
235	378
236	71
245	175
247	113
248	250
249	595
250	99
259	173
261	97
262	232
263	1426
264	283
273	166
276	277
277	1015
278	160
287	103
289	93
290	237
291	915
292	159
301	96
304	128
305	891
306	205
315	83
318	114
319	915
320	162
332	118
333	454
334	112
346	98
347	408
348	98
357	81
360	74
361	364
362	69
375	304
383	13
388	482
389	311
401	375
402	176
417	106
418	214
