Mass Spectrum: Pregnane-3,17,20-triol, (3.alpha.,5.beta.,20S)-
Formula: C21 H36 O3
CAS: 1098-45-9
Molecular weight: 336
Origin: NIST Mass Spectrometry Data Center
m/z	RELATIVE INTENSITY
15	50
18	70
19	100
25	10
26	40
27	360
28	350
29	1111
30	50
31	190
37	10
38	10
39	420
40	130
41	2863
42	350
43	3633
44	340
45	3253
46	250
47	50
49	10
50	20
51	70
52	60
53	931
54	280
55	3894
56	430
57	1481
58	250
59	170
60	10
61	50
62	10
63	40
64	20
65	500
66	240
67	3633
68	721
69	1672
70	420
71	771
72	100
73	210
74	170
75	70
76	20
77	1641
78	330
79	4204
80	681
81	4154
82	581
83	1641
84	530
85	280
86	60
87	190
88	150
89	80
91	3914
92	701
93	4534
94	1151
95	3733
96	490
97	1121
98	130
99	90
100	170
101	400
102	140
103	250
104	180
105	3964
106	1001
107	4904
108	1271
109	2442
110	430
111	460
112	50
113	50
114	30
115	360
116	180
117	1001
118	370
119	2472
120	831
121	2883
122	681
123	1031
124	220
125	140
126	20
127	60
128	230
129	601
130	220
131	1581
132	380
133	3203
134	771
135	3153
136	561
137	550
138	100
139	120
140	20
141	120
142	110
143	480
144	210
145	2562
146	561
147	3513
148	711
149	1321
150	290
151	340
152	70
153	80
154	20
155	110
156	70
157	460
158	180
159	2482
160	641
161	2702
162	671
163	561
164	120
165	300
166	80
167	30
168	20
169	80
170	40
171	380
172	170
173	1842
174	611
175	941
176	330
177	370
178	60
179	80
180	20
181	20
182	20
183	80
184	30
185	530
186	170
187	711
188	190
189	350
190	90
191	270
192	50
195	10
196	10
197	70
198	30
199	1201
200	250
201	681
202	160
203	440
204	90
205	50
207	30
211	60
212	20
213	641
214	190
215	3703
216	781
217	641
218	190
219	70
220	20
221	10
223	10
224	10
225	40
226	30
227	170
228	400
229	290
230	420
231	270
232	60
233	70
234	20
235	10
236	10
237	10
238	10
239	70
240	30
241	100
242	50
243	40
244	80
245	40
246	350
247	60
248	20
249	20
250	10
253	50
254	40
255	9999
256	2072
257	350
258	50
259	40
260	10
261	10
262	10
264	60
267	110
268	20
269	20
270	10
271	50
272	60
273	4554
274	1001
275	180
276	90
277	20
278	10
281	30
282	40
284	10
285	100
286	20
287	10
288	10
289	40
290	350
291	3023
292	601
293	60
294	10
300	70
301	20
302	10
303	40
316	10
318	440
319	110
320	10
336	10
