Mass Spectrum: Isobutyl acetate
Formula: C6 H12 O2
CAS: 110-19-0
Molecular weight: 116
Origin: NIST Mass Spectrometry Data Center
m/z	RELATIVE INTENSITY
14	100
15	721
16	20
18	10
26	110
27	1031
28	340
29	1041
30	70
31	220
33	10
37	40
38	110
39	1221
40	220
41	2252
42	711
43	9999
44	400
45	160
50	30
51	40
52	10
53	70
54	20
55	450
56	4504
57	641
58	50
59	40
60	30
61	550
62	10
71	641
72	60
73	3323
74	350
75	50
86	430
87	30
101	40
115	10
116	10
117	10
