Mass Spectrum: Thiophene
Formula: C4 H4 S
CAS: 110-02-1
Molecular weight: 84
Origin: NIST Mass Spectrometry Data Center, 1998.
m/z	RELATIVE INTENSITY
12	10
13	10
24	20
25	70
26	230
27	60
32	160
33	40
34	20
36	90
37	500
38	630
39	1870
40	110
41	80
42	170
44	180
45	3780
46	110
47	180
48	90
49	420
50	880
51	450
52	30
56	180
57	1650
58	7299
59	300
60	340
61	10
68	80
69	760
70	40
71	40
80	70
81	520
82	320
83	680
84	9999
85	590
86	490
87	20
