Mass Spectrum: Ethanol, 2-methoxy-, acetate
Formula: C5 H10 O3
CAS: 110-49-6
Molecular weight: 118
Origin: NIST Mass Spectrometry Data Center, 2007
m/z	RELATIVE INTENSITY
14	100
15	871
16	20
17	10
19	10
25	10
26	120
27	290
28	430
29	1261
30	120
31	410
32	10
33	20
39	10
40	10
41	70
42	510
43	9999
44	310
45	5265
46	120
47	20
58	5305
59	320
60	30
61	110
70	60
72	20
73	470
74	30
75	90
76	10
86	10
87	40
88	230
89	10
