Mass Spectrum: Butane, 1,4-dichloro-
Formula: C4 H8 Cl2
CAS: 110-56-5
Molecular weight: 126
Origin: Japan AIST/NIMC Database- Spectrum MS-NW- 819
m/z	RELATIVE INTENSITY
15	10
25	10
26	229
27	1399
28	429
29	509
35	40
36	99
37	50
38	90
39	949
40	90
41	2579
42	149
47	30
48	30
49	679
50	119
51	209
52	30
53	469
54	1299
55	9999
56	469
57	10
60	20
61	129
62	1539
63	639
64	499
65	189
69	10
73	30
75	669
76	50
77	259
78	10
79	10
89	80
90	2979
91	329
92	999
93	90
