Mass Spectrum: Ethane, 1,2-dimethoxy-
Formula: C4 H10 O2
CAS: 110-71-4
Molecular weight: 90
Origin: NIST Mass Spectrometry Data Center, 1990.
m/z	RELATIVE INTENSITY
14	88
15	310
16	32
26	133
27	339
28	649
29	2017
30	142
31	488
32	134
33	45
41	53
42	220
43	745
44	45
45	9999
46	229
47	54
58	1049
59	409
60	1849
61	67
75	39
90	924
91	45
