Mass Spectrum: 1-Propanamine, 2-methyl-N-(2-methylpropyl)-
Formula: C8 H19 N
CAS: 110-96-3
Molecular weight: 129
Origin: NIST Mass Spectrometry Data Center, 1998.
m/z	RELATIVE INTENSITY
15	40
26	20
27	370
28	180
29	650
30	2690
31	40
37	10
38	30
39	650
40	90
41	1860
42	590
43	800
44	510
45	10
50	10
51	20
52	20
53	80
54	70
55	560
56	290
57	3080
58	630
59	20
67	20
68	80
69	20
70	290
71	30
72	310
73	20
80	10
82	30
83	10
84	120
85	10
86	9999
87	630
88	20
98	10
112	10
114	140
115	10
128	120
129	750
130	90
131	10
