Mass Spectrum: 1,2-Ethanediamine, N,N'-dimethyl-
Formula: C4 H12 N2
CAS: 110-70-3
Molecular weight: 88
Origin: Japan AIST/NIMC Database- Spectrum MS-NW-2645
m/z	RELATIVE INTENSITY
14	20
15	219
26	20
27	109
28	559
29	129
30	499
31	70
32	20
39	10
40	30
41	109
42	479
43	229
44	9999
45	549
46	50
54	30
55	50
56	219
57	309
58	1059
59	40
71	20
72	20
87	10
88	349
89	20
