Mass Spectrum: 1-Butanamine, N-methyl-
Formula: C5 H13 N
CAS: 110-68-9
Molecular weight: 87
Origin: Japan AIST/NIMC Database- Spectrum MS-NW-2184
m/z	RELATIVE INTENSITY
15	159
26	30
27	289
28	329
29	269
30	449
31	70
37	10
38	10
39	149
40	30
41	259
42	379
43	209
44	9999
45	269
50	10
51	10
52	10
53	20
54	20
55	60
56	129
57	149
58	369
59	20
70	50
71	10
72	10
84	30
86	90
87	669
88	40
