Mass Spectrum: Isoamyl nitrite
Formula: C5 H11 N O2
CAS: 110-46-3
Molecular weight: 117
Origin: NIST Mass Spectrometry Data Center, 1998.
m/z	RELATIVE INTENSITY
14	20
15	100
16	10
26	120
27	1460
28	50
29	4650
30	2580
31	360
32	10
37	70
38	210
39	2590
40	390
41	9999
42	1430
43	3950
44	480
45	390
46	50
47	10
49	20
50	120
51	140
52	40
53	270
54	60
55	1220
56	430
57	5939
58	380
59	10
60	5119
61	80
62	30
63	10
65	10
67	40
68	20
69	430
70	240
71	1770
72	190
73	10
74	10
78	10
85	80
86	100
87	10
