Mass Spectrum: Thiophene, tetrahydro-
Formula: C4 H8 S
CAS: 110-01-0
Molecular weight: 88
m/z	RELATIVE INTENSITY
1	220
2	20
12	20
13	20
14	80
15	300
16	10
25	30
26	611
27	2402
28	450
29	320
30	10
32	100
33	100
34	150
35	90
36	10
37	100
38	220
39	1401
40	200
41	1011
42	380
43	190
44	30
45	3683
46	3193
47	2602
48	200
49	140
50	140
51	150
52	40
53	460
54	1301
55	1201
56	60
57	240
58	821
59	1762
60	9999
61	410
62	440
63	20
69	60
70	10
71	70
72	20
73	390
74	20
75	20
81	20
82	20
83	10
84	20
85	280
86	40
87	1591
88	5355
89	340
90	230
91	10
