Mass Spectrum: 1,3,5-Trioxane
Formula: C3 H6 O3
CAS: 110-88-3
Molecular weight: 90
Origin: Japan AIST/NIMC Database- Spectrum MS-NW-1446
m/z	RELATIVE INTENSITY
12	10
13	20
14	109
15	70
16	10
17	20
18	119
28	479
29	2649
30	1529
31	9999
32	569
33	50
40	10
42	10
44	50
45	10
59	20
60	50
61	3579
62	90
63	10
89	2479
90	90
91	10
