Mass Spectrum: Hexadecanoic acid, 2-methylpropyl ester
Formula: C20 H40 O2
CAS: 110-34-9
Molecular weight: 312
Origin: Japan AIST/NIMC Database- Spectrum MS-NW-5108
m/z	RELATIVE INTENSITY
14	10
15	20
17	20
18	70
26	40
27	649
28	409
29	2049
30	50
31	90
37	10
38	20
39	489
40	109
41	3669
42	769
43	4059
44	129
45	80
50	10
51	20
52	20
53	159
54	259
55	2409
56	9539
57	9999
58	479
59	99
60	2249
61	879
62	40
63	10
65	30
66	20
67	389
68	269
69	1369
70	429
71	1709
72	109
73	1809
74	239
75	30
77	30
78	10
79	99
80	70
81	379
82	249
83	989
84	569
85	1079
86	119
87	459
88	60
89	40
91	30
92	10
93	80
94	60
95	409
96	179
97	759
98	959
99	319
100	50
101	349
102	90
103	40
105	20
107	50
108	30
109	229
110	109
111	419
112	259
113	179
114	40
115	419
116	899
117	409
118	40
119	10
121	90
122	20
123	139
124	70
125	229
126	70
127	129
128	20
129	1079
130	119
131	20
134	10
135	70
136	20
137	70
138	60
139	129
140	50
141	80
142	10
143	179
144	40
145	10
149	50
150	20
151	30
152	50
153	99
154	40
155	60
156	10
157	309
158	80
159	10
163	30
165	30
166	30
167	60
168	30
169	20
171	309
172	60
173	20
177	20
179	10
181	30
182	20
183	30
185	299
186	50
187	10
192	30
193	10
194	99
195	50
196	70
197	60
198	10
199	119
200	40
201	20
202	10
209	10
210	20
211	30
213	549
214	90
215	10
218	10
219	40
220	40
221	20
223	10
225	20
227	139
228	50
229	20
236	80
237	99
238	50
239	3059
240	599
241	80
242	20
243	10
253	30
254	20
255	50
256	2249
257	2719
258	479
259	50
267	50
268	10
269	20
270	40
271	40
272	10
282	70
283	20
284	40
285	40
286	10
297	50
298	10
311	10
312	309
313	70
314	10
