Mass Spectrum: Decanedioic acid, diethyl ester
Formula: C14 H26 O4
CAS: 110-40-7
Molecular weight: 258
Origin: Japan AIST/NIMC Database- Spectrum MS-NW- 420
m/z	RELATIVE INTENSITY
15	70
18	20
26	99
27	1239
28	609
29	4189
30	99
31	159
39	579
40	149
41	3299
42	909
43	1489
44	90
45	1189
46	30
47	20
48	10
51	30
52	20
53	299
54	409
55	4729
56	989
57	469
58	90
59	399
60	2109
61	1659
62	50
63	10
65	60
66	40
67	849
68	499
69	2549
70	1629
71	349
72	40
73	1409
74	229
75	50
77	50
78	40
79	369
80	309
81	949
82	359
83	1969
84	3079
85	279
86	60
87	449
88	4479
89	459
90	30
91	99
92	40
93	359
94	269
95	849
96	669
97	3489
98	5389
99	439
100	50
101	2679
102	309
103	30
104	60
105	60
106	90
107	429
108	50
109	229
110	509
111	819
112	629
113	99
114	70
115	719
116	169
117	20
119	219
120	229
121	1159
122	169
123	219
124	1019
125	6019
126	539
127	119
128	219
129	1499
130	239
131	80
132	10
133	10
135	30
136	20
137	299
138	2869
139	2029
140	219
141	99
142	70
143	499
144	129
145	10
147	80
148	539
149	269
150	70
151	80
152	40
153	30
154	10
155	109
156	219
157	299
158	1119
159	119
160	20
161	10
164	20
165	149
166	4029
167	839
168	229
169	149
170	1179
171	9529
172	1079
173	99
174	10
176	40
178	30
179	10
180	20
183	40
184	1179
185	499
186	1139
187	149
188	20
192	10
194	99
195	20
196	60
197	10
198	20
199	90
200	20
202	90
203	20
204	10
211	60
212	1579
213	9999
214	1359
215	179
216	20
226	20
227	70
228	10
241	40
258	239
259	60
