Mass Spectrum: Pentane, 1-bromo-
Formula: C5 H11 Br
CAS: 110-53-2
Molecular weight: 150
Origin: Japan AIST/NIMC Database- Spectrum MS-NW-2069
m/z	RELATIVE INTENSITY
14	10
15	119
26	199
27	1869
28	189
29	2219
30	50
37	40
38	90
39	1009
40	189
41	3309
42	3019
43	9999
44	339
50	30
51	50
52	20
53	119
54	50
55	2709
56	139
57	149
63	10
67	20
69	159
70	509
71	8399
72	459
79	10
80	20
81	20
82	20
93	60
95	50
106	20
107	159
108	20
109	169
121	20
123	10
135	20
137	20
150	349
151	20
152	339
153	10
