Mass Spectrum: Sorbic Acid
Formula: C6 H8 O2
CAS: 110-44-1
Molecular weight: 112
Origin: Japan AIST/NIMC Database- Spectrum MS-NW-9066
m/z	RELATIVE INTENSITY
14	10
15	80
17	20
18	80
25	20
26	209
27	909
28	389
29	329
30	20
31	249
32	119
33	70
36	10
37	219
38	529
39	3409
40	929
41	4469
42	519
43	1409
44	129
45	569
46	70
47	109
48	10
49	60
50	279
51	479
52	169
53	559
54	80
55	1349
56	309
57	189
58	269
59	10
60	80
61	129
62	209
63	349
64	99
65	1439
66	2009
67	6409
68	549
69	1539
70	239
71	139
72	10
73	30
77	70
79	279
80	10
81	70
82	60
83	439
84	499
85	40
86	10
91	10
92	10
93	149
94	189
95	699
96	50
97	9999
98	559
99	50
110	20
111	829
112	7769
113	549
114	50
