Mass Spectrum: 1-Butanol, 3-methyl-, formate
Formula: C6 H12 O2
CAS: 110-45-2
Molecular weight: 116
m/z	RELATIVE INTENSITY
14	50
15	370
16	20
17	10
18	40
19	130
25	40
26	290
27	3293
28	2752
29	4964
30	180
31	3693
32	180
33	40
36	10
37	90
38	200
39	2352
40	420
41	6146
42	4704
43	6146
44	390
45	871
46	60
47	681
48	10
49	20
50	100
51	150
52	50
53	370
54	250
55	9999
56	1892
57	3603
58	200
59	360
60	821
61	200
62	20
63	10
65	10
66	10
67	60
68	40
69	591
70	7677
71	601
72	40
73	1752
74	2292
75	130
76	10
83	20
84	20
85	20
86	20
87	210
88	50
89	40
98	20
101	100
113	40
114	10
115	20
116	10
