Mass Spectrum: Diisopropanolamine
Formula: C6 H15 N O2
CAS: 110-97-4
Molecular weight: 133
Origin: NIST Mass Spectrometry Data Center, 1998.
m/z	RELATIVE INTENSITY
14	10
15	110
26	30
27	380
28	540
29	480
30	1590
31	640
32	40
37	10
38	30
39	430
40	90
41	2790
42	5299
43	2130
44	930
45	950
46	30
51	10
52	20
53	20
54	110
55	200
56	440
57	220
58	380
59	340
60	70
67	20
68	220
69	70
70	6589
71	370
72	670
73	40
74	30
76	10
79	20
80	20
81	20
82	50
83	10
84	20
86	60
88	9999
89	600
90	30
94	20
96	40
98	160
99	10
100	190
114	60
115	70
118	340
119	20
132	10
133	40
134	20
