Mass Spectrum: Ethanol, 2-ethoxy-
Formula: C4 H10 O2
CAS: 110-80-5
Molecular weight: 90
Origin: NIST Mass Spectrometry Data Center, 1998.
m/z	RELATIVE INTENSITY
13	10
14	50
15	250
16	20
19	160
25	20
26	320
27	1890
28	470
29	4200
30	270
31	9389
32	250
33	120
37	10
39	20
40	10
41	960
42	430
43	2610
44	640
45	4710
46	180
47	30
56	10
57	70
58	70
59	9999
60	420
61	380
62	40
63	20
72	2470
73	130
74	10
75	120
89	10
90	70
91	10
