Mass Spectrum: Butanediamide
Formula: C4 H8 N2 O2
CAS: 110-14-5
Molecular weight: 116
Origin: Japan AIST/NIMC Database- Spectrum MS-NW-5001
m/z	RELATIVE INTENSITY
12	80
13	60
14	139
15	149
16	779
17	1329
18	1179
24	50
25	189
26	2159
27	2989
28	2749
29	339
30	319
31	20
32	30
34	20
36	40
37	99
38	159
39	159
40	819
41	249
42	389
43	319
44	9999
45	1719
46	169
50	99
51	609
52	1519
53	3109
54	1199
55	4119
56	1239
57	1009
58	70
59	70
60	10
61	10
63	10
64	20
65	10
66	20
67	30
68	10
69	20
70	199
71	429
72	6869
73	9889
74	399
75	30
76	30
77	50
78	50
79	619
80	469
81	80
82	499
83	129
84	10
91	10
95	10
97	50
98	229
99	4189
100	1219
101	80
102	10
116	269
117	20
