Mass Spectrum: Cyclohexene
Formula: C6 H10
CAS: 110-83-8
Molecular weight: 82
Origin: NIST Mass Spectrometry Data Center, 1990.
m/z	RELATIVE INTENSITY
14	389
15	324
16	181
26	533
27	2270
28	88
29	290
32	85
37	238
38	525
39	4436
40	586
41	3051
42	218
49	132
50	904
51	1190
52	594
53	1463
54	6679
55	478
62	88
63	223
65	700
67	9999
68	573
74	134
77	708
78	350
79	868
80	130
81	936
82	3466
83	260
