Mass Spectrum: Pentanal
Formula: C5 H10 O
CAS: 110-62-3
Molecular weight: 86
m/z	RELATIVE INTENSITY
27	1892
28	761
29	4094
31	190
39	1101
40	150
41	3073
42	1101
43	2582
44	9999
45	1021
54	80
55	761
56	270
57	3033
58	4854
67	190
68	110
69	230
70	110
71	450
85	190
86	571
87	40
