Mass Spectrum: 1,2-Ethanediamine, N,N,N',N'-tetramethyl-
Formula: C6 H16 N2
CAS: 110-18-9
Molecular weight: 116
Origin: NIST Mass Spectrometry Data Center, 1998.
m/z	RELATIVE INTENSITY
15	80
26	10
27	70
28	70
29	100
30	340
39	20
40	40
41	130
42	1260
43	310
44	200
45	30
52	10
54	70
55	70
56	430
57	260
58	9999
59	420
60	10
68	10
69	10
70	170
71	180
72	220
73	10
83	30
84	10
85	10
97	10
99	60
116	530
117	40
