Mass Spectrum: 1-Pentanamine
Formula: C5 H13 N
CAS: 110-58-7
Molecular weight: 87
Origin: Japan AIST/NIMC Database- Spectrum MS-NW-3726
m/z	RELATIVE INTENSITY
15	50
17	10
18	20
26	40
27	309
28	279
29	199
30	9999
31	189
38	20
39	179
40	30
41	309
42	229
43	139
44	159
45	329
46	10
50	10
51	20
52	10
53	20
54	20
55	90
56	70
57	10
58	20
59	10
67	10
69	40
70	30
72	10
86	50
87	449
88	30
