Mass Spectrum: 2-Butene-1,4-diol
Formula: C4 H8 O2
CAS: 110-64-5
Molecular weight: 88
Origin: Japan AIST/NIMC Database- Spectrum MS-NW-2870
m/z	RELATIVE INTENSITY
12	10
13	20
14	90
15	389
16	20
17	119
18	469
19	349
20	10
24	10
25	80
26	549
27	2939
28	519
29	3979
30	249
31	5449
32	80
33	30
34	10
36	60
37	289
38	529
39	4359
40	1219
41	5269
42	9399
43	2159
44	1839
45	549
46	10
47	2049
48	30
49	60
50	219
51	249
52	99
53	319
54	309
55	769
56	119
57	9999
58	1099
59	70
60	30
61	10
65	10
66	30
67	30
68	189
69	1819
70	3409
71	289
72	30
73	30
80	10
81	20
82	10
83	20
84	60
85	20
86	20
87	30
88	10
