Mass Spectrum: Decanoic acid, ethyl ester
Formula: C12 H24 O2
CAS: 110-38-3
Molecular weight: 200
Origin: Japan AIST/NIMC Database- Spectrum MS-NW- 455
m/z	RELATIVE INTENSITY
15	50
17	20
18	70
26	50
27	869
28	119
29	2259
30	60
31	60
32	10
39	379
40	80
41	1909
42	539
43	2209
44	70
45	829
46	20
47	10
51	20
52	10
53	109
54	119
55	1319
56	399
57	1139
58	60
59	109
60	1789
61	1749
62	50
63	10
65	10
67	179
68	129
69	879
70	1409
71	849
72	50
73	1869
74	269
75	60
77	10
79	40
80	10
81	199
82	70
83	389
84	389
85	439
86	30
87	299
88	9999
89	859
90	60
91	10
93	20
94	10
95	159
96	20
97	289
98	289
99	30
101	4109
102	389
103	40
107	20
109	20
110	50
111	109
112	60
113	10
115	629
116	60
121	10
125	50
126	30
127	10
129	259
130	50
135	40
136	10
137	30
139	10
143	369
144	50
153	50
154	10
155	1439
156	159
157	989
158	119
171	169
172	30
173	60
200	279
201	40
