Mass Spectrum: Formic acid, propyl ester
Formula: C4 H8 O2
CAS: 110-74-7
Molecular weight: 88
Origin: Japan AIST/NIMC Database- Spectrum MS-NW- 35
m/z	RELATIVE INTENSITY
14	40
15	189
25	20
26	279
27	1749
28	729
29	1009
30	179
31	9999
32	199
33	70
37	70
38	129
39	769
40	279
41	2209
42	8489
43	1039
44	50
45	759
46	20
47	909
55	30
56	129
57	499
58	139
59	769
60	269
61	40
69	10
71	20
73	189
85	10
87	20
88	50
