Mass Spectrum: 2-Hexanone, 5-methyl-
Formula: C7 H14 O
CAS: 110-12-3
Molecular weight: 114
Origin: CONTINENTAL OIL COMPANY, PONCA CITY, OKLAHOMA, USA
m/z	RELATIVE INTENSITY
13	32
14	203
15	1262
16	35
17	32
18	99
25	9
26	178
27	1440
28	475
29	753
30	25
31	51
32	42
36	1
37	38
38	96
39	929
40	141
41	1281
42	400
43	9999
44	260
45	96
48	6
49	8
50	51
51	76
52	28
53	138
54	43
55	395
56	291
57	1112
58	3381
59	765
60	52
61	2
62	5
63	11
64	1
65	12
66	1
67	26
68	1
69	36
70	38
71	824
72	90
73	25
77	9
79	12
80	2
81	274
82	21
83	10
84	2
85	68
86	53
95	9
96	1
97	9
98	1
99	124
100	9
113	9
114	206
115	19
116	1
