Mass Spectrum: 1,2-Hydrazinedicarboxamide
Formula: C2 H6 N4 O2
CAS: 110-21-4
Molecular weight: 118
Origin: Japan AIST/NIMC Database- Spectrum MS-NW- 263
m/z	RELATIVE INTENSITY
12	20
13	10
14	20
15	99
16	519
17	639
18	229
26	50
27	119
28	339
29	699
30	389
31	2989
32	9999
33	70
39	20
41	90
42	459
43	2199
44	5399
45	229
46	10
54	20
55	80
56	30
57	70
58	189
59	40
60	80
64	20
67	30
68	20
69	60
70	30
71	30
73	30
74	10
75	2639
76	60
77	20
79	10
81	40
82	20
83	40
84	20
85	20
90	20
91	10
95	30
96	20
97	40
98	40
100	20
101	1639
102	60
116	40
118	60
