Mass Spectrum: Pentanenitrile
Formula: C5 H9 N
CAS: 110-59-8
Molecular weight: 83
Origin: Japan AIST/NIMC Database- Spectrum MS-IW-2225
m/z	RELATIVE INTENSITY
13	10
14	20
15	129
25	20
26	439
27	3019
28	1079
29	1469
30	50
31	10
36	10
37	169
38	319
39	1799
40	479
41	9769
42	619
43	9999
44	419
45	10
49	50
50	169
51	309
52	459
53	319
54	7039
55	2929
56	319
57	60
61	10
62	10
63	30
64	139
65	30
66	169
67	50
68	309
69	20
75	40
76	30
77	10
78	30
80	30
81	10
82	559
83	40
84	30
