Mass Spectrum: Propanenitrile, 3-(1-methylethoxy)-
Formula: C6 H11 N O
CAS: 110-47-4
Molecular weight: 113
Origin: RADIAN CORP
m/z	RELATIVE INTENSITY
14	40
15	280
18	10
19	110
25	10
26	260
27	1830
28	1190
29	600
30	60
31	390
32	80
37	60
38	180
39	1360
40	510
41	4170
42	1190
43	8700
44	420
45	9020
46	220
47	30
50	50
51	110
52	330
53	90
54	7420
55	630
56	150
57	120
58	90
59	920
60	30
67	10
68	2400
69	120
70	1080
71	540
72	110
73	1020
74	50
82	20
83	50
84	160
85	30
86	20
96	20
98	9999
99	600
100	40
111	260
112	20
