Mass Spectrum: 2,5-Hexanediol, 2,5-dimethyl-
Formula: C8 H18 O2
CAS: 110-03-2
Molecular weight: 146
Origin: Japan AIST/NIMC Database- Spectrum MS-NW-1421
m/z	RELATIVE INTENSITY
14	20
15	249
16	10
17	30
18	109
26	30
27	489
28	249
29	569
30	20
31	1129
32	60
38	20
39	489
40	70
41	1239
42	1049
43	9999
44	239
45	139
48	10
49	10
50	40
51	50
52	20
53	209
54	99
55	3339
56	219
57	249
58	519
59	8159
60	279
61	40
65	20
67	309
68	109
69	629
70	5329
71	449
72	40
73	30
77	139
78	10
79	40
80	20
81	60
82	10
83	20
85	30
91	10
93	50
95	1619
96	129
97	40
109	10
110	159
111	269
112	20
113	2939
114	219
115	30
131	20
