Mass Spectrum: 2-Ethoxyethylamine
Formula: C4 H11 N O
CAS: 110-76-9
Molecular weight: 89
Origin: Japan AIST/NIMC Database- Spectrum MS-NW-3096
m/z	RELATIVE INTENSITY
14	30
15	209
17	30
18	109
26	70
27	449
28	439
29	619
30	9999
31	1049
32	30
33	20
40	30
41	119
42	519
43	219
44	729
45	2319
46	60
56	20
58	50
59	149
60	129
72	20
73	10
88	10
