Mass Spectrum: Butanedinitrile
Formula: C4 H4 N2
CAS: 110-61-2
Molecular weight: 80
Origin: NIST Mass Spectrometry Data Center
m/z	RELATIVE INTENSITY
12	10
13	20
14	20
24	30
25	100
26	731
27	390
28	400
29	20
36	70
37	200
38	581
39	641
40	4114
41	390
42	20
48	30
49	10
50	260
51	1762
52	2903
53	9999
54	901
55	20
62	40
63	40
64	30
76	190
77	300
78	60
79	3793
80	1571
81	80
