Mass Spectrum: 1,2-Ethanediamine, N-ethyl-
Formula: C4 H12 N2
CAS: 110-72-5
Molecular weight: 88
Origin: Japan AIST/NIMC Database- Spectrum MS-NW-5119
m/z	RELATIVE INTENSITY
14	30
15	259
16	20
26	90
27	479
28	879
29	829
30	7889
31	129
32	20
36	30
38	10
39	30
40	80
41	229
42	609
43	279
44	1319
45	80
46	10
47	10
52	10
53	10
54	50
55	40
56	309
57	139
58	9999
59	459
67	10
68	20
69	30
70	50
71	90
72	10
73	30
78	30
80	40
81	10
82	20
84	20
85	10
86	10
88	279
89	20
