Mass Spectrum: Fumaric Acid
Formula: C4 H4 O4
CAS: 110-17-8
Molecular weight: 116
Origin: NIST Mass Spectrometry Data Center
m/z	RELATIVE INTENSITY
14	100
18	40
25	280
26	1802
27	2452
28	110
29	460
32	30
40	80
41	450
42	761
43	891
44	1151
45	7537
46	571
52	400
53	4814
54	2492
55	1932
60	190
63	200
69	500
70	1041
71	2032
72	2032
81	1752
82	591
88	3073
98	9999
99	3944
100	240
116	2282
