Mass Spectrum: 2H-Pyran, 3,4-dihydro-
Formula: C5 H8 O
CAS: 110-87-2
Molecular weight: 84
Origin: NIST Mass Spectrometry Data Center, 1990.
m/z	RELATIVE INTENSITY
14	161
15	252
16	38
26	1618
27	4786
28	3914
29	3948
30	140
31	263
37	324
38	583
39	3467
40	484
41	2450
42	424
43	533
44	151
49	213
50	743
51	857
52	360
53	1520
54	2650
55	9999
56	3248
57	843
65	130
66	137
68	83
69	1127
81	157
83	2643
84	5108
85	275
