Mass Spectrum: Isopropyl myristate
Formula: C17 H34 O2
CAS: 110-27-0
Molecular weight: 270
Origin: Chuck Anderson, Aldrich Chemical Co.
m/z	RELATIVE INTENSITY
14	3
15	19
19	3
25	3
26	22
27	491
28	88
29	976
30	26
31	42
36	6
37	11
38	20
39	541
40	144
41	4618
42	1416
43	9999
44	371
45	288
46	8
47	9
48	3
49	3
50	7
51	18
52	14
53	217
54	327
55	3856
56	1130
57	4951
58	294
59	1833
60	6427
61	2011
62	71
63	17
65	40
66	33
67	532
68	345
69	2178
70	669
71	2440
72	142
73	2952
74	461
75	34
76	6
77	24
78	11
79	110
80	41
81	389
82	223
83	1178
84	666
85	1249
86	100
87	743
88	84
89	70
90	5
91	21
92	4
93	95
94	43
95	485
96	249
97	1297
98	904
99	502
100	72
101	470
102	6666
103	964
104	73
105	14
106	4
107	87
108	29
109	336
110	159
111	693
112	261
113	258
114	53
115	693
116	208
117	45
118	6
119	10
120	3
121	113
122	19
123	158
124	87
125	306
126	79
127	101
129	1880
130	180
131	31
132	3
133	9
134	9
135	94
136	14
137	78
138	54
139	127
140	66
141	18
143	473
144	64
145	16
147	5
148	6
149	47
150	8
151	25
152	13
153	58
154	21
155	10
157	193
158	30
159	11
161	3
163	16
164	24
165	13
166	136
167	49
168	90
169	32
171	431
172	55
173	11
177	10
179	7
180	3
181	13
182	8
183	4
185	1333
186	139
187	17
190	12
191	99
192	41
193	17
195	9
199	205
200	33
201	5
207	4
208	49
209	116
210	23
211	2368
212	327
213	35
214	3
226	9
227	68
228	3380
229	2154
230	276
231	26
255	10
270	87
271	30
272	4
