Mass Spectrum: Decanoic acid, methyl ester
Formula: C11 H22 O2
CAS: 110-42-9
Molecular weight: 186
Origin: NIST Mass Spectrometry Data Center
m/z	RELATIVE INTENSITY
15	80
26	20
27	350
28	120
29	591
30	20
31	40
33	10
39	510
40	110
41	1912
42	550
43	2052
44	80
45	130
50	10
51	40
52	20
53	230
54	170
55	2492
56	480
57	941
58	70
59	1401
60	50
61	30
63	10
65	40
66	20
67	210
68	150
69	1001
70	200
71	410
72	30
74	9999
75	1081
76	70
77	30
78	10
79	70
80	20
81	170
82	70
83	510
84	370
85	240
87	5855
88	591
89	40
91	10
93	30
94	10
95	130
96	20
97	350
98	260
99	30
100	20
101	781
102	60
103	10
107	20
108	10
109	10
110	50
111	90
112	120
113	20
115	220
116	50
117	10
121	10
125	40
126	20
129	581
130	60
135	20
136	20
137	10
139	10
143	1982
144	190
145	10
153	20
155	1071
156	130
157	350
158	40
186	190
187	50
188	10
