Mass Spectrum: L-Cysteine, 3TBDMS derivative
Formula: C21 H49 N O2 S Si3
CAS: 110024-94-7
Molecular weight: 463
Origin: NIST Mass Spectrometry Data Center
m/z	RELATIVE INTENSITY
27	20
29	130
30	10
31	20
39	60
40	10
41	340
42	40
43	100
44	40
45	290
46	30
47	50
53	10
54	40
55	140
56	130
57	841
58	250
59	1081
60	130
61	70
63	10
66	10
67	10
69	10
70	40
71	40
73	9999
74	1011
75	1031
76	80
77	50
82	10
83	30
84	50
85	110
86	130
87	60
88	30
89	20
90	50
91	230
92	20
93	30
95	10
96	10
97	20
98	60
99	220
100	1401
101	310
102	130
103	350
104	50
105	170
106	20
107	10
110	10
111	10
112	20
113	30
114	30
115	661
116	310
117	150
118	110
119	80
120	20
121	10
126	30
127	10
128	160
129	150
130	90
131	150
132	571
133	951
134	180
135	110
136	10
137	10
140	10
142	230
143	40
144	120
145	70
146	130
147	2002
148	460
149	581
150	100
151	50
152	10
156	30
157	40
158	90
159	70
160	250
161	70
162	40
163	80
164	20
165	30
166	10
168	10
170	10
171	10
172	60
173	80
174	190
175	60
176	30
177	10
184	20
185	10
186	10
187	10
188	70
189	110
190	100
191	40
192	20
193	10
200	30
201	10
202	70
203	20
204	10
205	10
206	20
207	10
208	10
214	20
215	10
216	20
217	10
218	110
219	30
220	20
221	10
222	10
223	20
224	10
230	50
231	20
232	10
234	170
235	30
236	20
237	10
242	10
244	20
245	100
246	150
247	90
248	70
249	20
250	10
256	10
258	170
259	40
260	30
261	10
264	10
265	10
274	250
275	80
276	70
277	20
278	10
286	10
287	10
288	20
289	10
290	10
292	10
300	30
302	3984
303	1081
304	4274
305	1071
306	540
307	110
308	30
316	110
317	40
318	20
330	20
331	10
332	10
333	10
334	10
348	10
378	3383
379	1131
380	661
381	160
382	50
383	10
406	3463
407	1181
408	671
409	180
410	60
411	10
420	70
421	30
422	20
448	170
449	60
450	40
451	10
