Mass Spectrum: .beta.-Alanine, 2TBDMS derivative
Formula: C15 H35 N O2 Si2
CAS: 110024-88-9
Molecular weight: 317
Origin: J.M. Halket, Trace Anal. Unit (TAU), London, UK
m/z	RELATIVE INTENSITY
38	10
39	560
40	20
41	2260
42	290
43	900
44	510
45	1460
46	150
47	560
48	20
49	40
51	20
52	40
53	90
54	100
55	410
56	590
57	2330
58	1060
59	2530
60	350
61	260
62	10
63	10
65	10
66	260
67	40
68	30
69	70
70	130
71	130
73	9999
74	1180
75	2380
76	180
77	230
78	20
79	10
80	1890
82	10
83	60
84	70
85	240
86	930
87	420
88	1240
89	140
90	50
93	10
97	40
98	20
99	660
100	370
101	240
103	140
104	390
105	80
107	430
108	40
111	10
112	30
113	40
114	20
115	520
116	210
117	1430
118	260
119	280
120	40
126	10
127	10
128	430
129	130
130	100
131	370
132	900
133	1140
134	210
135	150
136	10
141	20
142	10
144	5320
145	820
146	210
147	5440
148	900
149	440
150	50
152	40
157	10
158	40
159	270
160	130
161	40
162	70
173	50
174	30
175	70
176	20
188	20
189	590
190	120
191	50
202	100
203	20
204	30
215	10
218	7000
219	1410
220	580
221	80
231	60
248	20
258	80
260	2590
261	590
262	240
263	40
273	30
302	100
303	20
