Mass Spectrum: Sarcosine, 2TBDMS derivative
Formula: C15 H35 N O2 Si2
CAS: 110024-89-0
Molecular weight: 317
Origin: J.M. Halket, Trace Anal. Unit (TAU), London, UK
m/z	RELATIVE INTENSITY
39	330
41	1650
42	530
43	690
44	530
45	1390
46	100
47	270
51	10
52	30
53	50
55	210
56	380
57	1910
58	670
59	2240
60	220
61	200
66	130
67	30
68	10
69	40
70	60
71	90
73	9999
74	870
75	1200
76	80
77	30
81	20
83	30
84	30
85	150
86	500
87	180
88	130
89	40
94	20
96	20
97	20
98	10
99	100
100	140
101	420
102	640
103	190
104	40
105	50
113	20
114	70
115	500
116	110
117	290
118	150
119	300
120	40
121	20
128	30
129	40
130	70
131	130
132	100
133	880
134	130
135	70
142	40
143	20
144	120
145	50
147	4640
148	720
149	350
150	30
156	40
158	3420
159	530
160	350
161	60
162	50
170	40
174	210
175	50
176	40
186	20
188	50
189	210
190	50
191	20
204	10
230	10
232	3160
233	680
234	280
235	40
260	1870
261	410
262	160
263	30
274	40
302	80
303	10
