Mass Spectrum: Bis(2-diisopropylaminoethyl) sulfide
Formula: C16 H36 N2 S
CAS: 110501-56-9
Molecular weight: 288
Origin: A.A.Kutin, Moscow, Russia
m/z	RELATIVE INTENSITY
27	290
30	2382
41	981
42	811
43	1271
44	1471
56	300
58	200
70	1081
72	2572
82	490
83	200
84	500
114	9999
115	791
127	1291
128	991
