Mass Spectrum: S-Ethyl S-(2-diisopropylaminoethyl) methylphosphonodithioate
Formula: C11 H26 N O P S2
CAS: 110501-55-8
Molecular weight: 283
Origin: Dennis Rohrbaugh, CBDCOM/ERDEC, Edgewood, MD
m/z	RELATIVE INTENSITY
30	4529
41	1809
42	1449
43	2229
44	1429
56	879
58	409
63	669
70	1409
72	2999
73	309
84	629
85	349
86	339
98	209
111	799
114	9999
115	809
127	799
128	249
139	619
144	119
158	40
171	70
199	179
