Mass Spectrum: 2-Diisopropylaminoethyl ethyl sulfide
Formula: C10 H23 N S
CAS: 110501-54-7
Molecular weight: 189
Origin: Dennis Rohrbaugh, CBDCOM/ERDEC, Edgewood, MD
m/z	RELATIVE INTENSITY
35	389
39	649
41	3089
42	2099
43	3229
44	1739
47	429
55	309
56	1579
58	409
59	359
61	1449
70	1259
71	339
72	6469
73	369
75	179
84	329
85	139
86	409
87	139
89	2259
90	129
98	119
102	129
114	9999
115	829
128	289
144	99
189	129
