Mass Spectrum: Ethane, 1-[(2-diisopropylamino)ethylthio]-2-[(2-diisopropylamino)ethyldithio]-
Formula: C18 H40 N2 S3
CAS: 110501-59-2
Molecular weight: 380
Origin: Dennis Rohrbaugh, CBDCOM/ERDEC, Edgewood, MD
m/z	RELATIVE INTENSITY
45	129
56	409
58	239
59	109
61	209
70	699
71	129
72	1679
73	109
84	289
85	119
86	249
98	109
102	119
112	109
114	9999
115	809
116	50
118	70
119	30
127	40
128	289
129	30
130	60
144	179
145	10
158	20
160	119
161	20
162	20
188	50
204	10
220	10
253	99
254	10
255	10
365	10
