Mass Spectrum: Ethyl Oleate
Formula: C20 H38 O2
CAS: 111-62-6
Molecular weight: 310
Origin: R RYHAGE MS-LAB KAROLINSKA INSTITUTET STOCKHOLM SWEDEN
m/z	RELATIVE INTENSITY
15	1200
17	60
18	250
25	60
26	270
27	1270
28	870
29	3080
30	150
31	220
38	50
39	960
40	230
41	5010
42	1920
43	9999
44	4600
45	1000
46	60
47	50
51	100
52	110
53	650
54	1960
55	6830
56	1860
57	2630
58	280
59	440
60	800
61	770
65	160
66	190
67	2750
68	2490
69	6690
70	2930
71	1380
72	340
73	1430
74	310
75	90
77	160
78	90
79	600
80	470
81	2800
82	1960
83	5180
84	4150
85	870
86	130
87	540
88	5280
89	960
90	70
91	220
92	80
93	410
94	580
95	2180
96	4150
97	5940
98	3660
99	650
100	130
101	4140
102	370
103	70
105	130
106	80
107	350
108	370
109	1450
110	2060
111	2720
112	1720
113	370
114	170
115	730
116	100
117	60
119	300
120	120
121	560
122	230
123	2820
124	1120
125	1200
126	450
127	390
128	390
129	570
130	140
131	50
133	290
134	270
135	430
136	170
137	1340
138	870
139	1080
140	250
141	510
142	540
143	500
144	180
147	290
148	200
149	290
150	140
151	740
152	920
153	490
154	1850
155	1290
156	270
157	560
158	120
161	170
162	80
163	160
164	150
165	680
166	730
167	400
168	110
169	420
170	100
171	240
172	60
175	120
177	80
178	70
179	300
180	2530
181	690
182	120
183	280
184	70
185	190
186	50
189	80
191	50
193	250
194	270
195	110
196	120
197	120
198	60
199	190
200	130
201	70
202	150
206	50
207	200
208	180
209	100
210	50
211	90
213	230
214	100
220	540
221	400
222	2340
223	540
224	80
225	60
227	180
228	120
235	260
236	300
237	70
239	80
241	100
242	90
245	80
246	370
247	190
249	50
253	50
255	70
263	200
264	5910
265	3520
266	610
267	240
268	50
281	80
284	110
308	50
310	2270
311	50
312	150
