Mass Spectrum: Ethane, 1,1'-oxybis[2-methoxy-
Formula: C6 H14 O3
CAS: 111-96-6
Molecular weight: 134
Origin: Japan AIST/NIMC Database- Spectrum MS-NW- 162
m/z	RELATIVE INTENSITY
14	50
15	1199
16	20
18	20
26	109
27	429
28	639
29	2319
30	90
31	2439
32	20
33	99
39	10
41	149
42	109
43	989
44	119
45	3069
46	70
47	20
57	60
58	4249
59	9999
60	329
61	20
72	30
73	20
75	30
76	20
87	169
89	1809
90	80
91	40
102	169
103	20
