Mass Spectrum: 1,2-Ethanediol, diacetate
Formula: C6 H10 O4
CAS: 111-55-7
Molecular weight: 146
Origin: NIST Mass Spectrometry Data Center, 2007
m/z	RELATIVE INTENSITY
14	120
15	731
16	20
18	10
19	10
26	70
27	120
28	160
29	280
30	40
31	70
41	40
42	450
43	9999
44	290
45	90
60	10
61	60
73	561
74	150
75	10
86	1571
87	110
88	30
101	20
103	360
104	50
116	651
117	40
118	10
