Mass Spectrum: Butane, 1-(ethenyloxy)-
Formula: C6 H12 O
CAS: 111-34-2
Molecular weight: 100
Origin: Japan AIST/NIMC Database- Spectrum MS-NW-1216
m/z	RELATIVE INTENSITY
13	10
14	129
15	589
16	10
17	20
18	70
25	20
26	349
27	3139
28	789
29	9999
30	209
31	1559
32	60
37	30
38	90
39	1369
40	229
41	9909
42	479
43	1149
44	3349
45	1169
46	40
47	20
50	50
51	80
52	20
53	189
54	70
55	1139
56	8299
57	6259
58	289
59	539
60	20
61	10
67	40
69	20
70	10
71	80
72	60
73	90
81	10
85	2759
86	159
87	20
99	20
100	1449
101	109
102	10
