Mass Spectrum: Propanenitrile, 3,3'-iminobis-
Formula: C6 H9 N3
CAS: 111-94-4
Molecular weight: 123
Origin: NIST Mass Spectrometry Data Center, 1998.
m/z	RELATIVE INTENSITY
14	20
15	70
25	10
26	230
27	580
28	1610
29	270
30	1040
31	10
36	10
37	20
38	140
39	250
40	770
41	780
42	8289
43	1150
44	40
50	20
51	260
52	830
53	210
54	5879
55	490
56	630
57	110
63	10
65	10
66	150
67	170
68	40
69	30
77	10
79	20
80	10
81	650
82	290
83	9999
84	520
85	10
93	20
94	10
122	10
123	90
