Mass Spectrum: Pentane, 1,5-dibromo-
Formula: C5 H10 Br2
CAS: 111-24-0
Molecular weight: 228
Origin: Japan AIST/NIMC Database- Spectrum MS-NW-1110
m/z	RELATIVE INTENSITY
14	10
15	70
26	169
27	1669
28	209
29	659
37	50
38	119
39	1209
40	209
41	5579
42	819
43	939
44	20
50	40
51	60
52	20
53	309
54	50
55	1129
56	60
57	20
62	10
63	10
65	30
66	20
67	389
68	469
69	9999
70	569
71	10
74	20
75	10
79	40
80	60
81	40
82	50
93	169
95	139
105	10
106	60
107	709
108	60
109	669
110	10
119	40
120	60
121	90
122	60
123	50
135	40
137	40
148	1319
149	1139
150	1339
151	1109
152	60
228	50
230	90
232	40
