Mass Spectrum: Pentane, 1,5-dimethoxy-
Formula: C7 H16 O2
CAS: 111-89-7
Molecular weight: 132
Origin: H.FR.GRUTZMACHER UNIV. OF HAMBURG, W.GERMANY
m/z	RELATIVE INTENSITY
39	310
41	1110
42	480
43	310
45	9999
46	260
47	60
52	20
53	150
54	100
55	600
56	120
57	260
58	1800
59	210
60	20
65	60
66	80
67	830
68	2330
69	630
70	220
71	6520
72	560
73	50
75	40
81	20
82	20
83	30
84	10
85	500
86	20
87	290
88	20
97	30
98	10
99	110
100	3170
101	230
102	40
117	90
