Mass Spectrum: Octanoyl chloride
Formula: C8 H15 Cl O
CAS: 111-64-8
Molecular weight: 162
Origin: NIST Mass Spectrometry Data Center, 1998.
m/z	RELATIVE INTENSITY
26	120
27	2250
29	2230
35	220
36	720
38	390
39	2510
40	450
41	6509
42	3260
43	5169
44	330
51	270
53	700
54	450
55	9999
56	2820
57	4290
58	270
63	570
65	230
67	1170
68	390
69	2150
70	1360
71	280
77	80
78	1320
79	540
80	770
81	250
82	3470
83	2050
84	4030
85	1500
91	910
93	510
97	900
98	3230
99	150
105	90
108	80
109	310
111	170
126	140
127	3140
128	240
134	100
