Mass Spectrum: 1,2-Ethanediamine, N-propyl-
Formula: C5 H14 N2
CAS: 111-39-7
Molecular weight: 102
Origin: RADIAN CORP
m/z	RELATIVE INTENSITY
15	80
18	260
26	20
27	700
28	1300
29	240
30	8300
31	160
32	170
39	370
40	120
41	1720
42	1220
43	2730
44	3950
45	120
54	90
55	30
56	440
57	80
58	330
59	30
67	10
68	60
69	20
70	190
71	100
72	9999
73	850
84	10
85	30
102	240
103	30
