Mass Spectrum: 1,5-Cyclooctadiene
Formula: C8 H12
CAS: 111-78-4
Molecular weight: 108
Origin: Japan AIST/NIMC Database- Spectrum MS-NW- 886
m/z	RELATIVE INTENSITY
15	80
26	179
27	1639
28	309
29	249
37	80
38	219
39	4229
40	379
41	2019
42	109
43	30
44	30
49	30
50	399
51	799
52	439
53	1179
54	9999
55	609
56	20
57	10
61	30
62	80
63	209
64	30
65	809
66	1369
67	8489
68	529
69	30
70	30
74	70
75	30
76	30
77	1229
78	509
79	3439
80	4199
81	349
82	20
83	20
89	30
91	839
92	99
93	1249
94	99
95	10
102	10
103	60
104	20
105	90
106	40
107	139
108	439
109	50
