Mass Spectrum: 1-Hexanethiol
Formula: C6 H14 S
CAS: 111-31-9
Molecular weight: 118
m/z	RELATIVE INTENSITY
1	120
2	20
12	10
13	10
14	40
15	420
16	20
25	20
26	460
27	5755
28	1271
29	4024
30	90
32	90
33	230
34	260
35	581
36	20
37	60
38	140
39	2923
40	480
41	6466
42	3954
43	5715
44	190
45	1401
46	561
47	3293
48	220
49	170
50	70
51	160
52	70
53	450
54	390
55	4254
56	9999
57	691
58	250
59	400
60	350
61	1441
62	120
63	80
64	10
65	50
66	20
67	130
68	90
69	2262
70	160
71	70
72	10
73	70
74	30
75	50
76	10
77	20
79	10
81	20
82	10
83	70
84	1151
85	120
86	20
87	40
88	10
89	290
90	20
91	20
117	50
118	2342
119	180
120	110
121	10
