Mass Spectrum: 9-Octadecenoic acid (Z)-, 2,3-dihydroxypropyl ester
Formula: C21 H40 O4
CAS: 111-03-5
Molecular weight: 356
Origin: Japan AIST/NIMC Database- Spectrum MS-IW-3892
m/z	RELATIVE INTENSITY
14	10
15	139
17	20
18	70
26	50
27	729
28	409
29	2419
30	90
31	649
32	30
36	20
38	20
39	599
40	139
41	5829
42	1179
43	5719
44	649
45	989
46	60
47	40
51	30
52	30
53	549
54	2389
55	9999
56	2359
57	4839
58	349
59	379
60	459
61	629
62	40
63	10
65	149
66	289
67	4829
68	2589
69	6619
70	1719
71	1669
72	129
73	789
74	1639
75	1299
76	90
77	179
78	129
79	1079
80	1079
81	4809
82	3679
83	5029
84	3719
85	1209
86	119
87	519
88	60
89	40
90	40
91	469
92	179
93	919
94	1029
95	3969
96	3769
97	3979
98	8609
99	989
100	209
101	329
102	70
103	90
104	50
105	259
106	139
107	629
108	929
109	2319
110	2349
111	2279
112	3239
113	529
114	269
115	279
116	609
117	179
118	119
119	379
120	219
121	919
122	559
123	1919
124	1489
125	1069
126	819
127	379
128	99
129	1189
130	129
131	109
132	50
133	519
134	1469
135	869
136	369
137	2129
138	1279
139	619
140	289
141	229
142	60
143	229
144	40
145	50
146	30
147	569
148	419
149	489
150	309
151	1659
152	1669
153	499
154	429
155	269
156	50
157	119
158	50
159	40
160	20
161	239
162	179
163	269
164	259
165	939
166	1199
167	379
168	229
169	319
170	50
171	159
172	90
173	30
174	10
175	179
176	169
177	179
178	149
179	519
180	929
181	319
182	219
183	309
184	60
185	339
186	80
187	30
188	10
189	99
190	80
191	109
192	129
193	439
194	409
195	189
196	129
197	90
198	20
199	129
200	50
201	40
203	50
204	30
205	80
206	80
207	599
208	529
209	299
210	169
211	359
212	60
213	109
214	50
215	20
216	10
217	40
218	60
219	70
220	319
221	839
222	599
223	189
224	60
225	90
226	30
227	80
228	99
229	129
230	20
231	20
232	20
233	50
234	70
235	439
236	1099
237	429
238	159
239	359
240	80
241	90
242	119
243	60
244	20
245	60
246	349
247	349
248	70
249	149
250	209
251	99
252	60
253	99
254	50
255	60
256	139
257	129
258	20
260	30
262	309
263	269
264	9579
265	4019
266	669
267	179
268	40
269	50
270	99
271	139
272	30
274	60
275	10
277	10
278	70
279	50
280	70
281	50
282	199
283	109
284	70
285	80
286	10
288	10
290	20
291	10
292	119
293	50
294	10
295	60
296	60
297	99
298	50
299	109
300	30
305	10
307	129
308	40
309	30
310	40
311	40
312	20
313	40
314	10
320	10
322	20
323	20
324	10
325	839
326	199
327	60
328	70
329	20
330	10
336	10
337	30
338	469
339	169
340	90
341	20
342	20
352	10
353	20
354	80
355	20
356	669
357	249
358	50
