Mass Spectrum: 1-Hexanamine
Formula: C6 H15 N
CAS: 111-26-2
Molecular weight: 101
Origin: Japan AIST/NIMC Database- Spectrum MS-NW-8190
m/z	RELATIVE INTENSITY
15	20
17	10
18	129
26	20
27	199
28	199
29	229
30	9999
31	219
32	10
39	139
40	20
41	339
42	169
43	189
44	599
45	489
46	10
51	10
53	20
54	30
55	219
56	219
57	30
58	20
59	90
67	10
68	10
69	70
70	10
72	119
73	10
83	20
84	20
86	60
100	70
101	429
102	70
