Mass Spectrum: Methane, bis(2-chloroethoxy)-
Formula: C5 H10 Cl2 O2
CAS: 111-91-1
Molecular weight: 172
Origin: NIST Mass Spectrometry Data Center, 1990.
m/z	RELATIVE INTENSITY
15	56
26	315
27	1566
28	680
29	742
30	180
31	671
32	108
42	121
43	258
44	471
45	84
47	75
48	107
49	779
50	127
51	243
57	86
60	34
61	182
63	6659
64	319
65	2065
73	178
79	54
93	9999
95	3257
96	100
106	179
108	68
123	1605
125	500
171	143
173	83
