Mass Spectrum: Octadecanoic acid, ethyl ester
Formula: C20 H40 O2
CAS: 111-61-5
Molecular weight: 312
Origin: J. SKOREPA CHARLES UNIVERSITY, PRAGUE, CZECHOSLOVAKIA
m/z	RELATIVE INTENSITY
15	100
26	200
27	500
29	1900
30	100
31	100
38	200
39	200
40	200
41	2200
42	500
43	3800
45	800
52	200
53	300
54	400
55	2400
56	400
57	1700
58	100
59	100
60	1100
61	1300
62	100
66	500
67	200
68	300
69	1100
70	1000
71	600
72	100
73	1300
74	400
75	100
76	200
78	100
79	300
80	100
81	200
82	100
83	600
84	300
85	100
87	400
88	9999
89	2000
90	200
94	100
95	100
97	400
98	600
99	200
101	5900
102	600
104	100
105	100
107	100
109	100
110	100
111	100
112	100
115	600
116	100
119	100
121	300
123	400
125	500
126	100
127	100
129	100
135	300
137	300
139	200
140	100
143	600
144	100
145	100
148	100
151	100
152	100
153	100
157	1300
158	200
164	100
165	100
171	200
176	300
178	100
185	200
199	200
205	100
208	200
209	100
213	300
219	200
222	200
223	100
227	200
228	100
241	200
255	100
267	500
268	100
269	500
270	100
282	100
283	200
295	100
312	1000
313	200
