Mass Spectrum: 1-Heptanamine
Formula: C7 H17 N
CAS: 111-68-2
Molecular weight: 115
Origin: Japan AIST/NIMC Database- Spectrum MS-NW-2823
m/z	RELATIVE INTENSITY
15	30
17	10
18	50
26	20
27	329
28	369
29	299
30	9999
31	189
32	60
38	10
39	219
40	30
41	519
42	219
43	329
44	399
45	509
46	10
50	10
51	10
53	40
54	40
55	349
56	229
57	90
58	20
59	90
67	30
68	30
69	129
70	109
71	20
72	99
73	30
81	10
82	10
83	20
84	10
85	10
86	259
87	20
97	10
98	30
100	30
114	60
115	149
116	10
