Mass Spectrum: Ethanol, 2,2'-[1,2-ethanediylbis(oxy)]bis-, diacetate
Formula: C10 H18 O6
CAS: 111-21-7
Molecular weight: 234
Origin: NIST Mass Spectrometry Data Center, 2007
m/z	RELATIVE INTENSITY
14	30
15	360
16	10
17	10
19	20
26	40
27	180
28	360
29	280
30	60
31	150
32	10
39	10
41	50
42	270
43	6616
44	290
45	460
46	10
55	10
57	90
58	160
59	60
60	10
61	100
69	10
70	260
71	110
72	30
73	220
74	50
75	40
83	10
85	10
86	320
87	9999
88	500
89	90
99	160
100	30
101	120
102	20
103	10
114	60
115	40
117	320
118	20
119	10
130	20
131	80
132	10
174	10
