Mass Spectrum: 2-Octene
Formula: C8 H16
CAS: 111-67-1
Molecular weight: 112
Origin: NIST Mass Spectrometry Data Center, 1990.
m/z	RELATIVE INTENSITY
15	192
26	553
27	4030
28	910
29	4920
30	87
32	35
38	465
39	4366
40	1144
41	9199
42	3751
43	1255
50	250
51	467
52	271
53	1354
54	1466
55	9999
56	5180
57	1787
65	186
67	766
68	643
69	2907
70	4113
71	421
77	137
79	111
82	298
83	1560
84	790
97	147
112	2333
113	221
