Mass Spectrum: 1,2-Ethanediamine, N-ethyl-N'-methyl-
Formula: C5 H14 N2
CAS: 111-37-5
Molecular weight: 102
Origin: RADIAN CORP
m/z	RELATIVE INTENSITY
15	130
26	50
27	370
28	950
29	520
30	3290
31	120
32	10
39	20
40	70
41	220
42	780
43	450
44	5540
45	270
46	60
52	10
54	80
55	50
56	520
57	290
58	9999
59	630
60	30
68	20
69	50
70	50
71	80
72	130
85	40
102	60
103	10
