Mass Spectrum: Hexanedinitrile
Formula: C6 H8 N2
CAS: 111-69-3
Molecular weight: 108
Origin: Japan AIST/NIMC Database- Spectrum MS-NW-8683
m/z	RELATIVE INTENSITY
13	10
14	40
15	139
25	10
26	339
27	1019
28	889
29	70
36	10
37	169
38	249
39	1309
40	509
41	9999
42	569
43	10
49	20
50	90
51	279
52	579
53	389
54	4309
55	2059
56	80
62	10
63	40
64	169
65	30
66	379
67	229
68	5399
69	259
75	30
76	40
77	20
78	20
79	30
80	179
81	20
107	40
109	189
110	10
