Mass Spectrum: Di-n-propyl ether
Formula: C6 H14 O
CAS: 111-43-3
Molecular weight: 102
Origin: NIST Mass Spectrometry Data Center, 1994
m/z	RELATIVE INTENSITY
12	6
14	85
15	544
16	12
19	4
26	541
27	3314
28	482
29	1606
30	173
31	759
37	52
39	1370
41	3158
43	9999
44	835
45	180
46	4
53	12
55	678
56	39
57	116
58	4
59	425
60	22
61	141
62	5
69	6
71	34
73	2127
74	105
75	6
102	954
103	62
