Mass Spectrum: Hexamethylenimine
Formula: C6 H13 N
CAS: 111-49-9
Molecular weight: 99
Origin: Japan AIST/NIMC Database- Spectrum MS-NW-3128
m/z	RELATIVE INTENSITY
14	20
15	339
26	169
27	1329
28	2129
29	929
30	7079
31	119
32	40
33	20
34	10
37	50
38	139
39	1539
40	319
41	3069
42	2919
43	7879
44	4099
45	199
46	30
47	10
49	10
50	60
51	109
52	70
53	269
54	289
55	1179
56	6689
57	5259
58	259
59	10
60	10
61	10
62	20
63	30
64	10
65	60
66	40
67	219
68	659
69	419
70	9999
71	899
72	40
73	10
77	20
79	50
80	50
81	119
82	169
83	30
84	1379
85	90
86	10
96	109
97	139
98	2639
99	6469
100	469
101	40
