Mass Spectrum: Ethanol, 2-(butylamino)-
Formula: C6 H15 N O
CAS: 111-75-1
Molecular weight: 117
Origin: Japan AIST/NIMC Database- Spectrum MS-NW-2114
m/z	RELATIVE INTENSITY
14	30
15	439
16	10
17	30
18	109
26	149
27	1329
28	1389
29	3109
30	8939
31	319
32	50
36	30
37	20
38	50
39	579
40	109
41	2499
42	1759
43	1059
44	6099
45	939
46	20
50	30
51	40
52	40
53	109
54	149
55	509
56	4809
57	2629
58	189
59	30
60	369
61	70
62	10
67	40
68	90
69	70
70	219
71	119
72	199
73	30
74	7359
75	289
76	20
79	10
80	30
81	50
82	60
83	40
84	379
85	30
86	9999
87	609
88	40
95	50
96	10
98	269
99	199
100	70
101	10
102	10
114	20
116	209
117	739
118	50
