Mass Spectrum: 1-Butanamine, N-butyl-
Formula: C8 H19 N
CAS: 111-92-2
Molecular weight: 129
Origin: Japan AIST/NIMC Database- Spectrum MS-NW-8462
m/z	RELATIVE INTENSITY
15	70
26	40
27	609
28	619
29	2069
30	6189
31	99
38	10
39	349
40	40
41	1759
42	459
43	529
44	7199
45	189
51	10
52	10
53	60
54	50
55	309
56	439
57	1729
58	139
68	50
69	10
70	149
71	10
72	249
73	40
82	10
84	169
85	20
86	9999
87	589
88	10
98	20
100	70
112	20
114	20
128	149
129	709
130	99
