Mass Spectrum: 1-Butanol, 4-methoxy-
Formula: C5 H12 O2
CAS: 111-32-0
Molecular weight: 104
Origin: NIST Mass Spectrometry Data Center, 1990.
m/z	RELATIVE INTENSITY
14	24
15	752
18	118
19	76
26	301
27	1333
28	613
29	2456
30	195
31	2075
32	93
33	569
38	126
39	923
40	266
41	1960
42	1548
43	1621
44	2409
45	9999
46	238
53	244
54	110
55	606
56	342
57	510
58	4708
59	252
71	1186
72	322
73	112
74	479
75	112
76	501
85	160
86	208
89	427
