Mass Spectrum: Heptanal
Formula: C7 H14 O
CAS: 111-71-7
Molecular weight: 114
Origin: NIST Mass Spectrometry Data Center
m/z	RELATIVE INTENSITY
14	10
15	120
26	280
27	3323
28	721
29	4424
30	120
31	160
37	60
38	230
39	3924
40	591
41	8998
42	5145
43	8368
44	8838
45	2082
46	50
49	10
50	210
51	360
52	130
53	841
54	931
55	7797
56	921
57	6256
58	711
59	60
61	10
62	30
63	60
65	150
66	110
67	1171
68	2042
69	631
70	9999
71	3153
72	1131
73	60
74	10
77	50
78	10
79	140
80	20
81	3073
82	190
83	110
84	30
85	450
86	1962
87	100
91	10
93	10
95	230
96	1591
97	150
99	40
113	30
114	100
115	10
