Mass Spectrum: 1-Octanamine
Formula: C8 H19 N
CAS: 111-86-4
Molecular weight: 129
Origin: Japan AIST/NIMC Database- Spectrum MS-NW- 666
m/z	RELATIVE INTENSITY
15	20
26	10
27	259
28	119
29	309
30	9999
31	189
32	10
39	169
40	30
41	529
42	199
43	349
44	549
45	539
46	10
53	40
54	40
55	279
56	229
57	109
58	30
59	99
67	30
68	20
69	189
70	119
71	30
72	99
73	30
82	40
83	80
84	70
85	10
86	229
87	30
96	20
97	20
98	20
100	99
101	10
112	30
114	20
128	40
129	90
130	10
