Mass Spectrum: Thiodiglycol
Formula: C4 H10 O2 S
CAS: 111-48-8
Molecular weight: 122
Origin: Japan AIST/NIMC Database- Spectrum MS-NW-1465
m/z	RELATIVE INTENSITY
13	20
15	599
17	50
18	129
25	20
26	209
27	1579
28	309
29	839
30	50
31	1729
32	50
33	30
34	60
35	319
37	10
39	50
41	229
42	209
43	1089
44	1499
45	5359
46	1639
47	2679
48	989
49	889
50	50
51	40
53	10
55	10
56	20
57	70
58	249
59	1049
60	1879
61	9999
62	579
63	479
64	40
71	20
73	349
74	349
75	339
76	159
77	90
78	50
79	50
83	30
85	50
86	40
87	30
89	20
91	3309
92	669
93	169
94	30
103	70
104	3369
105	269
106	169
107	10
120	10
122	419
123	30
124	20
