Mass Spectrum: Ethanol, 2,2'-oxybis-
Formula: C4 H10 O3
CAS: 111-46-6
Molecular weight: 106
Origin: NIST Mass Spectrometry Data Center, 1998.
m/z	RELATIVE INTENSITY
14	20
15	110
19	220
26	80
27	700
28	210
29	980
30	90
31	1020
32	40
33	20
41	30
42	190
43	1200
44	1060
45	9999
46	270
47	220
57	50
58	180
59	20
60	30
61	70
63	60
73	20
75	2270
76	1180
77	50
88	40
