Mass Spectrum: Ethanol, 2-(2-propenyloxy)-
Formula: C5 H10 O2
CAS: 111-45-5
Molecular weight: 102
Origin: RADIAN CORP
m/z	RELATIVE INTENSITY
14	60
15	280
19	370
26	510
27	1950
29	3020
30	370
31	4400
37	210
38	580
39	5520
40	840
41	9999
42	2340
43	2610
44	710
45	3560
46	90
53	40
54	120
55	770
56	600
57	3050
58	6070
59	920
60	20
61	230
69	170
71	2050
72	80
73	80
83	230
101	30
