Mass Spectrum: Octanoic acid, methyl ester
Formula: C9 H18 O2
CAS: 111-11-5
Molecular weight: 158
m/z	RELATIVE INTENSITY
15	360
16	20
17	40
18	100
26	50
27	681
28	250
29	841
30	30
31	100
33	20
38	30
39	591
40	130
41	1802
42	591
43	2202
44	200
45	160
50	30
51	50
52	30
53	170
54	110
55	1702
56	330
57	1501
58	90
59	1201
60	50
61	30
65	30
67	170
68	70
69	691
70	180
71	120
72	20
73	220
74	9999
75	771
76	70
77	30
79	40
81	80
82	70
83	340
84	380
85	140
87	4204
88	470
89	40
93	20
95	40
96	30
97	200
98	220
99	40
100	20
101	741
102	60
107	20
108	20
109	90
110	20
111	60
113	30
115	941
116	100
123	20
124	20
125	70
126	30
127	1501
128	140
129	470
130	60
141	20
143	60
153	20
157	20
158	350
159	70
