Mass Spectrum: 2-Ethoxyethyl acetate
Formula: C6 H12 O3
CAS: 111-15-9
Molecular weight: 132
Origin: NIST Mass Spectrometry Data Center, 2007
m/z	RELATIVE INTENSITY
14	70
15	540
16	20
18	10
19	40
25	10
26	170
27	911
28	440
29	1842
30	110
31	3073
32	40
33	10
39	10
40	10
41	350
42	490
43	9999
44	2072
45	1071
46	30
55	10
57	50
58	250
59	3653
60	140
61	370
62	10
70	150
72	3573
73	490
74	220
75	40
87	931
88	771
89	160
90	10
103	10
