Mass Spectrum: Octane, 1-chloro-
Formula: C8 H17 Cl
CAS: 111-85-3
Molecular weight: 148
Origin: Japan AIST/NIMC Database- Spectrum MS-NW- 874
m/z	RELATIVE INTENSITY
15	60
26	99
27	1889
28	399
29	2509
30	60
35	10
36	80
38	40
39	1389
40	229
41	5779
42	1939
43	7779
44	249
49	209
50	40
51	109
52	40
53	349
54	249
55	5819
56	2339
57	3729
58	159
61	20
62	50
63	409
64	30
65	129
66	10
67	239
68	259
69	3749
70	2099
71	1319
72	80
75	60
76	30
77	219
78	10
79	70
81	40
82	99
83	1699
84	649
85	199
86	10
90	50
91	9999
92	449
93	3399
94	139
97	99
98	20
104	20
105	999
106	60
107	309
108	20
112	50
113	10
119	50
121	20
