Mass Spectrum: 2-Octynoic acid, methyl ester
Formula: C9 H14 O2
CAS: 111-12-6
Molecular weight: 154
Origin: Japan AIST/NIMC Database- Spectrum MS-IW-5090
m/z	RELATIVE INTENSITY
14	10
15	529
16	10
17	10
18	80
26	139
27	1589
28	489
29	3809
30	109
31	119
32	40
33	70
37	139
38	609
39	2519
40	469
41	4959
42	1149
43	879
44	99
45	239
46	10
47	10
49	30
50	329
51	699
52	579
53	2309
54	569
55	5909
56	1089
57	1559
58	99
59	2669
60	90
61	99
62	90
63	199
64	80
65	899
66	2969
67	4509
68	1759
69	1509
70	399
71	219
72	60
73	119
74	299
75	60
76	10
77	939
78	189
79	4839
80	1629
81	2349
82	589
83	319
84	109
85	669
86	60
87	129
88	40
89	10
90	10
91	489
92	80
93	3219
94	2429
95	9999
96	939
97	1649
98	1879
99	1389
100	1789
101	109
102	10
103	20
104	10
105	50
106	10
107	1099
108	109
109	139
110	50
111	1889
112	579
113	319
114	40
119	10
120	10
121	859
122	1309
123	7289
124	659
125	1649
126	579
127	60
136	30
137	80
138	20
139	1359
140	119
141	10
153	299
154	40
155	109
156	10
