Mass Spectrum: 1,2-Ethanediamine, N-(2-aminoethyl)-
Formula: C4 H13 N3
CAS: 111-40-0
Molecular weight: 103
Origin: NIST Mass Spectrometry Data Center
m/z	RELATIVE INTENSITY
15	60
17	20
18	330
26	20
27	190
28	761
29	200
30	2022
31	40
32	10
39	20
40	80
41	280
42	1211
43	831
44	9999
45	350
52	10
54	110
55	110
56	1071
57	190
58	80
59	90
61	60
68	30
69	50
71	60
73	6386
74	380
85	30
86	390
87	30
103	30
