Mass Spectrum: Bis(2-chloroethyl) ether
Formula: C4 H8 Cl2 O
CAS: 111-44-4
Molecular weight: 142
Origin: NIST Mass Spectrometry Data Center, 1990.
m/z	RELATIVE INTENSITY
26	885
27	3659
28	230
29	1003
30	209
31	533
35	105
36	81
39	61
40	86
41	97
42	276
43	368
44	259
45	198
47	126
48	185
49	1091
50	224
51	352
57	66
60	51
61	221
63	6412
64	321
65	2065
66	50
79	83
93	9999
95	3204
96	116
106	276
108	93
142	126
144	74
