Mass Spectrum: Silane, dimethyl-
Formula: C2 H8 Si
CAS: 1111-74-6
Molecular weight: 60
Origin: R.W.CRAWFORD UNIV. OF CALIFORNIA, LIVERMORE, CALIFORNIA, USA
m/z	RELATIVE INTENSITY
2	157
12	83
13	145
14	340
15	1046
16	48
17	4
18	9
25	6
26	42
27	115
28	2952
29	2420
30	400
31	2324
32	123
33	74
40	164
41	1150
42	2702
43	6616
44	6230
45	8168
46	666
47	262
48	3
52	120
53	863
54	171
55	426
56	72
57	666
58	7030
59	9999
60	950
61	347
62	10
63	5
