Mass Spectrum: Carbamic acid, monoammonium salt
Formula: C H6 N2 O2
CAS: 1111-78-0
Molecular weight: 78
Origin: Japan AIST/NIMC Database- Spectrum MS-NW-5009
m/z	RELATIVE INTENSITY
12	119
14	20
15	80
16	2269
17	3249
18	3109
22	119
28	499
44	9999
45	119
46	40
