Mass Spectrum: 1,4-Pentadiene, 3,3-dimethyl-
Formula: C7 H12
CAS: 1112-35-2
Molecular weight: 96
Origin: D.HENNEBERG, MAX-PLANCK INSTITUTE, MULHEIM, WEST GERMANY
m/z	RELATIVE INTENSITY
25	13
26	137
27	1513
28	73
29	468
30	13
31	6
32	9
34	2
35	7
37	51
38	144
39	1816
40	309
41	3939
42	231
43	159
44	1
45	25
46	20
47	4
48	5
49	28
50	215
51	412
52	209
53	2385
54	824
55	1012
56	234
57	6
60	4
61	19
62	53
63	95
64	22
65	367
66	305
67	886
68	366
69	533
70	40
71	4
72	3
73	4
74	20
75	37
76	10
77	477
78	74
79	2076
80	228
81	9999
82	659
83	18
84	3
85	3
86	3
88	3
89	5
90	4
91	33
92	7
93	37
94	13
95	327
96	976
97	68
98	6
