Mass Spectrum: Ferrocene, decachloro-
Formula: C10 Cl10 Fe
CAS: 11121-63-4
Molecular weight: 526
m/z	RELATIVE INTENSITY
92	1001
94	300
95	3003
96	200
97	801
106	200
117	300
119	300
130	4804
131	300
132	2803
133	200
134	400
141	701
143	701
145	200
150	300
165	4504
166	300
167	4504
168	200
169	1201
170	200
185	300
187	200
190	300
192	200
200	200
202	300
221	300
223	300
225	200
235	2202
237	3503
238	200
239	2002
241	500
260	200
262	300
264	300
265	300
266	200
291	4504
292	300
293	7006
294	400
295	5305
296	200
297	1501
298	200
330	500
332	1501
333	200
334	1201
336	500
366	100
368	100
370	100
400	1501
402	4004
403	300
404	4504
405	400
406	3003
407	300
408	1201
410	300
494	200
496	200
498	200
526	2602
527	300
528	7006
529	1001
530	9999
531	1301
532	8007
533	1001
534	4504
535	500
536	2002
537	200
538	400
