Mass Spectrum: Tetra-N-butylammonium chloride
Formula: C16 H36 Cl N
CAS: 1112-67-0
Molecular weight: 277
Origin: Japan AIST/NIMC Database- Spectrum MS-NW-8201
m/z	RELATIVE INTENSITY
12	10
15	70
26	109
27	889
28	969
29	1759
30	679
31	10
36	70
37	20
38	50
39	459
40	80
41	2449
42	789
43	819
44	1139
45	30
49	50
50	40
51	40
52	10
53	80
54	60
55	489
56	1899
57	1549
58	889
59	30
62	20
63	60
64	10
65	20
67	10
68	40
69	30
70	169
71	40
72	119
80	10
82	30
83	10
84	319
85	30
86	349
87	20
96	20
98	369
99	30
100	4639
101	339
107	20
109	20
112	40
114	20
126	20
128	109
129	10
136	50
138	50
140	90
141	10
142	9999
143	1059
144	50
156	60
168	10
183	10
184	119
185	649
186	109
242	199
243	30
