Mass Spectrum: 1,6,10,14-Hexadecatetraen-3-ol, 3,7,11,15-tetramethyl-, (E,E)-
Formula: C20 H34 O
CAS: 1113-21-9
Molecular weight: 290
Origin: Japan AIST/NIMC Database- Spectrum MS-NW-1497
m/z	RELATIVE INTENSITY
14	10
15	20
17	10
18	40
26	20
27	559
28	339
29	729
30	10
31	20
32	90
36	10
38	10
39	739
40	219
41	5299
42	279
43	1079
44	40
45	40
48	20
50	20
51	119
52	80
53	1039
54	109
55	2449
56	159
57	389
58	40
59	20
63	30
64	10
65	319
66	119
67	1619
68	929
69	9999
70	609
71	769
72	40
75	30
77	819
78	159
79	1409
80	579
81	4839
82	669
83	559
84	60
85	40
89	10
91	999
92	429
93	3669
94	629
95	1629
96	219
97	239
98	20
99	10
102	10
103	70
104	40
105	949
106	269
107	1709
108	359
109	1039
110	139
111	109
112	10
113	10
115	60
116	20
117	99
118	60
119	1279
120	719
121	969
122	329
123	549
124	70
125	50
127	10
128	20
129	30
130	10
131	129
132	329
133	849
134	609
135	929
136	389
137	499
138	80
139	20
141	10
142	10
143	20
144	10
145	179
146	139
147	519
148	249
149	179
150	50
151	40
152	10
153	20
157	20
158	10
159	239
160	80
161	569
162	139
163	99
164	50
165	20
166	10
171	10
173	70
174	30
175	129
176	50
177	109
178	30
179	40
185	10
187	219
188	90
189	199
190	119
191	129
192	40
193	20
199	10
201	80
202	40
203	279
204	169
205	40
206	20
213	10
215	40
216	40
217	30
218	10
220	10
221	10
227	20
229	109
230	40
231	10
243	20
244	10
245	10
255	10
257	80
258	20
259	10
270	20
272	329
273	70
274	40
275	10
290	20
