Mass Spectrum: Silane, dimethyldi-2-propenyl-
Formula: C8 H16 Si
CAS: 1113-12-8
Molecular weight: 140
Origin: RADIAN CORP
m/z	RELATIVE INTENSITY
29	140
31	260
38	20
39	390
41	160
42	140
43	1580
44	210
45	620
46	40
53	210
54	60
55	410
56	60
57	270
58	250
59	5350
60	370
61	80
65	20
66	120
67	210
68	40
69	270
70	120
71	2300
72	290
73	830
74	70
80	100
81	110
82	20
83	540
84	70
85	140
95	160
96	40
97	1730
98	500
99	9999
100	1110
101	310
102	10
112	30
125	150
126	10
140	100
