Mass Spectrum: Pebulate
Formula: C10 H21 N O S
CAS: 1114-71-2
Molecular weight: 203
Origin: ACCUSTANDARD Chemicals / NIST MS Data Center.
m/z	RELATIVE INTENSITY
14	17
15	222
17	3
18	15
24	4
26	192
27	2161
28	972
29	3349
30	795
31	30
33	12
34	8
35	17
37	13
39	845
41	4404
42	1551
43	3170
44	893
45	266
46	173
47	377
48	21
49	14
50	10
51	15
52	9
53	76
54	102
55	405
56	1074
57	9999
58	1515
59	130
60	73
61	156
62	45
63	11
64	5
67	9
68	25
69	32
70	138
71	5
72	4728
73	217
74	56
75	47
76	60
77	16
78	7
81	4
82	10
84	232
85	30
86	116
87	30
88	37
89	187
90	214
91	14
92	9
98	37
100	205
101	19
103	150
104	28
105	29
106	11
112	40
113	4
114	19
116	13
117	7
118	53
119	18
125	5
128	6106
129	486
130	49
131	5
132	781
133	62
134	35
146	16
158	4
160	441
161	758
162	150
163	31
164	9
170	22
174	31
188	13
203	621
204	89
205	31
206	3
