Mass Spectrum: N,N-Diethylpropionamide
Formula: C7 H15 N O
CAS: 1114-51-8
Molecular weight: 129
Origin: Japan AIST/NIMC Database- Spectrum MS-NW-4184
m/z	RELATIVE INTENSITY
14	20
15	199
26	149
27	1049
28	469
29	3449
30	869
31	20
32	10
39	30
40	40
41	119
42	539
43	80
44	2629
45	80
46	40
51	10
52	20
53	10
54	70
55	159
56	369
57	2479
58	9999
59	369
60	10
68	10
70	70
71	40
72	1869
73	119
74	30
77	20
78	10
84	10
86	499
87	20
98	10
100	1169
101	199
102	20
114	259
115	20
128	20
129	2939
130	259
131	20
