Mass Spectrum: Octadecanoic acid, 9,10-dihydroxy-, methyl ester
Formula: C19 H38 O4
CAS: 1115-01-1
Molecular weight: 330
Origin: NIST Mass Spectrometry Data Center, 1994
m/z	RELATIVE INTENSITY
15	1163
17	58
18	216
19	117
26	127
27	1673
29	4273
30	235
31	1099
33	69
39	1114
41	6661
42	1384
43	6292
44	1831
45	771
47	67
50	30
51	48
52	35
53	430
54	625
55	8250
56	1078
57	5334
58	535
59	2239
60	191
61	77
65	115
67	3476
68	946
69	4353
70	576
71	1135
72	162
73	77
74	4984
75	954
76	61
77	129
78	45
79	464
80	264
81	1606
82	737
83	2498
84	1572
85	541
86	45
87	3611
88	370
89	74
91	184
92	59
93	365
94	606
95	1198
96	1819
97	1211
98	411
99	207
100	118
101	737
102	137
103	29
105	65
107	224
109	2931
110	919
111	528
112	436
113	298
114	258
115	483
116	65
117	63
119	196
120	240
121	187
123	297
124	92
125	249
126	63
127	582
128	268
129	250
130	47
131	57
133	48
135	67
136	93
138	3188
139	497
140	83
141	216
142	85
143	189
144	45
145	177
146	26
147	30
149	106
150	39
151	37
152	50
153	75
154	26
155	9999
156	1347
157	234
158	683
159	177
165	40
167	81
168	46
169	85
170	389
171	92
173	48
179	33
181	33
185	156
187	3505
188	689
189	189
195	22
201	150
202	25
207	28
213	27
221	20
229	38
244	16
245	7
281	91
