Mass Spectrum: (CH3O)2CS
Formula: C3 H6 O2 S
CAS: 1115-13-5
Molecular weight: 106
Origin: Dennis Rohrbaugh, CBDCOM/ERDEC, Edgewood, MD
m/z	RELATIVE INTENSITY
43	439
45	3129
46	779
47	2689
48	249
59	1599
60	1739
61	6839
62	419
63	369
75	3289
76	2279
77	259
78	119
91	60
92	30
94	50
106	9999
107	1349
108	529
109	70
