Mass Spectrum: Butanedioic acid, acetyl-, diethyl ester
Formula: C10 H16 O5
CAS: 1115-30-6
Molecular weight: 216
Origin: RADIAN CORP
m/z	RELATIVE INTENSITY
37	10
38	40
39	190
41	200
42	620
43	9999
44	290
45	560
46	30
47	50
50	30
51	10
52	30
53	170
54	190
55	3760
56	280
57	50
58	10
61	30
68	20
69	110
70	140
71	380
72	310
73	1640
74	90
75	20
81	30
82	80
83	50
85	20
96	20
97	730
98	240
99	790
100	3000
101	1630
102	150
103	20
115	510
116	30
117	120
124	140
125	280
126	30
127	350
128	4330
129	250
130	60
141	20
142	110
143	2720
144	230
145	120
146	20
155	20
170	50
171	800
172	80
173	10
174	2120
175	200
176	20
216	20
217	40
