Mass Spectrum: 1-Octanamine, N,N-dioctyl-
Formula: C24 H51 N
CAS: 1116-76-3
Molecular weight: 353
Origin: Japan AIST/NIMC Database- Spectrum MS-NW-9025
m/z	RELATIVE INTENSITY
27	129
28	40
29	259
30	80
39	109
40	20
41	699
42	169
43	1269
44	319
53	30
54	20
55	399
56	129
57	1459
58	559
59	20
67	40
68	20
69	219
70	109
71	1159
72	90
79	10
81	20
82	30
83	30
84	139
85	20
86	10
95	10
96	20
97	10
98	169
99	10
100	10
110	10
112	289
113	239
114	20
124	10
126	109
127	10
140	90
141	10
142	159
143	10
154	239
155	60
156	1249
157	139
168	50
170	50
182	40
184	10
196	30
198	10
210	30
212	10
224	20
226	10
238	10
240	149
241	30
242	10
250	10
252	379
253	70
254	9999
255	1919
256	169
257	10
268	20
278	10
280	279
281	60
282	50
283	10
296	20
306	10
308	10
310	70
311	10
324	40
325	10
338	30
350	20
351	40
352	289
353	279
354	70
355	10
