Mass Spectrum: o-Methoxybenzoic acid, tetradecyl ester
Formula: C22 H36 O3
CAS: 111722-03-3
Molecular weight: 348
Origin: Zaikin V.G., TIPS RAS, Moscow, Russia
m/z	RELATIVE INTENSITY
26	40
27	170
28	10
29	410
30	10
31	10
36	10
37	10
38	30
39	200
40	40
41	971
42	220
43	1171
44	90
50	60
51	130
52	20
53	80
54	130
55	961
56	310
57	641
58	20
62	10
63	90
64	120
65	90
66	20
67	190
68	130
69	500
70	210
71	220
72	10
74	10
75	10
76	90
77	1251
78	170
79	240
80	20
81	90
82	90
83	260
84	100
85	100
90	20
91	30
92	470
93	70
94	50
95	40
96	30
97	140
98	40
104	40
105	701
106	200
107	130
108	80
109	30
110	10
111	40
112	20
118	20
119	30
120	190
121	230
122	100
123	2202
124	170
125	20
126	10
133	701
134	420
135	9999
136	801
137	80
138	20
139	10
151	370
152	4254
153	6636
154	561
155	60
165	20
179	20
180	60
193	10
194	20
196	10
221	50
222	10
277	10
291	10
348	631
349	150
350	20
