Mass Spectrum: Octane, 3-chloro-
Formula: C8 H17 Cl
CAS: 1117-79-9
Molecular weight: 148
Origin: NIST Mass Spectrometry Data Center, 1990.
m/z	RELATIVE INTENSITY
26	284
27	2495
28	302
29	2634
36	124
39	3212
41	8707
42	2722
43	4387
44	177
49	257
50	183
51	472
52	199
53	1014
54	987
55	9999
56	8115
57	3447
58	136
61	106
62	601
63	386
64	200
65	245
66	81
67	696
68	758
69	3759
70	8998
71	1821
72	83
75	216
76	220
77	434
78	101
79	193
82	1706
83	6788
84	3739
85	263
97	623
112	1598
113	162
119	121
