Mass Spectrum: Methanamine, N-methoxy-
Formula: C2 H7 N O
CAS: 1117-97-1
Molecular weight: 61
Origin: Japan AIST/NIMC Database- Spectrum MS-NW-9262
m/z	RELATIVE INTENSITY
14	20
15	909
16	30
17	10
18	40
27	90
28	3069
29	979
30	1259
31	789
32	60
33	799
41	10
42	60
43	20
44	80
45	1559
46	9159
47	139
48	20
58	10
59	10
60	2479
61	9999
62	479
63	20
