Mass Spectrum: 3-Penten-2-one, 4-amino-
Formula: C5 H9 N O
CAS: 1118-66-7
Molecular weight: 99
Origin: NIST Mass Spectrometry Data Center, 1994
m/z	RELATIVE INTENSITY
12	33
13	75
14	353
15	1659
16	68
17	87
18	155
25	74
26	436
27	958
28	4148
29	747
30	1513
32	41
36	23
37	234
38	443
39	1138
40	702
41	2115
42	7943
43	3097
44	708
49	43
50	166
51	274
52	437
53	264
54	749
55	300
56	190
57	74
58	31
61	28
62	27
63	43
65	70
66	118
67	201
68	298
69	27
70	207
71	25
80	27
84	9999
85	486
86	46
99	4595
100	270
101	7
