Mass Spectrum: Propanoic acid, TBDMS derivative
Formula: C9 H20 O2 Si
CAS: 111864-20-1
Molecular weight: 188
Origin: NIST Mass Spectrometry Data Center
m/z	RELATIVE INTENSITY
15	30
26	30
27	260
28	90
29	621
30	20
31	30
39	200
40	30
41	460
42	70
43	260
44	50
45	671
46	50
47	530
48	30
49	20
50	10
51	10
53	40
54	10
55	130
56	110
57	771
58	310
59	350
60	200
61	270
62	20
63	10
67	10
69	10
70	10
71	20
73	1171
75	7877
76	701
77	380
78	10
83	20
84	10
85	60
86	40
87	40
88	50
89	20
97	10
99	100
100	20
101	90
102	20
103	10
113	10
115	561
116	120
117	40
118	10
129	40
131	9999
132	1531
133	611
134	40
155	10
157	20
159	10
173	250
174	40
175	10
