Mass Spectrum: 3-Methylbutanoic acid, TBDMS derivative
Formula: C11 H24 O2 Si
CAS: 111864-22-3
Molecular weight: 216
Origin: J.M. Halket, Trace Anal. Unit (TAU), London, UK
m/z	RELATIVE INTENSITY
37	20
39	1140
41	2490
42	460
43	1290
44	140
45	1140
46	90
47	910
48	50
49	40
50	20
51	30
52	20
53	100
55	250
56	180
57	1240
58	390
59	520
60	170
61	270
62	20
63	10
66	10
67	20
68	20
69	110
70	20
71	30
72	230
73	1380
75	9999
76	720
77	380
78	10
83	200
84	20
85	220
86	30
87	30
88	50
89	10
97	10
99	80
100	20
101	160
102	30
103	20
113	10
115	270
116	170
117	160
118	20
129	50
133	20
141	10
143	50
144	10
145	10
147	10
155	10
159	5150
160	670
161	230
162	20
185	10
201	80
202	10
