Mass Spectrum: Silane, isocyanatotrimethyl-
Formula: C4 H9 N O Si
CAS: 1118-02-1
Molecular weight: 115
Origin: NIST Mass Spectrometry Data Center, 2008
m/z	RELATIVE INTENSITY
15	40
26	10
27	40
28	80
29	120
30	20
31	30
40	10
41	30
42	130
43	460
44	80
45	90
46	10
53	70
54	60
55	60
56	150
57	40
58	50
59	40
60	10
66	10
67	10
68	10
70	1331
71	130
72	1081
73	90
74	40
84	10
85	80
86	190
87	20
88	10
100	9999
101	871
102	380
103	10
115	220
116	20
