Mass Spectrum: 1,3-Pentadiene, 2-methyl-
Formula: C6 H10
CAS: 1118-58-7
Molecular weight: 82
m/z	RELATIVE INTENSITY
12	80
13	100
14	450
15	1141
16	100
24	10
25	70
26	641
27	2642
28	851
29	440
30	10
31	60
32	130
36	50
37	510
38	1011
39	6105
40	1301
41	5465
42	1141
43	250
48	20
49	150
50	781
51	1041
52	50
53	1692
54	1702
55	571
56	220
57	10
60	30
61	140
62	240
63	400
64	70
65	1101
66	450
67	9999
68	550
69	20
72	10
73	40
74	100
75	30
76	10
77	300
78	70
79	651
80	130
81	1211
82	4724
83	310
84	10
