Mass Spectrum: Butanoic acid, 3-oxo-, 2-propenyl ester
Formula: C7 H10 O3
CAS: 1118-84-9
Molecular weight: 142
Origin: Japan AIST/NIMC Database- Spectrum MS-NW-8513
m/z	RELATIVE INTENSITY
13	10
14	90
15	529
18	10
25	20
26	189
27	579
28	249
29	489
30	90
31	249
37	70
38	149
39	1319
40	209
41	4299
42	809
43	9999
44	329
45	60
53	30
54	169
55	389
56	239
57	859
58	2529
59	259
60	60
61	30
68	10
69	339
70	10
71	40
72	109
73	20
81	90
82	299
83	40
84	989
85	1719
86	259
87	40
96	30
97	10
99	159
100	409
101	30
102	10
103	10
114	90
124	20
127	30
142	40
143	30
