Mass Spectrum: 2,4-Hexadienedioic acid, dimethyl ester, (E,E)-
Formula: C8 H10 O4
CAS: 1119-43-3
Molecular weight: 170
Origin: ORMSBG,10(10)842(1975); A. MANDELBAUM
m/z	RELATIVE INTENSITY
41	460
50	770
51	1460
52	1390
53	540
54	770
55	310
59	1460
65	150
68	540
69	150
79	1460
80	690
81	150
83	230
95	230
107	460
108	230
110	150
111	9999
112	690
123	1230
139	3390
140	310
155	540
170	3460
171	310
