Mass Spectrum: 2-Heptyne
Formula: C7 H12
CAS: 1119-65-9
Molecular weight: 96
Origin: Japan AIST/NIMC Database- Spectrum MS-NW-5378
m/z	RELATIVE INTENSITY
15	149
26	299
27	3989
28	669
29	859
37	159
38	369
39	5079
40	759
41	6759
42	719
43	2559
44	90
49	50
50	629
51	1149
52	859
53	4689
54	8179
55	2229
56	819
57	109
61	80
62	179
63	319
64	40
65	989
66	549
67	4329
68	4249
69	359
74	40
77	529
78	99
79	1379
80	289
81	9999
82	759
91	119
93	80
94	60
95	529
96	1799
97	179
