Mass Spectrum: Pentanamide, 4-methyl-
Formula: C6 H13 N O
CAS: 1119-29-5
Molecular weight: 115
Origin: J.A.GILPIN DOW CHEMICAL CO., MIDLAND, MICHIGAN, USA
m/z	RELATIVE INTENSITY
15	30
27	800
28	400
29	900
30	80
31	50
41	1500
42	500
43	2200
44	3300
45	200
55	800
56	300
57	1600
58	200
59	9999
60	300
71	200
72	3300
73	700
74	50
85	10
86	700
87	70
99	90
100	800
101	50
114	60
115	60
116	100
