Mass Spectrum: 3-Hepten-2-one
Formula: C7 H12 O
CAS: 1119-44-4
Molecular weight: 112
Origin: Japan AIST/NIMC Database- Spectrum MS-IW-6975
m/z	RELATIVE INTENSITY
14	30
15	409
18	20
26	119
27	1109
28	239
29	769
30	20
31	50
32	10
33	10
37	40
38	129
39	1229
40	259
41	3479
42	559
43	6979
44	179
45	40
47	20
49	10
50	99
51	159
52	60
53	409
54	99
55	9999
56	399
57	119
58	269
59	109
60	20
61	20
62	30
63	50
64	10
65	99
66	40
67	239
68	259
69	1389
70	139
71	629
72	40
73	10
74	10
77	90
78	10
79	179
80	10
81	99
82	30
83	269
84	40
85	20
91	20
93	30
94	159
95	70
96	10
97	8519
98	599
99	50
109	10
110	10
111	70
112	3309
113	349
114	20
