Mass Spectrum: 1,2-Dodecanediol
Formula: C12 H26 O2
CAS: 1119-87-5
Molecular weight: 202
Origin: NIST Mass Spectrometry Data Center
m/z	RELATIVE INTENSITY
15	10
19	10
26	20
27	430
29	991
30	40
31	540
32	70
33	20
38	10
39	520
40	90
41	2923
42	320
43	1411
44	520
45	170
47	10
50	10
51	30
52	10
53	280
54	240
55	6236
56	751
57	3773
58	150
60	210
61	1621
62	40
63	10
65	60
66	100
67	971
68	540
69	6015
70	601
71	1942
76	20
77	60
79	150
80	50
81	861
82	811
83	6926
84	621
85	470
86	20
87	30
91	20
93	30
94	20
95	701
96	581
97	9999
98	841
99	60
103	10
108	10
109	270
110	220
111	2742
112	250
113	10
115	20
117	50
123	110
124	130
125	110
126	120
127	50
129	20
137	30
138	70
139	10
140	10
143	70
152	110
153	80
154	10
166	10
169	10
170	110
171	6886
172	841
173	60
201	10
