Mass Spectrum: 2-Butynal
Formula: C4 H4 O
CAS: 1119-19-3
Molecular weight: 68
Origin: A.Pleshkova, Nesmeyanov Inst.Org.Elem.Cpds, Moscow
m/z	RELATIVE INTENSITY
25	300
26	300
27	300
28	300
29	1201
30	30
31	300
36	901
37	2803
38	3403
39	9999
40	5705
41	400
49	701
50	901
51	400
52	200
53	601
66	801
67	6606
68	2702
69	120
70	10
