Mass Spectrum: 6-Heptenoic acid
Formula: C7 H12 O2
CAS: 1119-60-4
Molecular weight: 128
Origin: NIST Mass Spectrometry Data Center
m/z	RELATIVE INTENSITY
12	10
13	20
14	50
15	220
16	10
17	40
18	50
19	10
21	10
23	10
26	761
27	5755
28	1802
29	2112
30	170
32	70
36	10
37	220
38	761
39	7907
40	1451
41	9999
42	3383
43	3793
45	5935
46	140
47	80
50	430
51	731
52	290
53	1712
54	2052
55	6336
56	1451
57	661
58	651
60	5095
61	410
62	80
63	120
64	30
65	300
67	3403
68	9609
69	6706
70	410
71	430
73	2052
76	10
77	150
79	250
80	50
81	460
82	2452
83	500
84	100
85	170
86	180
87	851
88	30
92	20
93	20
95	160
99	340
100	190
110	3103
111	330
112	10
113	130
128	20
