Mass Spectrum: Acetamide, N-butyl-
Formula: C6 H13 N O
CAS: 1119-49-9
Molecular weight: 115
Origin: J.A.GILPIN DOW CHEM. CO., MIDLAND, MICHIGAN, USA
m/z	RELATIVE INTENSITY
15	400
27	400
28	500
29	500
30	9999
31	300
41	700
42	400
43	3400
44	1900
45	200
55	200
56	300
57	200
58	400
59	60
60	1000
71	30
72	2900
73	2100
74	100
86	900
87	100
99	40
100	600
101	40
114	20
115	1100
116	200
