Mass Spectrum: 1,4-Hexadiene, 2-methyl-
Formula: C7 H12
CAS: 1119-14-8
Molecular weight: 96
Origin: M. IWAMOTO TOYO RAYON CO., SONOYANA, OTSU, SHIGA-KEN, JAPAN
m/z	RELATIVE INTENSITY
15	331
26	386
27	3005
28	718
29	1635
37	265
38	585
39	5104
40	784
41	4187
42	353
43	209
50	607
51	939
52	441
53	3093
54	1436
55	2629
56	563
62	154
63	276
65	640
66	464
67	2033
68	861
77	1104
79	2574
80	441
81	9999
82	1270
91	165
95	453
96	4674
97	386
