Mass Spectrum: Ethanol, 2-[2-(2-methoxyethoxy)ethoxy]-
Formula: C7 H16 O4
CAS: 112-35-6
Molecular weight: 164
Origin: NIST Mass Spectrometry Data Center, 2007
m/z	RELATIVE INTENSITY
14	20
15	430
16	20
17	10
18	10
19	160
26	100
27	641
28	931
29	2212
30	200
31	2062
32	50
33	90
39	20
40	10
41	140
42	190
43	1331
44	981
45	9999
46	250
47	50
56	10
57	180
58	3453
59	7247
60	350
61	60
69	10
70	50
71	40
72	70
73	160
74	20
75	420
76	70
77	20
86	20
87	791
88	661
89	3173
90	180
91	30
100	10
101	210
102	450
103	510
104	40
105	10
115	10
119	290
120	20
121	20
131	10
133	150
134	30
