Mass Spectrum: 1-Nonanamine
Formula: C9 H21 N
CAS: 112-20-9
Molecular weight: 143
Origin: CARL DJERASSI DEPT OF CHEM STANFORD UNIV STANFORD CALIF 94305
m/z	RELATIVE INTENSITY
27	300
28	200
29	400
30	9999
39	100
41	600
42	200
43	400
45	700
53	100
54	100
55	400
56	300
57	100
58	100
59	100
69	200
70	100
72	100
83	100
84	100
86	300
100	100
115	100
143	200
