Mass Spectrum: Ethane, 1,2-bis(2-chloroethoxy)-
Formula: C6 H12 Cl2 O2
CAS: 112-26-5
Molecular weight: 186
Origin: Japan AIST/NIMC Database- Spectrum MS-NW-1221
m/z	RELATIVE INTENSITY
14	70
15	429
16	20
17	20
18	90
19	109
20	30
26	229
27	4139
28	829
29	559
30	70
31	989
32	40
36	30
38	10
39	30
41	90
42	90
43	1809
44	429
45	2599
46	60
47	10
48	20
49	319
50	60
51	99
52	10
57	99
58	99
59	739
60	30
61	60
62	339
63	9999
64	319
65	3179
66	70
70	30
71	40
72	279
73	1059
74	40
75	70
76	10
77	40
78	10
79	50
81	10
84	10
86	40
87	40
88	10
93	4889
94	159
95	1529
96	50
99	10
101	129
106	1259
107	2189
108	499
109	689
110	30
114	10
115	90
121	20
123	10
137	479
138	20
139	149
140	10
150	10
