Mass Spectrum: Lauryl acetate
Formula: C14 H28 O2
CAS: 112-66-3
Molecular weight: 228
Origin: NIST Mass Spectrometry Data Center
m/z	RELATIVE INTENSITY
15	80
26	30
27	480
28	170
29	1131
30	40
31	50
37	10
38	10
39	520
40	120
41	3353
42	1231
43	9999
44	320
45	60
50	10
51	20
52	20
53	250
54	591
55	4384
56	3413
57	2883
58	300
59	70
60	30
61	3343
62	70
63	10
65	40
66	60
67	711
68	1131
69	3543
70	2963
71	1101
72	70
73	340
74	20
75	10
77	20
78	10
79	70
80	20
81	310
82	1631
83	3423
84	1872
85	571
86	40
87	60
88	20
91	10
93	10
94	10
95	120
96	661
97	2672
98	1331
99	130
101	100
102	30
109	30
110	250
111	1461
112	601
113	70
114	10
115	20
116	400
117	30
123	10
124	90
125	480
126	240
127	30
128	10
129	20
130	40
137	10
138	40
139	110
140	761
141	90
142	20
156	20
166	10
168	310
169	40
170	10
213	10
