Mass Spectrum: Stearic acid chloride
Formula: C18 H35 Cl O
CAS: 112-76-5
Molecular weight: 302
Origin: Japan AIST/NIMC Database- Spectrum MS-NW-8474
m/z	RELATIVE INTENSITY
17	10
18	40
26	20
27	579
28	199
29	1619
30	30
35	70
36	709
37	20
38	229
39	389
40	90
41	3709
42	869
43	5809
44	199
45	10
51	10
53	209
54	479
55	4699
56	1469
57	4389
58	489
59	169
63	60
65	40
66	70
67	819
68	829
69	2779
70	1309
71	2109
72	329
73	60
75	10
77	50
78	119
79	229
80	309
81	829
82	1079
83	2449
84	3539
85	1269
86	369
87	90
91	119
92	20
93	249
94	319
95	789
96	1019
97	2199
98	9999
99	1019
100	339
101	80
102	109
103	10
104	40
105	30
106	10
107	179
108	259
109	449
110	469
111	1859
112	2759
113	599
114	309
115	80
116	109
117	10
118	30
119	20
120	20
121	469
122	249
123	259
124	319
125	889
126	709
127	349
128	229
129	60
133	10
134	10
135	339
136	199
137	149
138	269
139	419
140	519
141	229
142	159
143	40
149	209
150	119
151	70
152	239
153	359
154	829
155	199
156	99
157	20
163	119
164	80
165	50
166	199
167	359
168	1009
169	179
170	119
171	10
177	80
178	70
179	40
180	119
181	359
182	1249
183	209
184	50
191	50
192	80
193	30
194	60
195	349
196	1389
197	229
198	30
205	40
206	60
207	20
208	10
209	279
210	1119
211	209
212	20
219	30
220	30
222	169
223	299
224	669
225	119
226	10
237	149
238	90
239	60
240	10
247	10
248	339
249	70
250	10
251	20
252	10
253	10
264	10
265	70
266	1609
267	1559
268	289
269	20
284	10
