Mass Spectrum: Acetic acid, octyl ester
Formula: C10 H20 O2
CAS: 112-14-1
Molecular weight: 172
Origin: NIST Mass Spectrometry Data Center, 2010
m/z	RELATIVE INTENSITY
14	10
15	110
26	30
27	591
28	190
29	971
30	30
31	80
39	731
40	160
41	2933
42	1912
43	9999
44	310
45	70
50	20
51	50
52	20
53	260
54	380
55	3894
56	4454
57	1611
58	390
59	80
61	3293
62	70
63	20
65	50
66	30
67	450
68	1021
69	3873
70	5095
71	1001
72	70
73	911
74	50
75	20
77	30
78	10
79	50
80	10
81	150
82	1141
83	4034
84	4274
85	330
86	60
87	170
88	40
91	10
94	10
95	40
96	30
97	550
98	470
99	50
100	80
101	290
102	70
103	10
109	10
110	60
111	190
112	1451
113	150
114	40
115	30
116	520
117	30
125	10
127	30
128	20
129	50
130	20
139	10
157	10
173	10
