Mass Spectrum: Disulfide, dipentyl
Formula: C10 H22 S2
CAS: 112-51-6
Molecular weight: 206
Origin: Japan AIST/NIMC Database- Spectrum MS-NW-5738
m/z	RELATIVE INTENSITY
14	10
15	30
26	50
27	889
28	70
29	1429
30	40
32	10
33	10
34	40
35	40
37	10
38	30
39	509
40	90
41	2179
42	609
43	9999
44	329
45	289
46	169
47	299
48	20
49	20
50	10
51	20
52	10
53	109
54	30
55	809
56	90
57	109
58	40
59	219
60	199
61	199
62	20
63	20
64	70
65	30
66	60
67	149
68	109
69	649
70	469
71	5019
72	279
73	129
74	70
75	20
76	50
78	30
79	239
80	20
81	30
85	10
87	209
88	10
89	10
92	10
93	50
94	10
95	10
99	10
101	299
102	269
103	939
104	139
105	60
106	20
107	20
108	10
117	10
122	10
131	10
134	10
135	20
136	2429
137	179
138	239
139	20
140	10
163	10
173	10
174	30
206	2919
207	409
208	289
209	40
210	10
