Mass Spectrum: Hexane, 1,1'-oxybis-
Formula: C12 H26 O
CAS: 112-58-3
Molecular weight: 186
Origin: Japan AIST/NIMC Database- Spectrum MS-NW-3631
m/z	RELATIVE INTENSITY
15	30
18	10
26	30
27	819
28	189
29	1159
30	40
31	119
32	10
37	10
38	10
39	419
40	90
41	1949
42	999
43	9999
44	359
45	219
51	10
52	10
53	90
54	109
55	1409
56	3419
57	1649
58	90
59	40
60	10
65	10
67	99
68	50
69	909
70	99
71	90
72	20
73	80
81	20
82	109
83	1429
84	1949
85	7949
86	539
87	30
99	20
100	10
101	90
102	10
103	139
104	10
115	249
116	20
117	20
129	10
143	20
157	10
