Mass Spectrum: Dodecanoyl chloride
Formula: C12 H23 Cl O
CAS: 112-16-3
Molecular weight: 218
Origin: Japan AIST/NIMC Database- Spectrum MS-IW-3776
m/z	RELATIVE INTENSITY
15	20
26	50
27	1289
28	279
29	1869
30	40
35	50
36	479
37	20
38	149
39	1009
40	209
41	4319
42	1289
43	4999
44	179
45	20
49	10
50	20
51	70
52	40
53	369
54	729
55	6419
56	1689
57	2999
58	189
59	30
60	60
61	10
63	119
64	10
65	80
66	80
67	829
68	879
69	2369
70	1679
71	1089
72	109
73	90
74	20
75	20
76	10
77	99
78	259
79	319
80	249
81	709
82	809
83	2209
84	5589
85	849
86	109
87	30
91	289
92	30
93	249
94	239
95	529
96	719
97	2139
98	9999
99	759
100	109
101	20
102	309
103	20
104	99
105	80
106	10
107	139
108	119
109	289
110	439
111	1489
112	2369
113	199
114	60
115	20
116	269
117	20
118	90
119	20
120	10
121	299
122	99
123	80
124	20
125	349
126	379
127	90
128	10
129	30
130	10
133	20
135	169
136	50
137	10
138	1059
139	289
140	169
141	40
147	10
149	20
151	10
153	90
154	30
155	40
157	20
163	20
164	239
165	70
166	10
181	20
182	149
183	1399
184	179
185	10
