Mass Spectrum: Triethylene glycol
Formula: C6 H14 O4
CAS: 112-27-6
Molecular weight: 150
Origin: NIST Mass Spectrometry Data Center
m/z	RELATIVE INTENSITY
15	70
19	120
26	50
27	440
28	390
29	651
30	90
31	901
32	40
33	60
41	30
42	110
43	841
44	821
45	9999
46	250
47	30
57	100
58	1471
59	561
60	120
61	100
62	70
63	20
70	10
72	10
73	60
75	811
76	30
77	30
86	10
87	480
88	340
89	1461
90	440
91	30
101	140
102	110
103	10
105	20
107	20
119	190
120	10
