Mass Spectrum: Octadecane, 1-isocyanato-
Formula: C19 H37 N O
CAS: 112-96-9
Molecular weight: 295
Origin: RADIAN CORP
m/z	RELATIVE INTENSITY
27	540
29	1380
30	260
39	620
41	4600
42	1050
43	5220
44	230
45	60
46	70
53	340
54	570
55	4990
56	2700
57	3790
58	610
59	250
60	60
65	70
66	40
67	830
68	630
69	2910
70	1280
71	1680
72	220
73	110
77	70
79	180
80	70
81	500
82	560
83	1380
84	1090
85	1910
86	360
87	80
91	310
93	160
94	40
95	290
96	440
97	850
98	2840
99	9999
100	860
101	90
105	100
107	60
109	120
110	250
111	280
112	4160
113	3020
114	300
115	40
119	40
122	20
123	90
124	230
125	100
126	1760
127	510
128	100
133	40
137	70
138	140
139	30
140	610
141	140
142	50
152	80
153	10
154	320
155	60
156	30
166	40
168	190
169	10
180	30
182	130
194	30
196	120
208	30
210	120
222	30
224	120
236	10
238	90
252	60
