Mass Spectrum: Decane, 1-bromo-
Formula: C10 H21 Br
CAS: 112-29-8
Molecular weight: 220
Origin: Chuck Anderson, Aldrich Chemical Co.
m/z	RELATIVE INTENSITY
15	17
25	6
26	74
27	1986
28	493
29	3302
30	76
34	4
35	3
36	8
37	14
38	52
39	2091
40	394
41	8683
42	1947
43	9999
44	319
45	8
46	7
47	5
48	3
49	3
50	28
51	90
52	55
53	536
54	388
55	7209
56	1986
57	7683
58	319
59	7
62	5
63	14
64	4
65	70
66	28
67	355
68	195
69	3368
70	868
71	2947
72	150
73	5
77	31
78	8
79	45
80	11
81	55
82	69
83	920
84	236
85	2815
86	171
87	7
91	19
92	2
93	84
94	4
95	94
96	17
97	467
98	95
99	496
100	37
105	13
106	30
107	371
108	33
109	342
110	12
111	84
112	41
113	5
119	20
120	17
121	185
122	22
123	161
124	6
133	6
135	7788
136	286
137	7209
138	279
139	7
140	11
141	6
148	18
149	1144
150	76
151	1092
152	55
153	2
162	6
163	69
164	10
165	73
166	6
177	7
178	2
179	5
218	3
220	37
221	4
222	34
223	4
