Mass Spectrum: Myristoyl chloride
Formula: C14 H27 Cl O
CAS: 112-64-1
Molecular weight: 246
Origin: NIST Mass Spectrometry Data Center, 1994
m/z	RELATIVE INTENSITY
15	111
27	3044
28	19
29	5261
30	143
35	39
36	8
37	56
38	8
39	2083
40	8
41	9999
42	2709
43	9293
44	295
45	28
49	54
50	39
51	103
52	8
53	723
54	1032
55	7942
56	2140
57	4388
58	349
59	68
63	402
65	252
66	176
67	1156
68	985
69	3448
70	1517
71	1521
72	248
73	57
75	47
76	30
77	171
78	552
79	562
80	468
81	1066
82	1060
83	2724
84	5121
85	1055
86	262
87	53
91	331
92	63
93	425
94	363
95	842
96	1004
97	2731
98	8205
99	727
100	167
101	50
102	249
104	84
105	68
107	252
108	237
109	442
110	688
111	1819
112	2247
113	276
114	82
115	43
116	194
118	75
119	41
121	450
122	190
123	287
124	326
125	640
126	493
127	83
128	48
135	328
136	141
137	139
138	255
139	310
140	308
141	55
142	26
149	152
150	55
151	38
152	32
153	200
154	341
155	57
163	120
164	47
166	485
167	283
168	178
169	53
181	117
182	40
192	114
193	63
211	1864
212	299
