Mass Spectrum: Tetraethylenepentamine
Formula: C8 H23 N5
CAS: 112-57-2
Molecular weight: 189
Origin: NIST Mass Spectrometry Data Center
m/z	RELATIVE INTENSITY
15	90
18	270
26	40
27	290
28	931
29	571
30	3333
31	70
32	10
38	10
39	60
40	70
41	761
42	3823
43	1571
44	7497
45	260
46	10
51	10
52	30
53	40
54	701
55	1511
56	5305
57	1261
58	2642
59	120
60	40
61	641
62	20
63	240
65	10
66	10
67	70
68	721
69	661
70	5485
71	1151
72	460
73	1471
74	60
75	30
77	10
78	10
79	10
80	80
81	150
82	1411
83	1702
84	1371
85	2833
86	550
87	1251
88	60
89	10
92	10
93	10
94	120
95	540
96	280
97	9999
98	9539
99	5075
100	601
101	2362
102	220
103	10
104	961
105	50
106	10
107	10
108	30
109	140
110	300
111	1882
112	2112
113	5575
114	591
115	70
116	1631
117	100
121	10
122	10
123	90
124	90
125	2702
126	821
127	1762
128	390
129	410
130	1692
131	140
137	30
138	410
139	120
140	360
141	230
142	6546
143	721
144	50
145	10
147	10
151	10
152	20
153	60
154	210
155	621
156	160
157	20
159	20
166	30
167	10
168	360
169	60
170	30
