Mass Spectrum: Palmitoyl chloride
Formula: C16 H31 Cl O
CAS: 112-67-4
Molecular weight: 274
Origin: NIST Mass Spectrometry Data Center
m/z	RELATIVE INTENSITY
26	20
27	470
29	1131
30	20
35	20
36	80
37	10
38	40
39	631
40	110
41	4164
42	1021
43	4814
44	160
49	10
50	10
51	40
52	20
53	370
54	550
55	5845
56	1581
57	4024
58	380
59	90
63	170
65	120
66	90
67	1041
68	851
69	3103
70	1461
71	1942
72	320
73	50
75	10
77	110
78	390
79	460
80	420
81	1101
82	1231
83	3243
84	4854
85	1381
86	400
87	80
89	10
91	260
92	30
93	460
94	410
95	1011
96	1151
97	3203
98	9999
99	1041
100	330
101	80
102	210
103	10
104	70
105	60
106	10
107	330
108	330
109	591
110	581
111	2682
112	3283
113	550
114	240
115	60
116	200
117	10
118	60
119	30
120	20
121	701
122	310
123	320
124	430
125	1181
126	761
127	260
128	160
129	30
130	10
133	10
135	480
136	210
137	180
138	390
139	561
140	550
141	150
142	100
143	10
149	280
150	110
151	100
152	220
153	400
154	801
155	150
156	50
157	10
163	140
164	50
165	60
166	140
167	400
168	721
169	110
170	30
177	120
178	50
181	340
182	611
183	120
184	10
191	70
192	30
193	10
194	370
195	390
196	390
197	80
209	230
210	60
220	130
221	40
223	40
237	30
238	250
239	1802
240	300
241	20
