Mass Spectrum: Dodecanal
Formula: C12 H24 O
CAS: 112-54-9
Molecular weight: 184
Origin: NIST Mass Spectrometry Data Center, 1990.
m/z	RELATIVE INTENSITY
14	184
27	2169
28	49
29	4187
31	156
39	2616
41	9999
42	2405
43	7687
44	3471
45	1022
51	165
53	1005
54	1929
55	8226
56	4579
57	9945
58	717
65	229
66	923
67	5090
68	4591
69	4542
70	3766
71	3567
72	855
79	495
80	389
81	3901
82	6341
83	2885
84	1453
85	1919
86	256
95	2770
96	3443
97	1977
98	879
99	427
109	1244
110	1422
111	1033
112	576
123	627
124	584
137	289
138	636
140	1027
156	175
