Mass Spectrum: Diethylene glycol hexyl ether
Formula: C10 H22 O3
CAS: 112-59-4
Molecular weight: 190
Origin: Japan AIST/NIMC Database- Spectrum MS-NW-5280
m/z	RELATIVE INTENSITY
14	10
15	159
16	10
17	30
18	109
19	40
26	60
27	879
28	329
29	949
30	60
31	569
32	20
33	109
38	10
39	379
40	80
41	1849
42	659
43	9999
44	649
45	7829
46	189
47	60
51	10
52	10
53	99
54	70
55	1219
56	1459
57	2039
58	189
59	769
60	349
61	289
62	409
63	219
64	10
65	10
66	10
67	109
68	50
69	519
70	80
71	159
72	249
73	229
74	30
75	1779
76	179
77	1259
78	50
79	10
81	40
82	949
83	1209
84	1049
85	4739
86	329
87	319
88	109
89	1389
90	179
91	80
92	20
95	20
97	199
98	60
99	299
100	99
101	239
102	20
103	50
104	10
105	10
107	129
108	10
110	70
111	20
112	10
113	219
114	20
115	289
116	20
117	20
119	99
127	10
128	50
129	129
130	10
131	20
133	40
143	10
145	10
147	10
159	109
160	50
161	90
162	10
