Mass Spectrum: Octadecyl methacrylate
Formula: C22 H42 O2
CAS: 112-08-3
Molecular weight: 338
Origin: V.G. Zaikin, R.S.Borisov, TIPS RAS, Moscow, Russia
m/z	RELATIVE INTENSITY
26	50
27	190
28	190
29	480
30	10
31	10
37	10
39	490
40	170
41	3323
42	641
43	3283
44	170
45	30
51	10
53	120
54	591
55	3693
56	2072
57	4104
58	210
59	60
65	30
66	70
67	921
68	1131
69	7377
70	3133
71	2622
72	140
73	50
74	170
77	20
78	10
79	50
80	60
81	741
82	1682
83	5335
84	1812
85	1672
86	340
87	9999
88	5265
89	520
90	30
91	20
93	30
94	40
95	561
96	1061
97	5125
98	1261
99	460
100	60
101	30
107	10
108	30
109	350
110	540
111	2662
112	861
113	781
114	110
115	60
116	10
121	10
122	20
123	240
124	380
125	1251
126	540
127	761
128	260
129	80
130	10
135	10
136	20
137	180
138	260
139	490
140	350
141	420
142	150
143	70
144	10
149	10
151	100
152	180
153	290
154	260
155	130
156	90
157	50
165	70
166	120
167	180
168	180
169	150
170	80
171	50
179	50
180	100
181	120
182	130
183	100
184	30
185	50
193	50
194	90
195	80
196	110
197	80
198	20
199	40
207	10
208	50
209	50
210	50
211	100
212	20
213	30
221	40
222	80
223	50
224	290
225	130
226	20
227	30
235	20
236	20
237	10
238	10
239	60
240	10
241	20
249	30
250	240
251	60
252	350
253	110
254	10
255	10
262	10
263	10
264	30
265	90
266	30
267	70
268	10
269	40
270	10
277	40
278	30
279	60
280	10
281	10
291	10
292	10
294	10
295	290
296	60
297	30
320	60
321	10
338	150
339	40
