Mass Spectrum: 1,2-Dibutoxyethane
Formula: C10 H22 O2
CAS: 112-48-1
Molecular weight: 174
Origin: NIST Mass Spectrometry Data Center, 2009
m/z	RELATIVE INTENSITY
15	20
19	10
26	40
27	460
28	320
29	1521
30	80
31	150
33	10
38	10
39	360
40	60
41	2592
42	210
43	561
44	340
45	1261
46	50
47	30
50	10
51	20
52	10
53	70
54	40
55	871
56	2582
57	9999
58	540
59	350
60	30
61	40
63	100
67	10
69	90
70	20
71	390
72	420
73	1061
74	490
75	631
76	20
83	10
85	90
86	20
87	1001
88	60
89	10
100	120
101	170
102	691
103	280
104	20
117	50
118	10
119	190
120	10
131	150
132	10
145	10
174	20
