Mass Spectrum: 1-Tetradecanamine, N,N-dimethyl-
Formula: C16 H35 N
CAS: 112-75-4
Molecular weight: 241
Origin: Tox21 Consortium/NIST Mass Spectrometry Data Center, 2012
m/z	RELATIVE INTENSITY
15	10
26	10
27	70
28	40
29	170
30	60
39	60
40	20
41	470
42	260
43	450
44	150
45	120
46	80
53	30
54	20
55	310
56	120
57	210
58	9999
59	380
60	10
65	10
67	30
68	20
69	100
70	70
71	80
72	40
73	10
79	10
81	10
82	20
83	30
84	180
85	20
97	10
98	20
100	20
110	10
112	10
114	40
126	10
128	20
140	10
142	10
156	10
170	10
184	10
212	10
226	10
240	40
241	120
242	20
