Mass Spectrum: 1-Dodecanamine, N,N-dimethyl-
Formula: C14 H31 N
CAS: 112-18-5
Molecular weight: 213
Origin: Japan AIST/NIMC Database- Spectrum MS-NW-2730
m/z	RELATIVE INTENSITY
15	20
27	80
28	119
29	169
30	50
32	20
39	50
40	10
41	279
42	179
43	259
44	139
45	129
46	50
53	10
54	10
55	179
56	80
57	139
58	9999
59	369
67	10
68	10
69	70
70	50
71	60
72	50
73	10
82	10
83	30
84	189
85	20
97	10
98	20
100	20
110	10
114	30
128	20
142	10
184	10
198	20
211	10
212	70
213	199
214	30
