Mass Spectrum: 1-Octadecene
Formula: C18 H36
CAS: 112-88-9
Molecular weight: 252
Origin: Japan AIST/NIMC Database- Spectrum MS-NW-1725
m/z	RELATIVE INTENSITY
14	20
15	40
26	70
27	1509
28	229
29	3999
30	99
31	10
38	30
39	1549
40	299
41	9359
42	2069
43	9999
44	329
45	20
50	20
51	60
52	50
53	679
54	1369
55	9399
56	5509
57	8809
58	369
63	10
65	99
66	139
67	1569
68	1419
69	6469
70	4989
71	4099
72	219
74	10
77	80
78	20
79	159
80	60
81	799
82	2049
83	7169
84	2939
85	2259
86	129
91	30
93	30
94	20
95	349
96	1119
97	6199
98	1979
99	619
100	40
109	119
110	559
111	3129
112	1339
113	339
114	20
123	80
124	319
125	1619
126	909
127	229
128	20
137	40
138	219
139	729
140	589
141	139
142	10
151	10
152	139
153	399
154	469
155	99
166	109
167	259
168	299
169	60
180	70
181	149
182	279
183	60
194	40
195	109
196	139
197	30
208	20
209	50
210	139
211	30
222	10
223	50
224	229
225	40
252	559
253	119
254	30
