Mass Spectrum: 2-Butene-1,4-diamine, N,N'-diethyl-
Formula: C8 H18 N2
CAS: 112-21-0
Molecular weight: 142
Origin: Japan AIST/NIMC Database- Spectrum MS-NW-9769
m/z	RELATIVE INTENSITY
15	99
26	50
27	759
28	3159
29	1279
30	2999
31	40
37	10
38	50
39	629
40	139
41	1369
42	939
43	1099
44	2439
45	379
46	309
47	20
48	20
49	30
50	30
51	80
52	80
53	589
54	899
55	1579
56	5599
57	559
58	5979
59	239
60	10
63	199
65	70
66	70
67	479
68	2489
69	589
70	1469
71	209
72	60
77	20
78	50
79	60
80	689
81	159
82	6279
83	449
84	2409
85	319
86	70
92	10
93	20
94	129
95	449
96	1269
97	9999
98	5249
99	1429
100	90
101	10
108	20
109	20
110	30
111	30
112	189
113	40
122	50
123	20
124	10
125	20
127	149
128	20
141	80
142	10
143	109
144	10
