Mass Spectrum: Docosanoic acid
Formula: C22 H44 O2
CAS: 112-85-6
Molecular weight: 340
Origin: Japan AIST/NIMC Database- Spectrum MS-NW-9589
m/z	RELATIVE INTENSITY
16	10
17	20
18	70
26	20
27	179
28	219
29	639
30	20
31	20
32	10
36	10
39	169
40	40
41	1899
42	419
43	3939
44	159
45	139
51	10
53	99
54	239
55	2929
56	1079
57	5139
58	259
59	119
60	2819
61	1439
62	40
63	10
64	10
65	30
66	60
67	539
68	469
69	2479
70	1069
71	3549
72	209
73	4139
74	579
75	40
76	10
77	30
78	30
79	119
80	90
81	619
82	849
83	2639
84	1069
85	2469
86	179
87	1769
88	279
89	20
91	40
92	30
93	139
94	99
95	469
96	789
97	2899
98	1399
99	1059
100	109
101	639
102	389
103	30
104	10
105	30
106	10
107	119
108	90
109	269
110	429
111	1749
112	549
113	689
114	90
115	1119
116	1019
117	80
118	10
119	20
120	20
121	199
122	80
123	199
124	339
125	1039
126	329
127	479
128	60
129	3839
130	669
131	60
132	10
133	20
134	20
135	179
136	60
137	119
138	259
139	579
140	249
141	359
142	50
143	999
144	319
145	30
147	20
148	20
149	149
150	40
151	70
152	179
153	369
154	219
155	249
156	50
157	759
158	359
159	40
161	10
162	10
163	80
164	20
165	40
166	139
167	249
168	159
169	189
170	30
171	1219
172	569
173	60
174	10
175	10
177	50
178	20
179	30
180	109
181	189
182	129
183	139
184	30
185	2269
186	499
187	60
189	10
191	30
192	10
193	20
194	90
195	129
196	129
197	109
198	20
199	989
200	259
201	30
203	10
205	30
206	10
207	20
208	80
209	99
210	129
211	90
212	20
213	809
214	239
215	40
216	10
217	60
218	30
219	20
220	10
221	20
222	90
223	90
224	109
225	60
226	10
227	1009
228	319
229	40
233	20
234	10
235	10
236	60
237	60
238	80
239	40
240	10
241	1849
242	379
243	50
247	10
248	10
249	20
250	50
251	50
252	109
253	40
255	839
256	219
257	40
261	10
262	10
263	10
264	20
265	30
266	99
267	30
269	669
270	159
271	20
275	10
276	20
277	10
278	189
279	60
280	109
281	50
282	10
283	609
284	719
285	139
286	20
292	20
293	20
294	199
295	50
296	20
297	1419
298	319
299	40
303	10
304	70
305	20
306	40
307	10
311	269
312	1969
313	439
314	50
320	40
321	30
322	60
323	60
324	10
325	20
339	20
340	9999
341	2509
342	339
343	30
