Mass Spectrum: 1-Octadecanol
Formula: C18 H38 O
CAS: 112-92-5
Molecular weight: 270
Origin: Japan AIST/NIMC Database- Spectrum MS-NW-6839
m/z	RELATIVE INTENSITY
15	30
17	50
18	209
19	10
26	40
27	1149
28	319
29	3359
30	80
31	1299
32	20
38	10
39	749
40	179
41	7319
42	1909
43	9999
44	369
45	209
50	10
51	30
52	20
53	399
54	1029
55	9479
56	5129
57	9279
58	399
59	40
65	50
66	149
67	1439
68	4039
69	8239
70	5029
71	4359
72	259
73	199
74	10
77	40
78	10
79	90
80	50
81	819
82	5149
83	9739
84	3609
85	2519
86	169
87	30
91	20
93	20
94	30
95	439
96	1869
97	7609
98	2359
99	689
100	50
108	10
109	169
110	829
111	4039
112	1669
113	459
114	40
122	10
123	99
124	529
125	2329
126	1109
127	269
128	20
137	60
138	389
139	1079
140	869
141	179
142	20
151	10
152	249
153	629
154	579
155	119
156	10
166	159
167	399
168	509
169	139
170	10
180	109
181	259
182	339
183	90
184	10
194	70
195	149
196	329
197	60
208	40
209	90
210	99
211	20
222	30
223	50
224	789
225	139
226	10
250	10
252	1039
253	209
254	20
