Mass Spectrum: Tetradecane, 1-bromo-
Formula: C14 H29 Br
CAS: 112-71-0
Molecular weight: 276
Origin: Japan AIST/NIMC Database- Spectrum MS-NW-5098
m/z	RELATIVE INTENSITY
14	10
15	30
26	60
27	1289
28	60
29	2559
30	60
38	20
39	859
40	179
41	5139
42	1339
43	9129
44	309
50	10
51	50
52	40
53	339
54	419
55	5339
56	1789
57	9999
58	519
63	10
65	50
66	40
67	439
68	329
69	4339
70	1339
71	5709
72	349
77	40
78	10
79	60
80	80
81	169
82	269
83	2329
84	699
85	3239
86	219
91	30
93	30
95	80
96	109
97	1369
98	389
99	789
100	60
105	10
106	10
107	169
108	10
109	169
110	40
111	459
112	189
113	529
114	40
119	10
120	10
121	139
122	10
123	119
124	20
125	139
126	99
127	369
128	50
133	10
134	30
135	5909
136	319
137	5819
138	279
139	50
140	50
141	269
142	40
148	119
149	1199
150	169
151	1209
152	70
153	20
154	20
155	119
156	20
162	60
163	229
164	60
165	209
166	10
168	30
169	10
176	20
177	80
178	20
179	70
190	10
191	50
192	10
193	40
194	10
196	60
197	119
198	20
205	20
206	10
207	20
219	10
221	20
233	10
235	10
247	10
249	10
274	20
276	30
278	20
