Mass Spectrum: 2,5,8,11-Tetraoxadodecane
Formula: C8 H18 O4
CAS: 112-49-2
Molecular weight: 178
Origin: NIST Mass Spectrometry Data Center
m/z	RELATIVE INTENSITY
15	180
26	40
27	190
28	390
29	1391
30	90
31	1131
32	10
33	40
39	10
41	120
42	110
43	901
44	220
45	2392
46	60
47	10
57	140
58	3623
59	9999
60	370
61	30
70	60
71	40
72	60
73	160
74	10
75	60
86	30
87	761
88	130
89	931
90	70
100	10
101	110
102	280
103	1331
104	70
115	30
118	10
119	50
131	10
133	430
134	20
