Mass Spectrum: 13-Docosenoic acid, methyl ester, (Z)-
Formula: C23 H44 O2
CAS: 1120-34-9
Molecular weight: 352
Origin: Japan AIST/NIMC Database- Spectrum MS-NW-5758
m/z	RELATIVE INTENSITY
14	10
15	999
16	10
25	10
26	70
27	1279
28	399
29	3429
30	80
31	139
32	10
33	10
38	20
39	1109
40	229
41	8089
42	1329
43	6209
44	209
45	239
50	10
51	60
52	60
53	699
54	2119
55	9999
56	2409
57	3759
58	169
59	1099
60	40
61	20
63	10
65	169
66	189
67	2969
68	1739
69	6009
70	1699
71	1219
72	80
73	349
74	4789
75	1049
76	60
77	189
78	80
79	629
80	479
81	2379
82	1869
83	4399
84	2679
85	659
86	50
87	2889
88	289
89	20
91	169
92	60
93	329
94	449
95	1739
96	2609
97	3139
98	2639
99	389
100	60
101	449
102	60
103	10
104	10
105	80
106	40
107	259
108	359
109	969
110	1289
111	1469
112	669
113	179
114	249
115	449
116	109
117	20
118	20
119	159
120	80
121	359
122	199
123	759
124	699
125	779
126	249
127	229
128	379
129	409
130	209
131	30
132	20
133	149
134	189
135	329
136	139
137	529
138	569
139	549
140	149
141	679
142	159
143	569
144	80
145	20
147	119
148	169
149	239
150	99
151	379
152	669
153	379
154	109
155	99
156	40
157	189
158	40
159	10
161	90
162	60
163	149
164	80
165	259
166	359
167	249
168	80
169	70
170	30
171	139
172	50
173	10
175	80
176	30
177	90
178	50
179	159
180	229
181	179
182	60
183	60
184	20
185	149
186	50
187	20
189	50
190	20
191	60
192	40
193	129
194	239
195	139
196	50
197	60
198	20
199	139
200	40
201	10
203	30
204	10
205	30
206	40
207	129
208	269
209	129
210	50
211	60
212	20
213	129
214	30
215	10
217	20
218	10
219	20
220	60
221	159
222	369
223	129
224	60
225	99
226	20
227	80
228	30
229	10
231	10
233	20
234	20
235	169
236	609
237	179
238	70
239	80
240	20
241	60
242	30
243	10
245	10
247	10
248	30
249	179
250	219
251	70
252	30
253	40
254	20
255	99
256	60
257	10
259	10
260	10
261	10
262	20
263	179
264	169
265	60
266	30
267	30
268	20
269	60
270	50
271	10
274	10
275	10
276	199
277	189
278	559
279	179
280	30
281	20
282	10
283	30
284	30
285	10
291	109
292	289
293	90
294	40
295	30
296	20
297	20
298	30
302	159
303	50
304	10
305	10
306	20
309	50
310	20
311	20
318	20
319	30
320	3739
321	1369
322	249
323	50
324	50
325	20
326	50
327	10
334	30
335	10
348	30
349	10
350	50
351	20
352	729
353	229
354	119
355	20
