Mass Spectrum: 4-Bromopyridine
Formula: C5 H4 Br N
CAS: 1120-87-2
Molecular weight: 157
Origin: Japan AIST/NIMC Database- Spectrum MS-NW-9267
m/z	RELATIVE INTENSITY
25	40
26	139
27	60
28	20
39	80
40	30
48	40
49	429
50	1969
51	4189
52	309
53	10
61	10
62	20
63	10
65	80
66	80
74	30
75	169
76	329
77	70
78	9999
79	609
80	60
81	90
82	50
91	10
104	60
105	20
106	70
107	10
113	119
114	10
115	40
116	10
117	50
118	10
119	40
128	10
129	80
130	40
131	70
132	30
156	40
157	9559
158	719
159	9359
160	669
161	20
