Mass Spectrum: 9-Octadecynoic acid, methyl ester
Formula: C19 H34 O2
CAS: 1120-32-7
Molecular weight: 294
m/z	RELATIVE INTENSITY
14	149
15	1276
18	149
26	149
27	2021
29	4170
30	213
31	383
33	170
39	2340
40	681
41	6765
42	1276
43	6084
44	383
45	574
46	149
50	170
51	511
52	787
53	2255
54	4893
55	8084
56	1276
57	1702
58	170
59	2808
60	170
63	128
64	43
65	1064
66	1191
67	9999
68	5744
69	3829
70	574
71	723
72	149
73	851
74	2510
75	362
76	64
77	1659
78	574
79	4468
80	2595
81	9956
82	6297
83	2702
84	702
85	638
87	1276
88	255
91	1532
92	596
93	3234
94	2808
95	7276
96	5531
97	2127
98	553
99	425
100	170
101	425
103	213
104	213
105	596
106	277
107	1830
108	1489
109	3446
110	2638
111	936
112	213
113	213
114	170
115	511
116	170
117	277
118	213
119	489
120	574
121	2064
122	1766
123	1851
124	2468
125	681
126	255
127	362
128	213
129	383
130	170
131	468
132	319
133	425
134	383
135	1702
136	2085
137	1064
138	2127
139	532
140	468
141	362
142	170
143	468
144	85
145	383
146	170
147	681
148	149
149	1106
150	2723
151	702
152	1872
153	425
154	489
155	170
156	85
157	213
159	170
160	149
161	170
163	511
164	1957
165	468
166	851
167	362
168	425
173	213
177	340
178	1659
179	383
180	255
181	213
182	553
183	213
187	170
188	85
191	170
192	681
193	213
195	170
196	596
197	213
201	149
205	213
206	255
207	213
208	170
209	170
210	1276
211	255
219	43
220	319
221	425
222	170
223	128
224	596
225	149
234	170
237	149
238	213
245	170
246	128
251	85
261	319
262	638
263	255
264	170
265	64
266	64
281	213
294	425
295	298
