Mass Spectrum: 3-Amino-1,2,4-triazine
Formula: C3 H4 N4
CAS: 1120-99-6
Molecular weight: 96
Origin: NIST Mass Spectrometry Data Center
m/z	RELATIVE INTENSITY
12	60
13	200
14	100
15	20
16	80
17	20
24	50
25	160
26	1061
27	1561
28	1551
29	120
34	140
37	10
38	571
39	821
40	2342
41	6256
42	9529
43	1011
44	20
50	30
51	160
52	210
53	540
54	60
65	20
66	140
67	160
68	3904
69	160
78	10
96	9999
97	500
