Mass Spectrum: Cyclopentene, 3-methyl-
Formula: C6 H10
CAS: 1120-62-3
Molecular weight: 82
Origin: B. Derendyaev, Novosibirsk Institute of Organic Chemistry
m/z	RELATIVE INTENSITY
14	10
15	60
25	10
26	129
27	1029
28	119
29	179
30	10
31	10
37	50
38	169
39	2059
40	329
41	1879
42	169
43	50
44	10
45	10
49	20
50	229
51	409
52	189
53	679
54	439
55	159
56	40
57	10
58	10
61	20
62	40
63	99
64	20
65	529
66	199
67	9999
68	439
69	20
73	10
74	20
75	10
76	10
77	209
78	50
79	379
80	70
81	919
82	1799
83	119
