Mass Spectrum: 9-Hexadecenoic acid, methyl ester, (Z)-
Formula: C17 H32 O2
CAS: 1120-25-8
Molecular weight: 268
Origin: NIST Mass Spectrometry Data Center
m/z	RELATIVE INTENSITY
15	140
26	30
27	591
28	190
29	1291
30	40
31	50
33	20
39	1141
40	260
41	5735
42	1201
43	4014
44	160
45	250
46	10
50	20
51	90
52	90
53	1031
54	2412
55	9999
56	2152
57	1672
58	110
59	2582
60	80
61	30
62	10
63	20
65	370
66	240
67	3763
68	2162
69	6696
70	1511
71	821
72	130
73	611
74	6436
75	811
76	60
77	370
78	130
79	1171
80	561
81	3663
82	2392
83	5475
84	4544
85	931
87	5105
88	480
89	40
91	390
92	110
93	611
94	611
95	2783
96	5055
97	4954
98	4254
99	601
100	150
101	1001
102	110
103	20
104	10
105	240
106	100
107	470
108	430
109	1742
110	2893
111	2472
112	981
113	550
114	641
115	961
116	150
117	30
118	30
119	500
120	180
121	601
122	310
123	2232
124	1501
125	1311
126	280
127	571
128	681
129	611
130	130
131	30
132	20
133	440
134	390
135	540
136	270
137	1351
138	1381
139	771
140	150
141	1191
142	210
143	480
144	70
145	20
146	10
147	370
148	320
149	310
150	140
151	861
152	2472
153	681
154	100
155	340
156	60
157	130
158	40
159	10
161	220
162	80
163	120
164	60
165	520
166	450
167	170
168	30
169	100
170	20
171	150
172	90
173	20
175	140
176	50
177	40
178	40
179	310
180	160
181	100
182	30
183	50
184	10
185	150
186	90
187	20
189	80
190	20
192	691
193	520
194	2282
195	470
196	40
197	30
198	10
199	50
200	50
201	10
203	10
205	10
207	300
208	220
209	30
211	20
213	30
217	20
218	210
219	130
220	20
221	60
222	10
225	130
226	20
227	20
236	2672
237	2142
238	350
239	60
240	10
250	50
251	10
268	691
269	160
270	20
