Mass Spectrum: Oxazole, 4,5-dihydro-2-methyl-
Formula: C4 H7 N O
CAS: 1120-64-5
Molecular weight: 85
Origin: Japan AIST/NIMC Database- Spectrum MS-NW-8803
m/z	RELATIVE INTENSITY
13	30
14	199
15	1269
16	20
25	30
26	359
27	719
28	1939
29	359
30	80
31	20
38	30
39	60
40	189
41	249
42	1069
43	1989
44	139
45	10
51	50
52	159
53	60
54	2499
55	9999
56	1119
57	40
84	159
85	4849
86	359
87	20
