Mass Spectrum: 1-Octanamine, n-octyl-
Formula: C16 H35 N
CAS: 1120-48-5
Molecular weight: 241
Origin: NIST Mass Spectrometry Data Center, 1994
m/z	RELATIVE INTENSITY
15	43
27	723
28	385
29	2155
30	2301
31	41
39	381
41	2643
42	694
43	3229
44	9215
45	266
53	103
54	116
55	941
56	805
57	1309
58	183
59	27
65	25
67	108
68	108
69	576
70	683
71	399
72	169
79	25
81	33
82	47
83	61
84	337
85	36
86	107
96	19
98	155
99	19
100	84
112	71
114	21
126	24
128	356
129	82
130	58
140	136
142	9999
143	970
144	57
156	98
168	27
184	65
198	132
199	22
212	86
226	33
240	105
241	323
242	57
243	3
