Mass Spectrum: 1,3-Dioxane, 4-methyl-
Formula: C5 H10 O2
CAS: 1120-97-4
Molecular weight: 102
Origin: NIST Mass Spectrometry Data Center, 1990.
m/z	RELATIVE INTENSITY
12	25
13	24
14	160
15	909
17	19
18	25
26	822
27	3170
28	3116
29	4561
30	1163
31	4036
33	12
37	153
38	349
39	1979
40	524
41	2680
42	3439
43	9999
44	1296
45	2860
46	91
47	24
49	24
50	87
51	71
52	33
53	197
54	24
55	4722
56	281
57	1864
58	1044
59	215
61	37
68	18
69	61
70	40
71	400
72	3154
73	181
74	33
75	19
85	12
87	1358
88	56
101	6124
102	376
103	51
