Mass Spectrum: Nonanamide
Formula: C9 H19 N O
CAS: 1120-07-6
Molecular weight: 157
Origin: J.A.GILPIN DOW CHEMICAL CO., MIDLAND, MICHIGAN, USA
m/z	RELATIVE INTENSITY
15	20
27	400
28	300
29	500
30	40
31	20
41	900
42	300
43	1300
44	1300
45	60
55	600
56	100
57	500
58	30
59	9999
60	500
71	200
72	2700
73	500
74	30
85	30
86	600
87	50
99	10
100	100
101	40
114	400
115	50
128	200
129	30
141	20
142	10
156	10
157	90
