Mass Spectrum: Cyclobutane, methylene-
Formula: C5 H8
CAS: 1120-56-5
Molecular weight: 68
Origin: Japan AIST/NIMC Database- Spectrum MS-IW-1088
m/z	RELATIVE INTENSITY
14	10
15	30
25	10
26	149
27	849
28	179
29	189
31	159
36	20
37	159
38	399
39	4129
40	8049
41	1649
42	1089
43	99
44	10
45	10
49	40
50	199
51	279
52	139
53	3239
54	169
55	379
56	70
57	10
60	20
61	99
62	149
63	179
64	20
65	669
66	379
67	9999
68	8649
69	519
70	129
71	20
