Mass Spectrum: 2-Decanol
Formula: C10 H22 O
CAS: 1120-06-5
Molecular weight: 158
Origin: M.C. HAMMING CONTINENTAL OIL CO., PONCA CITY, OKLA, USA
m/z	RELATIVE INTENSITY
13	6
14	37
15	303
16	18
17	15
18	49
19	15
25	3
26	83
27	1482
28	337
29	1692
30	52
31	250
32	6
35	3
36	12
37	15
38	34
39	708
40	148
41	2138
42	693
43	2271
44	677
45	9999
46	232
47	27
50	15
51	37
52	21
53	145
54	133
55	1448
56	860
57	1049
58	216
59	74
60	6
63	9
65	21
66	15
67	114
68	92
69	1296
70	637
71	417
72	40
73	9
77	12
79	12
81	49
82	102
83	699
84	318
85	269
86	21
87	21
91	6
95	12
96	34
97	194
98	167
99	18
109	3
110	12
111	95
112	278
113	27
114	52
115	6
125	15
126	6
140	173
141	21
143	145
144	15
156	6
157	15
