Mass Spectrum: 1-Decanamine, N,N-dimethyl-
Formula: C12 H27 N
CAS: 1120-24-7
Molecular weight: 185
Origin: Japan AIST/NIMC Database- Spectrum MS-NW-9089
m/z	RELATIVE INTENSITY
14	10
15	319
27	60
28	40
29	129
30	99
39	40
40	10
41	209
42	159
43	249
44	129
45	149
46	70
53	10
54	10
55	169
56	70
57	189
58	9999
59	409
67	10
68	10
69	80
70	40
71	80
72	40
73	10
82	10
83	30
84	60
85	40
91	20
92	10
98	10
99	10
100	10
114	20
128	10
156	10
170	10
184	40
185	269
186	40
