Mass Spectrum: Glutarimide
Formula: C5 H7 N O2
CAS: 1121-89-7
Molecular weight: 113
Origin: NIST Mass Spectrometry Data Center
m/z	RELATIVE INTENSITY
25	10
26	100
27	350
28	140
29	70
30	10
34	20
35	20
36	20
37	150
38	320
39	1661
40	881
41	3483
42	9999
43	701
44	290
45	40
49	20
52	70
53	130
54	100
55	340
56	30
68	40
69	110
70	6005
71	260
72	50
74	50
84	170
85	90
113	7607
114	450
115	50
