Mass Spectrum: Methanone, dicyclopropyl-
Formula: C7 H10 O
CAS: 1121-37-5
Molecular weight: 110
Origin: NIST Mass Spectrometry Data Center, 1990.
m/z	RELATIVE INTENSITY
15	66
26	207
27	454
28	257
29	98
32	184
37	201
38	561
39	3730
40	629
41	5290
42	320
43	74
50	193
51	185
52	83
53	316
54	122
55	495
63	63
65	128
66	70
67	290
68	1020
69	9999
70	425
77	224
79	323
80	74
81	357
82	809
83	66
84	94
91	91
95	376
109	803
110	1034
111	76
