Mass Spectrum: 2-Pyridinecarboxaldehyde
Formula: C6 H5 N O
CAS: 1121-60-4
Molecular weight: 107
Origin: Japan AIST/NIMC Database- Spectrum MS-NW- 997
m/z	RELATIVE INTENSITY
12	10
17	20
18	70
24	10
25	60
26	479
27	509
28	199
29	389
31	10
36	40
37	199
38	259
39	509
40	40
41	10
44	20
48	40
49	259
50	1239
51	3079
52	5489
53	639
54	20
60	20
61	50
62	50
63	70
64	40
74	20
75	179
76	209
77	99
78	3469
79	9999
80	589
81	10
106	20
107	2009
108	149
