Mass Spectrum: 3-Pyridinol, 2-methyl-
Formula: C6 H7 N O
CAS: 1121-25-1
Molecular weight: 109
m/z	RELATIVE INTENSITY
26	688
27	1284
28	2385
37	459
38	1330
39	3394
40	757
41	734
42	1445
50	459
51	871
52	986
53	1903
54	986
55	573
63	482
64	780
65	390
66	459
67	573
68	298
69	183
70	688
78	321
79	275
80	7683
81	1605
82	482
91	596
92	115
93	92
94	206
108	688
109	9999
110	1009
