Mass Spectrum: 2,5-Pyrrolidinedione, 1-methyl-
Formula: C5 H7 N O2
CAS: 1121-07-9
Molecular weight: 113
Origin: NIST Mass Spectrometry Data Center, 1994
m/z	RELATIVE INTENSITY
12	42
13	104
14	440
15	652
16	22
18	26
24	28
25	225
26	1771
27	3229
28	9999
29	1044
30	321
31	55
32	11
36	23
37	83
38	90
39	100
40	131
41	269
42	1039
43	402
44	77
50	13
51	60
52	116
53	226
54	227
55	1319
56	4389
57	892
58	965
59	29
66	17
67	14
68	144
69	46
70	166
71	27
82	10
84	267
85	419
86	25
113	4502
114	267
115	6
