Mass Spectrum: Cyclopentanone, 2,4-dimethyl-
Formula: C7 H12 O
CAS: 1121-33-1
Molecular weight: 112
m/z	RELATIVE INTENSITY
29	1103
31	34
33	69
37	34
38	172
39	276
40	517
41	5689
42	9999
43	1552
50	103
51	172
52	69
53	345
54	172
55	3448
56	1448
57	172
58	69
59	69
63	69
65	103
66	69
67	172
68	276
69	7068
70	1655
71	172
79	103
81	103
83	414
84	172
94	172
97	759
98	69
111	69
112	1379
113	69
114	69
