Mass Spectrum: N-Methyl-4-pyridinamine
Formula: C6 H8 N2
CAS: 1121-58-0
Molecular weight: 108
Origin: A.A.Kutin, Moscow, Russia
m/z	RELATIVE INTENSITY
33	69
40	29
41	178
42	168
44	90
45	373
51	2226
52	1187
53	397
54	45
55	106
56	131
65	273
66	1016
67	1239
68	118
69	297
78	2028
79	3219
81	496
106	667
107	9428
108	9999
109	174
