Mass Spectrum: 3-Cyclohepten-1-one
Formula: C7 H10 O
CAS: 1121-64-8
Molecular weight: 110
m/z	RELATIVE INTENSITY
41	2502
42	400
43	400
51	601
52	400
53	1902
54	9999
55	4504
56	500
65	400
66	601
67	7006
68	2702
69	400
76	500
77	300
78	901
79	300
80	1501
81	3703
82	400
91	300
92	300
95	500
109	300
110	3303
111	200
