Mass Spectrum: 2H-Pyran-2-one, tetrahydro-4-methyl-
Formula: C6 H10 O2
CAS: 1121-84-2
Molecular weight: 114
Origin: L.E. Slivon, Battelle Columbus Laboratories, Columbus, Ohio 43201
m/z	RELATIVE INTENSITY
40	503
41	4030
42	9999
43	1152
45	59
48	3
49	18
50	66
52	3
53	395
54	248
55	8741
56	4102
57	313
58	32
60	3
67	127
68	90
69	1124
70	1569
71	140
81	25
82	27
83	22
84	210
85	60
86	3
95	9
96	5
97	3
99	13
112	8
113	35
114	1497
115	56
