Mass Spectrum: 2-Mercaptophenol
Formula: C6 H6 O S
CAS: 1121-24-0
Molecular weight: 126
Origin: NIST Mass Spectrometry Data Center
m/z	RELATIVE INTENSITY
12	20
13	20
15	50
16	10
17	30
18	40
19	30
24	20
25	60
26	290
27	390
28	120
29	350
30	20
31	60
32	230
33	230
34	140
35	20
36	90
37	460
38	811
39	1561
40	140
41	80
42	80
43	50
44	150
45	1902
46	110
47	230
48	130
49	240
50	621
51	520
52	270
53	1672
54	430
55	210
56	70
57	270
58	540
59	80
60	90
61	340
62	500
63	1291
64	520
65	1051
66	360
67	50
68	310
69	2022
70	571
71	621
72	130
73	90
74	120
75	50
77	40
79	30
80	30
81	290
82	861
83	80
84	881
85	130
86	50
87	30
92	230
93	440
94	350
95	420
97	8778
98	1762
99	500
100	210
105	20
106	20
108	611
109	60
110	30
111	130
116	20
117	20
118	40
120	70
122	20
126	9999
127	821
128	520
129	30
