Mass Spectrum: trans-1,2-Cyclohexanediamine
Formula: C6 H14 N2
CAS: 1121-22-8
Molecular weight: 114
Origin: NIST Mass Spectrometry Data Center, 1994
m/z	RELATIVE INTENSITY
8	46
13	41
14	121
15	619
16	52
17	135
18	854
26	232
27	1375
28	5304
29	1203
30	5148
31	87
37	59
38	197
39	1363
40	337
41	2099
42	3187
43	9732
44	1291
45	746
50	99
51	186
52	188
53	315
54	766
55	99
56	9999
57	861
58	861
59	491
60	41
65	128
66	69
67	367
68	41
69	6806
70	2340
71	1187
72	792
73	51
77	164
79	331
80	236
81	211
82	1424
83	144
84	364
85	197
86	83
94	63
96	1291
97	4412
98	354
114	1216
115	106
