Mass Spectrum: Benzenamine, N-sulfinyl-
Formula: C6 H5 N O S
CAS: 1122-83-4
Molecular weight: 139
Origin: Japan AIST/NIMC Database- Spectrum MS-NW-1002
m/z	RELATIVE INTENSITY
14	10
15	10
16	10
17	10
18	40
25	20
26	139
27	319
28	379
29	10
31	10
32	129
33	10
34	20
36	40
37	539
38	1089
39	1589
40	269
41	569
42	30
44	80
45	1799
46	109
47	80
48	499
49	90
50	629
51	1399
52	629
53	229
54	80
55	169
56	10
57	20
58	219
59	50
60	70
61	239
62	399
63	1759
64	3349
65	1829
66	489
67	2129
68	109
69	90
70	50
71	80
72	20
73	50
74	139
75	99
76	99
77	759
78	709
79	99
80	30
81	70
82	20
83	90
84	2519
85	329
86	169
87	90
88	90
89	30
90	369
91	2459
92	329
93	1319
94	99
95	40
96	99
97	20
98	70
105	20
106	159
107	10
109	10
110	1669
111	3499
112	679
113	189
114	30
122	229
123	129
124	20
125	10
138	609
139	9999
140	819
141	489
142	30
