Mass Spectrum: Cyclohexane, isothiocyanato-
Formula: C7 H11 N S
CAS: 1122-82-3
Molecular weight: 141
Origin: Japan AIST/NIMC Database- Spectrum MS-NW-5397
m/z	RELATIVE INTENSITY
14	10
15	90
26	179
27	1549
28	379
29	1009
30	60
31	10
32	70
33	10
34	10
36	20
37	50
38	129
39	1899
40	269
41	5319
42	299
43	529
44	109
45	149
46	20
47	10
49	20
50	139
51	259
52	139
53	719
54	929
55	9999
56	629
57	60
58	389
59	299
60	139
61	20
62	50
63	40
64	20
65	119
66	80
67	1829
68	149
69	60
70	90
71	99
72	519
73	40
74	50
75	10
76	30
77	139
78	119
79	199
80	60
81	459
82	2849
83	6099
84	469
85	339
86	80
87	30
88	10
90	60
93	10
94	10
96	20
97	40
98	439
99	60
100	50
101	10
102	20
108	20
109	10
110	10
112	70
113	60
114	10
115	10
124	10
126	10
139	10
140	50
141	5289
142	559
143	289
144	20
