Mass Spectrum: Benzaldehyde, 4-bromo-
Formula: C7 H5 Br O
CAS: 1122-91-4
Molecular weight: 184
Origin: Japan AIST/NIMC Database- Spectrum MS-NW-8787
m/z	RELATIVE INTENSITY
18	10
25	20
26	70
27	149
28	80
29	269
36	50
37	389
38	759
39	179
43	40
44	20
48	30
49	359
50	3579
51	2189
52	319
53	70
60	40
61	179
62	189
63	119
72	40
73	489
74	2029
75	2859
76	2709
77	2669
78	359
79	279
80	80
81	70
82	70
84	20
85	50
86	60
87	30
88	10
89	30
91	40
92	40
93	20
103	20
104	219
105	60
106	20
107	40
116	10
117	30
118	10
119	20
128	40
129	99
130	40
131	99
154	30
155	4459
156	589
157	4339
158	539
159	20
182	20
183	9699
184	7139
185	9999
186	7019
187	529
188	30
