Mass Spectrum: 2-Propanone, 1-cyclopentyl-
Formula: C8 H14 O
CAS: 1122-98-1
Molecular weight: 126
Origin: NIST Mass Spectrometry Data Center, 1994
m/z	RELATIVE INTENSITY
13	25
14	193
15	1467
16	28
17	6
18	38
26	262
27	1829
28	478
29	922
30	35
31	87
37	52
39	2417
40	476
41	3439
42	35
43	9999
44	248
45	67
50	156
51	259
52	133
53	541
54	341
55	3125
56	209
57	67
58	4722
59	5596
60	198
61	27
62	22
63	61
65	160
66	151
67	1009
68	992
69	431
70	38
71	131
72	16
74	13
77	105
78	23
79	131
80	25
81	92
82	13
83	1481
84	143
85	27
91	23
93	101
94	14
95	8
96	8
97	324
98	33
108	116
109	19
111	230
112	17
126	615
127	61
