Mass Spectrum: Cyanic acid, phenyl ester
Formula: C7 H5 N O
CAS: 1122-85-6
Molecular weight: 119
m/z	RELATIVE INTENSITY
37	175
38	450
39	875
50	950
51	2250
63	250
64	325
65	500
74	350
75	200
76	125
77	9999
78	650
119	5299
120	375
