Mass Spectrum: 2-Ethylidenecyclohexanone
Formula: C8 H12 O
CAS: 1122-24-3
Molecular weight: 124
Origin: NIST Mass Spectrometry Data Center, 1990.
m/z	RELATIVE INTENSITY
26	227
27	1051
28	98
29	304
32	53
38	326
39	2703
40	808
41	1438
42	633
50	402
51	752
52	406
53	2116
54	1442
55	1750
56	167
62	134
63	253
65	665
66	1286
67	9999
68	2554
69	259
77	449
79	1122
81	3047
82	294
91	223
95	659
96	1238
109	1221
124	3567
125	329
