Mass Spectrum: Cyclohexanecarboxamide
Formula: C7 H13 N O
CAS: 1122-56-1
Molecular weight: 127
Origin: NIST Mass Spectrometry Data Center, 1994
m/z	RELATIVE INTENSITY
11	62
14	24
15	315
16	504
17	210
18	224
26	509
27	3630
28	1314
29	1647
30	334
32	26
37	157
38	384
39	4956
40	832
41	6123
42	950
43	886
44	5449
45	126
46	405
50	375
51	752
52	356
53	1395
54	1318
55	9999
56	1564
57	155
58	126
59	5265
60	320
63	133
65	314
66	197
67	1224
68	291
69	451
70	163
71	133
72	8473
73	820
77	335
79	416
80	140
81	611
82	472
83	2692
84	431
85	874
86	1465
87	108
98	3317
99	728
109	109
110	206
111	91
112	1060
113	117
126	762
127	2475
128	197
