Mass Spectrum: 4-(Methylthio)thiophenol
Formula: C7 H8 S2
CAS: 1122-97-0
Molecular weight: 156
Origin: NIST Mass Spectrometry Data Center, 1994
m/z	RELATIVE INTENSITY
12	51
13	129
14	455
15	2334
16	69
17	38
18	140
25	21
26	157
27	246
28	654
32	364
33	202
34	93
36	38
37	376
38	713
39	1597
40	68
41	35
45	4318
46	618
47	580
48	91
49	157
50	1208
51	906
52	134
53	370
54	81
56	74
57	789
58	815
59	229
60	101
61	375
62	737
63	1650
64	394
65	1201
66	414
67	93
68	74
69	3680
70	1251
71	886
72	179
73	148
74	546
75	314
76	223
77	1593
78	842
79	268
80	69
81	525
82	1185
83	241
84	265
85	87
88	137
89	69
90	59
91	631
92	159
93	266
94	84
95	821
96	1580
97	3514
98	279
99	150
100	55
101	102
105	121
106	159
108	3267
109	1208
110	1900
111	545
112	210
113	50
114	265
115	47
121	428
122	247
123	591
124	316
125	43
139	270
140	1354
141	9421
142	936
143	891
144	78
145	23
153	114
155	1751
156	9999
157	1075
158	925
159	80
160	23
