Mass Spectrum: Pyridine, 4-methoxy-1-oxide-
Formula: C6 H7 N O2
CAS: 1122-96-9
Molecular weight: 125
Origin: Japan AIST/NIMC Database- Spectrum MS-IW- 68
m/z	RELATIVE INTENSITY
15	109
25	10
26	249
27	469
28	769
29	229
30	349
31	20
33	20
37	70
38	229
39	529
40	289
41	179
42	70
43	70
44	10
49	40
50	239
51	409
52	479
53	329
54	339
55	249
56	209
57	20
58	30
59	20
61	50
62	169
63	269
64	129
65	109
66	189
67	119
68	539
69	369
70	20
71	10
75	20
76	30
77	10
78	149
79	439
80	60
81	30
82	539
83	249
84	269
85	10
92	99
93	129
94	60
95	10
96	60
97	20
98	169
99	10
108	229
109	699
110	3169
111	189
112	10
122	10
124	50
125	9999
126	819
127	70
