Mass Spectrum: 2,6-Piperidinedione, 4,4-dimethyl-
Formula: C7 H11 N O2
CAS: 1123-40-6
Molecular weight: 141
m/z	RELATIVE INTENSITY
39	1963
40	889
41	3703
42	1407
55	7481
56	9999
57	1222
70	6259
82	1666
83	5703
84	555
98	1111
113	1481
125	852
141	5444
