Mass Spectrum: 8-Azaadenine
Formula: C4 H4 N6
CAS: 1123-54-2
Molecular weight: 136
Origin: Japan AIST/NIMC Database- Spectrum MS-NW-2832
m/z	RELATIVE INTENSITY
12	109
13	99
14	60
24	60
25	50
26	529
27	3969
28	5819
29	639
30	10
32	10
33	10
36	20
38	849
39	1239
40	709
41	189
42	299
43	2149
44	50
45	10
50	40
51	99
52	369
53	3399
54	5569
55	449
56	469
57	20
60	10
61	10
64	109
65	299
66	4509
67	979
68	99
69	10
71	10
78	20
79	30
80	179
81	7059
82	299
83	20
86	10
91	30
92	10
93	10
107	70
108	2229
109	199
110	40
135	10
136	9999
137	659
138	20
