Mass Spectrum: 2,6-Dimethylbenzaldehyde
Formula: C9 H10 O
CAS: 1123-56-4
Molecular weight: 134
Origin: Dr. Jiri Zamecnik, DCIEM, North York, Canada, GP Library
m/z	RELATIVE INTENSITY
39	5140
50	1520
51	4420
53	1580
63	2510
65	2120
77	6380
78	2420
79	4310
89	830
91	5130
103	3410
104	960
105	8920
106	1740
133	9999
134	9470
135	1740
