Mass Spectrum: 1-Propanone, 1-cyclohexyl-
Formula: C9 H16 O
CAS: 1123-86-0
Molecular weight: 140
Origin: NIST Mass Spectrometry Data Center, 1990.
m/z	RELATIVE INTENSITY
15	101
26	236
27	1911
28	858
29	2584
39	1563
41	2620
42	368
43	429
51	230
52	124
53	531
54	658
55	6395
56	635
57	2888
65	151
67	957
68	236
69	169
72	111
77	177
79	177
81	191
83	9999
84	697
85	521
98	123
111	2119
112	165
140	1700
141	178
