Mass Spectrum: Cyclopentaneacetic acid
Formula: C7 H12 O2
CAS: 1123-00-8
Molecular weight: 128
Origin: Japan AIST/NIMC Database- Spectrum MS-NW-3167
m/z	RELATIVE INTENSITY
14	20
15	90
17	10
18	30
26	119
27	1149
28	249
29	769
30	30
31	99
32	40
37	40
38	119
39	1679
40	399
41	4149
42	989
43	929
44	90
45	519
46	20
47	30
49	10
50	109
51	189
52	99
53	599
54	719
55	2199
56	549
57	359
58	399
59	40
60	9999
61	5739
62	179
63	60
65	129
66	329
67	2039
68	5569
69	3129
70	169
71	109
72	99
73	529
74	99
75	10
77	90
78	20
79	129
80	30
81	249
82	299
83	329
84	30
85	1879
86	259
87	229
88	60
89	10
91	10
92	10
95	40
97	20
99	1379
100	329
101	20
105	10
108	10
109	50
110	109
111	70
113	70
127	129
128	349
129	40
