Mass Spectrum: 1,2-Cyclononadiene
Formula: C9 H14
CAS: 1123-11-1
Molecular weight: 122
Origin: V.Zaikin,Topchiev Inst.Petrochem.Synth.,Moscow
m/z	RELATIVE INTENSITY
27	530
28	641
29	721
30	30
37	240
38	701
39	6075
40	1131
41	3833
42	681
43	120
44	30
49	701
50	1071
51	2022
52	1451
53	2362
54	781
55	961
56	70
61	130
62	390
63	751
64	210
65	1551
66	1331
67	2512
68	420
69	60
73	20
74	140
75	210
76	60
77	2983
78	921
79	9999
80	3593
81	2893
82	250
85	30
86	50
87	40
89	80
90	20
91	1651
92	330
93	3093
94	1601
95	140
103	30
105	110
106	40
107	390
108	30
115	30
117	30
119	30
121	130
122	100
