Mass Spectrum: Phenol, 4-ethyl-3-methyl-
Formula: C9 H12 O
CAS: 1123-94-0
Molecular weight: 136
Origin: J.MACAK, DEP. GAS COKE TECH., PRAGUE INST. CHEM. TECH., CZEC
m/z	RELATIVE INTENSITY
38	100
39	1000
40	200
41	400
43	200
45	100
50	300
51	700
52	300
53	500
55	300
62	100
63	300
64	100
65	500
74	100
75	100
76	100
77	1500
78	300
79	300
81	100
89	100
91	1500
92	200
93	200
94	100
102	100
103	300
105	200
107	300
108	100
115	200
117	100
119	100
120	200
121	9999
122	1000
125	400
133	100
135	200
136	2800
