Mass Spectrum: 4-Chloro-2,6-dimethylphenol
Formula: C8 H9 Cl O
CAS: 1123-63-3
Molecular weight: 156
Origin: NIST Mass Spectrometry Data Center
m/z	RELATIVE INTENSITY
14	30
15	360
16	40
18	70
19	90
26	270
27	871
28	40
29	160
32	30
35	50
36	50
37	240
38	561
39	1822
40	230
41	370
42	60
43	420
44	110
45	210
48	30
49	220
50	891
51	1892
52	450
53	721
54	90
55	270
60	110
61	360
62	731
63	1451
64	360
65	1892
66	290
67	180
72	60
73	340
74	330
75	550
76	270
77	3783
78	561
79	170
84	90
85	160
86	240
87	320
88	90
89	571
91	5065
92	711
93	781
94	110
97	60
99	160
100	50
101	180
102	370
103	1461
104	170
105	70
111	100
112	190
113	230
114	90
115	110
119	90
121	9999
122	901
123	50
125	170
126	60
127	270
128	60
129	80
136	30
137	60
138	160
139	150
141	841
142	50
143	290
154	100
155	1111
156	7216
157	921
158	2552
159	210
