Mass Spectrum: Cyclohexane, 1-methyl-4-(1-methylethenyl)-, trans-
Formula: C10 H18
CAS: 1124-25-0
Molecular weight: 138
m/z	RELATIVE INTENSITY
41	5305
43	701
53	1902
55	6306
67	6906
68	7607
69	2402
70	450
77	601
79	1101
80	651
81	9999
82	4604
83	1001
91	300
93	350
94	601
95	9108
96	4404
109	2002
110	651
123	200
138	2702
