Mass Spectrum: 4-Ethylcatechol
Formula: C8 H10 O2
CAS: 1124-39-6
Molecular weight: 138
Origin: NIST Mass Spectrometry Data Center, 1994
m/z	RELATIVE INTENSITY
11	19
12	4
13	30
14	106
15	353
16	3
17	35
18	70
19	111
25	16
26	221
27	1162
28	240
29	542
30	13
31	40
32	46
36	29
37	74
38	317
39	1233
40	176
41	338
42	126
43	203
44	41
45	65
46	39
48	71
49	80
50	574
51	1567
52	378
53	777
54	203
55	476
56	23
57	43
58	47
60	16
61	100
62	271
63	586
64	216
65	694
66	250
67	336
68	129
69	125
70	27
71	17
73	30
74	97
75	51
76	79
77	1455
78	164
79	358
80	68
81	206
82	5
86	44
87	25
88	25
89	233
90	124
91	843
92	360
93	65
94	236
95	104
96	38
97	11
103	34
105	325
106	27
107	97
108	43
109	98
110	183
111	26
117	3
118	22
119	132
120	99
121	87
122	3
123	9999
124	830
125	63
135	25
136	141
138	2899
139	215
140	20
