Mass Spectrum: Cyclohexene, 3-methyl-6-(1-methylethyl)-, trans-
Formula: C10 H18
CAS: 1124-26-1
Molecular weight: 138
Origin: G.VON BUNAU MAX-PLANCK-INST., MULHEIM-RHUR, GERMANY, FRG
m/z	RELATIVE INTENSITY
27	831
29	562
39	978
40	244
41	1858
42	244
43	660
51	269
52	171
53	685
54	269
55	1638
56	220
57	244
65	391
66	196
67	2445
68	1222
69	758
70	269
77	685
78	244
79	1051
80	489
81	2836
82	1369
83	367
91	465
92	147
93	538
94	954
95	9999
96	1736
97	220
109	440
110	171
123	1467
124	293
138	2445
139	367
