Mass Spectrum: Pyridine, 4-nitro-, 1-oxide
Formula: C5 H4 N2 O3
CAS: 1124-33-0
Molecular weight: 140
Origin: NIST Mass Spectrometry Data Center, 1998.
m/z	RELATIVE INTENSITY
14	10
16	10
24	20
25	100
26	540
27	490
28	1570
29	440
30	4620
31	30
32	20
36	90
37	900
38	2860
39	9999
40	870
41	240
42	130
43	40
44	90
45	20
46	320
48	100
49	780
50	4030
51	5599
52	1100
53	2110
54	700
55	180
56	610
57	10
60	90
61	920
62	2220
63	7239
64	3170
65	330
66	160
67	190
68	200
69	30
74	50
75	360
76	400
77	300
78	1970
79	150
80	20
81	20
82	740
83	30
84	580
85	10
92	20
93	70
94	1710
95	110
96	10
108	60
110	8169
111	490
112	30
124	1410
125	90
138	10
140	9149
141	560
142	50
