Mass Spectrum: 1,2-Cyclobutanedicarboxylic acid, trans-
Formula: C6 H8 O4
CAS: 1124-13-6
Molecular weight: 144
Origin: Japan AIST/NIMC Database- Spectrum MS-NW-7096
m/z	RELATIVE INTENSITY
12	20
13	20
14	99
15	239
16	20
17	159
18	619
19	40
25	119
26	1819
27	7039
28	3339
29	2539
30	80
31	359
32	10
36	20
37	169
38	329
39	2429
40	249
41	1609
42	929
43	3989
44	909
45	3929
46	289
47	60
48	20
49	129
50	539
51	789
52	459
53	3889
54	2529
55	6969
56	989
57	1749
58	599
59	30
60	189
61	30
62	10
63	20
64	10
66	30
67	80
68	139
69	1209
70	1269
71	1459
72	1599
73	5069
74	219
75	30
76	60
77	20
78	10
79	80
80	779
81	2669
82	1709
83	239
84	139
85	189
86	139
87	40
88	119
89	70
91	10
92	10
95	10
96	20
97	1039
98	9999
99	3809
100	1169
101	90
102	10
108	1499
109	119
110	10
113	10
116	50
117	1369
118	70
119	10
125	30
126	7549
127	819
128	90
129	20
143	10
144	30
145	20
