Mass Spectrum: 2-Chloro-4,5-dimethylphenol
Formula: C8 H9 Cl O
CAS: 1124-04-5
Molecular weight: 156
Origin: NIST Mass Spectrometry Data Center
m/z	RELATIVE INTENSITY
14	180
15	981
16	20
18	30
20	40
26	641
27	1972
28	290
29	631
31	100
35	170
36	170
37	641
38	1281
39	4464
40	530
41	991
42	150
43	540
44	170
45	591
46	220
47	130
49	540
50	2402
51	4034
52	911
53	1962
54	170
55	420
56	70
59	400
60	290
61	611
62	931
63	1992
64	611
65	3093
66	520
67	290
68	40
69	40
71	30
72	90
73	450
74	601
75	741
77	4024
78	741
79	290
80	40
81	70
84	130
85	230
86	220
87	290
89	791
91	4654
92	781
93	661
94	130
95	30
96	40
97	100
98	60
99	160
100	50
101	110
102	160
103	410
104	50
105	250
106	30
111	90
112	100
113	110
114	40
115	60
117	40
119	320
121	9999
122	931
123	80
125	120
126	40
127	190
128	110
129	50
138	30
141	1672
142	420
143	1391
144	110
155	2062
156	5405
157	1121
158	1641
159	200
