Mass Spectrum: Pyrazine, tetramethyl-
Formula: C8 H12 N2
CAS: 1124-11-4
Molecular weight: 136
Origin: Japan AIST/NIMC Database- Spectrum MS-NW-3577
m/z	RELATIVE INTENSITY
14	20
15	339
18	30
26	169
27	1399
28	379
29	30
37	60
38	119
39	1719
40	179
41	299
42	5049
43	149
44	10
49	20
50	229
51	489
52	569
53	1679
54	9999
55	489
56	10
63	20
64	40
65	40
66	70
67	60
68	119
69	10
75	20
76	20
77	10
78	30
79	20
80	229
81	20
82	10
83	30
92	10
93	20
94	289
95	509
96	50
108	20
109	30
110	20
119	10
121	159
122	20
133	10
134	20
135	439
136	7739
137	769
138	30
