Mass Spectrum: Pyridine, 2-ethyl-4,6-dimethyl-
Formula: C9 H13 N
CAS: 1124-35-2
Molecular weight: 135
m/z	RELATIVE INTENSITY
26	280
27	1461
28	871
29	340
31	130
37	90
38	300
39	1732
40	270
41	621
42	320
50	340
51	811
52	500
53	681
54	170
55	60
60	100
61	40
62	120
63	350
64	170
65	510
66	200
67	170
77	1101
78	350
79	691
80	260
91	430
92	160
93	170
94	60
104	120
105	180
106	821
107	2672
108	480
117	270
118	150
119	200
120	220
121	140
132	240
133	360
134	9999
135	4924
136	520
