Mass Spectrum: 1,3-Cyclohexanedione, 2,5,5-trimethyl-
Formula: C9 H14 O2
CAS: 1125-11-7
Molecular weight: 154
m/z	RELATIVE INTENSITY
39	631
40	160
41	1251
42	310
43	380
44	160
45	631
46	310
51	60
53	310
54	60
55	1561
56	2032
57	250
69	310
70	941
71	160
82	60
83	9999
84	631
97	60
98	1722
99	60
111	470
126	310
139	310
154	3133
155	310
156	60
