Mass Spectrum: Pyrazole, 4-nitro-1,3,5-trimethyl-
Formula: C6 H9 N3 O2
CAS: 1125-30-0
Molecular weight: 155
Origin: NIST Mass Spectrometry Data Center, 1994
m/z	RELATIVE INTENSITY
13	31
14	117
15	4140
16	73
17	170
18	600
25	48
26	283
27	490
28	1804
29	170
30	1799
37	404
38	788
39	3812
40	1578
41	668
42	5424
43	3690
44	56
46	239
49	47
50	224
51	555
52	679
53	654
54	938
55	1429
56	9999
57	438
58	72
61	111
62	339
63	851
64	356
65	1920
66	1275
67	2471
68	517
69	606
70	289
71	211
76	33
77	191
78	73
79	692
80	220
81	436
82	624
83	1116
84	106
93	84
94	63
95	121
96	129
97	264
107	38
108	161
109	99
110	151
120	33
123	62
124	141
125	63
126	76
138	5912
139	629
140	55
155	4435
156	371
