Mass Spectrum: 2,6,6-Trimethyl-2-cyclohexene-1,4-dione
Formula: C9 H12 O2
CAS: 1125-21-9
Molecular weight: 152
Origin: NIST Mass Spectrometry Data Center, 1998.
m/z	RELATIVE INTENSITY
15	30
26	50
27	490
29	380
37	100
38	410
39	3490
40	3350
41	1800
42	330
43	210
50	190
51	290
52	120
53	590
54	110
55	640
56	410
63	80
65	150
66	140
67	360
68	9999
69	840
70	60
77	190
79	270
81	500
82	110
83	130
91	190
94	60
95	150
96	7519
97	460
107	100
109	1290
110	350
111	20
123	160
124	300
137	650
138	60
152	3550
153	360
