Mass Spectrum: 6H-Purine-6-thione, 1,7-dihydro-8-methyl-
Formula: C6 H6 N4 S
CAS: 1126-23-4
Molecular weight: 166
Origin: F. BERGMANN
m/z	RELATIVE INTENSITY
40	400
41	400
42	2100
43	400
44	500
45	1100
51	300
52	400
53	500
55	300
59	300
60	300
65	300
66	500
67	400
70	800
71	1200
72	300
73	300
83	500
97	800
98	3600
99	300
106	300
125	300
133	900
138	500
139	800
142	300
165	700
166	9999
167	900
168	400
