Mass Spectrum: 1H-Pyrazole, 1-phenyl-
Formula: C9 H8 N2
CAS: 1126-00-7
Molecular weight: 144
Origin: V.A. KOPTYUG, VOL.4, ATLAS OF MASS SPECTRA OF ORGANIC COMPOUNDS
m/z	RELATIVE INTENSITY
26	150
27	300
28	340
37	120
38	380
39	820
40	190
41	260
42	40
50	650
51	2650
52	490
62	190
63	670
64	560
65	360
66	180
72	300
74	190
75	200
76	210
77	4090
78	430
88	90
89	820
90	2150
91	590
92	70
104	630
115	670
116	710
117	2080
118	1310
119	110
142	180
143	1340
144	9999
145	1100
146	60
