Mass Spectrum: Cyclohexanol, 2-methyl-5-(1-methylethyl)-, (1.alpha.,2.alpha.,5.beta.)-
Formula: C10 H20 O
CAS: 1126-40-5
Molecular weight: 156
Origin: A.F.THOMAS RES. LAB., FIRMENICH & CIE, GENEVA, SWITZERLAND
m/z	RELATIVE INTENSITY
27	1500
29	1700
31	300
39	1100
40	200
41	3200
42	600
43	4300
45	800
53	600
54	200
55	4400
56	900
57	5500
58	700
59	100
67	1400
68	900
69	2600
70	1100
71	1300
72	100
77	100
79	200
80	200
81	2100
82	1400
83	2000
84	500
85	100
93	200
94	600
95	9999
96	1500
97	200
99	400
100	200
109	600
110	400
111	100
112	300
113	5300
114	400
123	1100
124	100
138	2700
139	200
156	280
