Mass Spectrum: Benzene, (2-methylpropoxy)-
Formula: C10 H14 O
CAS: 1126-75-6
Molecular weight: 150
Origin: CARL DJERASSI DEPT OF CHEM STANFORD UNIV STANFORD CALIF 94305
m/z	RELATIVE INTENSITY
40	466
41	2866
42	166
43	200
50	400
51	1233
52	133
53	133
55	400
56	166
57	1233
58	66
62	100
63	266
64	66
65	933
66	900
67	100
74	66
75	66
76	100
77	1466
78	166
79	166
91	100
93	100
94	9999
95	866
96	66
105	66
107	233
108	66
135	66
150	1200
151	133
