Mass Spectrum: Benzene, butoxy-
Formula: C10 H14 O
CAS: 1126-79-0
Molecular weight: 150
Origin: Japan AIST/NIMC Database- Spectrum MS-NW-5388
m/z	RELATIVE INTENSITY
27	409
28	90
29	1119
38	90
39	709
40	139
41	829
50	119
51	439
55	149
56	109
57	389
63	109
64	40
65	529
66	549
77	739
78	70
79	90
91	20
93	60
94	9999
95	699
107	159
150	1839
151	209
