Mass Spectrum: 2-Fluoro-3-(trifluoromethyl)benzaldehyde
Formula: C8 H4 F4 O
CAS: 112641-20-0
Molecular weight: 192
Origin: NIST Mass Spectrometry Data Center, 1994
m/z	RELATIVE INTENSITY
12	27
13	21
17	1
18	6
19	40
20	74
26	32
29	2212
31	157
36	34
37	467
38	421
39	241
47	44
48	30
49	273
50	1497
51	669
52	49
53	59
55	62
56	279
57	489
60	43
61	523
62	669
63	824
64	61
68	1198
69	2353
70	70
71	57
72	89
73	263
74	1197
75	2883
76	184
77	50
79	112
80	186
81	261
82	25
84	45
85	140
86	208
87	155
88	251
91	25
92	365
93	926
94	1157
95	663
96	59
99	656
100	62
101	33
103	45
104	93
105	118
106	43
107	59
111	57
112	261
113	1198
114	1205
115	72
117	92
118	128
119	106
122	39
123	203
125	749
126	97
132	31
137	108
141	33
143	1476
144	923
145	1321
146	91
161	49
163	5555
164	587
165	30
173	1752
174	162
191	9999
192	5896
193	451
194	32
