Mass Spectrum: Naphthalene, 1-ethyl-
Formula: C12 H12
CAS: 1127-76-0
Molecular weight: 156
Origin: M.C. HAMMING CONTINENTAL OIL CO., PONCA CITY, OKLA., USA
m/z	RELATIVE INTENSITY
12	7
13	16
14	102
15	362
16	9
25	5
26	148
27	508
28	263
29	58
30	5
36	4
37	32
38	115
39	505
40	50
41	61
42	30
43	46
44	25
47	12
48	4
49	19
50	363
51	615
52	109
53	46
54	6
55	24
56	24
57	41
58	48
61	67
62	255
63	752
64	292
65	148
66	12
67	8
68	14
69	76
70	99
71	101
72	4
73	44
74	311
75	426
76	735
77	497
78	117
83	4
85	35
86	107
87	179
88	71
89	228
90	24
91	104
92	10
96	24
97	21
98	131
99	89
100	51
101	148
102	220
103	44
104	6
105	6
109	14
110	30
111	37
112	14
113	124
114	90
115	1964
116	205
117	14
119	6
121	6
122	22
123	9
124	6
125	39
126	282
127	564
128	1031
129	338
130	52
133	30
134	18
135	17
136	4
137	29
138	56
139	624
140	214
141	9999
142	1205
143	73
147	16
149	21
150	95
151	225
152	607
153	537
154	204
155	467
156	4923
157	650
158	38
