Mass Spectrum: 3,4-Difluorocinnamic acid
Formula: C9 H6 F2 O2
CAS: 112897-97-9
Molecular weight: 184
Origin: NIST Mass Spectrometry Data Center
m/z	RELATIVE INTENSITY
14	210
16	80
17	80
18	70
20	40
25	40
26	110
28	1201
32	360
33	70
37	250
38	420
39	370
40	40
41	30
42	30
44	160
45	1031
46	60
49	180
50	691
51	711
52	50
53	150
54	160
55	110
56	230
57	611
59	150
61	470
62	871
63	2332
64	320
68	440
69	1131
71	120
73	80
74	540
75	761
76	80
77	120
78	190
79	60
80	200
81	661
82	120
83	180
85	170
86	320
87	831
88	761
89	210
92	420
93	711
94	340
95	140
97	50
98	360
99	2022
100	230
101	360
104	50
105	190
107	280
108	110
109	160
111	100
112	561
113	731
114	611
115	330
116	60
117	90
119	5215
120	550
121	70
123	80
125	160
127	2622
128	270
130	110
136	350
138	3653
139	5145
140	500
141	290
142	120
143	410
144	30
154	40
155	230
156	921
157	80
164	50
165	310
167	4744
168	460
183	4704
184	9999
185	981
186	90
