Mass Spectrum: 2-Methylphenyl-N-methylcarbamate
Formula: C9 H11 N O2
CAS: 1128-78-5
Molecular weight: 165
Origin: J.Sanz-Asensio ET AL.J.Chrom.,840,235(1999)
m/z	RELATIVE INTENSITY
50	1952
51	2332
55	2793
57	2632
58	2112
71	1321
76	1922
77	4224
78	1511
79	1641
90	1421
104	2382
107	3703
108	9999
