Mass Spectrum: 2(3H)-Benzothiazolone, 3-methyl-, hydrazone
Formula: C8 H9 N3 S
CAS: 1128-67-2
Molecular weight: 179
Origin: NIST Mass Spectrometry Data Center, 1994
m/z	RELATIVE INTENSITY
15	309
16	26
17	44
18	31
26	39
27	98
28	353
29	270
30	180
32	43
37	79
38	150
39	348
40	50
41	62
42	191
43	72
44	46
45	458
46	39
47	50
48	9
49	9
50	305
51	359
52	123
53	53
54	31
55	20
56	16
57	70
58	138
59	37
60	18
61	84
62	137
63	407
64	190
65	900
66	100
69	703
70	173
71	72
72	58
73	66
74	203
75	163
76	197
77	507
78	256
79	63
80	22
81	113
82	274
83	87
84	49
85	11
87	14
88	34
90	283
91	156
92	55
93	110
94	92
95	190
96	146
97	34
98	14
102	56
103	71
104	133
105	140
106	47
107	115
108	888
109	3194
110	270
111	148
112	10
115	12
116	105
117	201
118	43
119	21
120	58
121	328
122	313
123	83
124	40
129	16
131	17
132	9
133	47
134	193
135	933
136	3146
137	329
138	136
139	17
146	16
148	395
149	720
150	237
151	50
152	13
161	292
163	5028
164	1000
165	294
166	47
179	9999
180	1044
181	465
182	43
