Mass Spectrum: Benzoic acid, 3-chloro-, ethyl ester
Formula: C9 H9 Cl O2
CAS: 1128-76-3
Molecular weight: 184
m/z	RELATIVE INTENSITY
45	671
50	1702
51	721
73	200
74	821
75	2823
76	891
77	290
111	3773
112	420
113	1231
139	9999
141	3193
149	200
150	20
155	30
156	3283
157	290
158	1071
159	90
183	90
184	1952
185	230
186	631
187	60
188	10
