Mass Spectrum: Propanoic acid, 2-methyl-, cyclohexyl ester
Formula: C10 H18 O2
CAS: 1129-47-1
Molecular weight: 170
Origin: W.Jennings, T.Shibamoto
m/z	RELATIVE INTENSITY
28	1051
29	70
32	190
36	70
39	490
40	70
41	1952
42	190
43	7727
44	490
53	190
54	4474
55	7397
56	490
57	921
58	70
65	70
66	70
67	9999
68	711
69	70
70	190
71	8818
72	490
73	190
79	190
81	2112
82	9418
83	8618
84	811
86	390
87	280
88	490
89	9158
90	490
99	611
127	941
129	70
