Mass Spectrum: Benzoic acid, 4-cyano-, methyl ester
Formula: C9 H7 N O2
CAS: 1129-35-7
Molecular weight: 161
Origin: Chuck Anderson, Aldrich Chemical Co.
m/z	RELATIVE INTENSITY
14	18
15	325
26	35
27	164
28	64
29	191
30	62
31	37
36	16
37	96
38	129
39	113
44	13
45	6
48	2
49	78
50	678
51	727
52	159
53	38
59	78
61	39
62	70
63	76
64	54
65	22
66	4
72	7
73	60
74	255
75	1116
76	668
77	59
85	4
86	16
87	17
88	15
89	36
90	41
98	4
99	128
100	81
101	84
102	5052
103	395
104	32
115	2
116	78
117	123
118	20
129	2
130	9999
131	774
132	52
135	7
143	35
144	16
160	771
161	1967
162	176
163	16
