Mass Spectrum: Benzene, 1-(1-methylethenyl)-3-(1-methylethyl)-
Formula: C12 H16
CAS: 1129-29-9
Molecular weight: 160
Origin: NIST Mass Spectrometry Data Center, 1990.
m/z	RELATIVE INTENSITY
15	150
27	501
28	373
29	94
39	1126
40	139
41	1446
43	135
50	336
51	858
52	214
53	239
58	127
62	169
63	634
64	364
65	648
66	74
67	182
71	192
73	198
74	164
75	276
76	312
77	1212
78	435
79	493
87	103
89	364
91	2252
92	179
101	86
102	381
103	784
104	260
105	2351
106	197
115	1939
116	595
117	3093
118	405
119	505
126	88
127	452
128	1276
129	761
130	994
131	355
141	150
143	346
145	9999
146	1215
147	78
160	4607
161	620
