Mass Spectrum: Butanamide, N-phenyl-
Formula: C10 H13 N O
CAS: 1129-50-6
Molecular weight: 163
Origin: Japan AIST/NIMC Database- Spectrum MS-IW-6564
m/z	RELATIVE INTENSITY
15	10
17	10
18	40
27	219
28	40
29	20
37	10
38	40
39	279
40	50
41	359
42	40
43	1159
44	40
50	40
51	179
52	50
53	20
54	20
55	60
59	10
62	10
63	80
64	90
65	419
66	369
67	40
69	10
71	439
72	20
73	60
74	30
75	10
76	20
77	449
78	50
79	10
90	10
91	99
92	299
93	9999
94	779
95	20
104	10
105	10
106	40
118	10
119	60
120	169
121	10
133	10
134	30
135	60
148	40
162	40
163	2699
164	329
165	20
