Mass Spectrum: Carbamic acid, methyl-, 3-methylphenyl ester
Formula: C9 H11 N O2
CAS: 1129-41-5
Molecular weight: 165
Origin: NIST Mass Spectrometry Data Center, 1998.
m/z	RELATIVE INTENSITY
15	90
26	30
27	220
28	280
29	90
30	10
37	40
38	150
39	640
40	80
41	70
42	30
43	40
44	10
49	20
50	300
51	600
52	340
53	480
54	80
55	130
56	210
57	450
58	680
59	10
61	40
62	140
63	380
64	120
65	410
66	90
67	40
68	30
69	10
73	10
74	70
75	40
76	40
77	1820
78	520
79	1680
80	720
81	100
82	10
85	10
86	10
87	10
89	220
90	740
91	610
92	70
93	20
94	10
105	40
107	5029
108	9999
109	820
110	50
118	10
119	10
120	10
121	20
165	160
166	10
