Mass Spectrum: Dothiepin
Formula: C19 H21 N S
CAS: 113-53-1
Molecular weight: 295
Origin: Drug Lab
m/z	RELATIVE INTENSITY
42	891
43	240
44	80
45	50
51	60
56	200
58	9999
59	420
63	180
65	100
69	120
70	70
71	110
74	50
75	110
76	80
77	220
78	50
82	70
84	50
87	70
88	70
89	220
91	140
101	140
102	120
103	90
111	60
113	70
114	50
115	440
116	70
117	50
121	70
126	100
127	130
128	210
134	60
139	230
147	80
150	140
151	210
152	310
153	60
163	250
164	170
165	470
166	70
171	100
175	60
176	310
177	100
178	430
179	100
184	90
187	110
188	100
189	561
190	150
191	130
195	60
197	60
200	230
201	280
202	1712
203	1651
204	1071
205	180
208	240
209	120
210	70
213	50
215	200
216	60
217	60
219	60
220	50
221	1421
222	440
223	160
232	100
233	80
234	490
235	290
236	90
237	70
295	60
