Mass Spectrum: Ergotamine
Formula: C33 H35 N5 O5
CAS: 113-15-5
Molecular weight: 581
Origin: Patti Price, Georgia Bureau of Investigation, Decatur, Georgia
m/z	RELATIVE INTENSITY
31	260
36	60
37	10
38	80
39	440
40	110
41	1191
42	830
43	1581
44	4664
45	210
46	80
48	70
49	60
50	120
51	420
52	170
53	220
54	170
55	520
56	330
57	110
58	650
59	350
60	330
61	130
62	100
63	400
64	210
65	1060
66	180
67	120
68	1030
69	980
70	8137
71	1121
72	180
73	180
74	150
75	190
76	1431
77	1611
78	500
79	320
80	60
81	210
82	120
83	290
84	210
86	60
87	130
88	260
89	570
90	270
91	6405
92	1191
93	230
94	60
95	80
96	440
97	350
98	2071
99	270
100	80
101	110
102	170
103	840
104	720
105	420
106	70
107	80
108	80
109	80
110	270
111	210
112	100
115	150
116	110
117	220
118	190
119	510
120	670
121	150
123	190
124	390
125	9999
126	2222
127	510
128	1521
129	240
130	110
131	2842
132	420
133	90
135	160
137	120
138	90
139	220
140	160
141	230
142	90
143	60
144	40
145	70
146	520
147	90
148	90
149	100
151	360
152	760
153	7306
154	1871
155	370
156	70
159	30
160	140
164	120
165	170
166	240
167	440
168	200
169	80
170	70
171	40
172	120
173	160
175	60
176	270
177	160
178	500
179	480
180	740
181	620
182	210
183	110
185	30
186	50
189	40
190	50
191	150
192	400
193	200
194	140
195	540
196	490
197	130
199	30
200	650
201	500
202	340
204	50
205	400
206	310
207	880
208	290
209	270
210	100
211	40
215	180
216	50
219	90
220	260
221	1111
222	620
223	640
224	380
225	120
227	80
228	50
229	40
232	50
235	110
240	30
242	60
243	650
244	2942
245	880
246	130
247	30
248	40
250	160
266	100
267	1421
268	710
269	220
270	40
271	360
272	130
273	40
278	20
286	100
287	50
295	90
296	150
297	40
314	1301
315	450
316	70
319	170
