Mass Spectrum: Ethchlorvynol
Formula: C7 H9 Cl O
CAS: 113-18-8
Molecular weight: 144
Origin: NIST Mass Spectrometry Data Center
m/z	RELATIVE INTENSITY
15	10
25	30
26	180
27	440
28	70
29	430
30	10
31	40
35	10
36	20
37	80
38	130
39	530
40	70
41	140
42	50
43	470
44	20
45	10
47	20
48	30
49	130
50	490
51	1601
52	270
53	2943
54	190
55	360
56	20
57	200
58	10
59	10
60	70
61	591
62	380
63	661
64	80
65	681
66	90
67	120
68	20
69	20
72	20
73	140
74	80
75	130
76	30
77	220
78	40
79	430
80	50
81	270
82	30
83	150
84	20
85	30
86	80
87	260
88	40
89	1541
90	70
91	941
92	60
93	50
94	120
95	20
96	10
97	40
98	20
99	50
100	10
101	30
102	20
103	10
104	10
107	90
109	1832
110	140
111	20
112	20
113	20
115	9999
116	601
117	3323
118	190
119	20
125	20
127	40
128	10
129	80
130	10
131	20
