Mass Spectrum: N-(2-Ethylhexyl)-5-norbornene-2,3-dicarboximide
Formula: C17 H25 N O2
CAS: 113-48-4
Molecular weight: 275
Origin: Japan AIST/NIMC Database- Spectrum MS-NW-5351
m/z	RELATIVE INTENSITY
14	10
15	40
16	10
17	10
18	20
26	179
27	1079
28	289
29	1609
30	139
31	20
32	30
37	40
38	129
39	1369
40	599
41	2589
42	349
43	1489
44	60
45	10
50	70
51	259
52	139
53	379
54	409
55	1749
56	589
57	2249
58	109
59	10
60	10
61	30
62	60
63	219
64	80
65	1329
66	8169
67	4629
68	389
69	949
70	1789
71	609
72	50
75	10
76	20
77	269
78	159
79	579
80	719
81	149
82	1039
83	1139
84	319
85	109
86	10
89	109
90	109
91	2239
92	819
93	519
94	80
95	50
96	60
97	129
98	3529
99	1119
100	99
101	10
103	30
104	30
105	80
106	60
107	30
108	50
109	30
110	3089
111	6209
112	3029
113	289
114	20
115	10
116	30
117	20
118	80
119	289
120	359
121	279
122	50
123	20
124	129
125	50
126	50
127	20
128	70
129	10
130	10
131	10
132	20
133	20
134	70
135	60
136	129
137	30
138	99
139	30
140	40
141	20
146	30
147	30
148	90
149	149
150	40
151	40
152	399
153	109
154	149
155	40
156	70
157	10
159	10
160	10
162	30
163	259
164	9999
165	1089
166	239
167	40
168	20
176	119
177	1609
178	229
179	30
180	489
181	90
182	20
190	20
191	10
192	70
193	139
194	109
195	10
197	10
200	10
201	10
204	20
205	30
206	229
207	40
208	90
209	1609
210	1839
211	259
212	30
218	139
219	70
220	10
221	10
228	20
229	10
230	20
231	20
232	50
233	20
237	10
239	99
240	20
244	10
246	159
247	70
248	10
256	50
257	489
258	109
259	20
260	20
274	10
275	1079
276	309
277	50
