Mass Spectrum: Methylphenidate
Formula: C14 H19 N O2
CAS: 113-45-1
Molecular weight: 233
Origin: NIST Mass Spectrometry Data Center
m/z	RELATIVE INTENSITY
15	40
26	10
27	70
28	200
29	80
30	140
31	10
38	20
39	180
40	30
41	230
42	190
43	50
44	20
45	10
50	50
51	150
52	50
53	60
54	150
55	550
56	971
57	80
59	100
60	10
61	10
62	30
63	130
64	40
65	250
67	100
68	90
69	20
70	10
71	10
72	10
74	10
75	20
76	30
77	290
78	80
79	80
80	50
81	10
82	210
83	170
84	9999
85	611
86	20
87	10
88	10
89	240
90	280
91	1281
92	110
93	10
94	10
96	10
101	10
102	70
103	120
104	60
105	80
106	20
107	20
114	10
115	340
116	140
117	290
118	330
119	60
120	10
121	100
122	10
127	30
128	100
129	110
130	200
131	60
132	50
133	10
135	20
141	10
142	10
143	30
144	90
145	20
146	20
149	10
150	240
151	20
155	10
156	10
157	10
158	10
170	10
172	90
173	30
174	40
231	10
232	10
