Mass Spectrum: Chlorprothixene
Formula: C18 H18 Cl N S
CAS: 113-59-7
Molecular weight: 315
Origin: Patti Price, Georgia Bureau of Investigation, Decatur, Georgia
m/z	RELATIVE INTENSITY
41	40
42	570
43	150
44	50
45	30
50	10
51	30
56	100
57	100
58	9999
59	400
62	20
63	80
69	90
70	20
71	20
73	10
74	40
75	80
76	30
77	40
81	10
82	50
83	10
84	40
85	10
86	40
87	70
88	90
89	50
91	10
93	50
94	20
95	20
98	40
99	50
100	20
101	40
102	20
103	20
104	30
105	10
106	10
108	10
111	110
113	50
114	30
115	50
116	50
117	70
118	10
119	10
120	10
121	10
122	10
123	30
124	10
125	40
126	60
127	40
128	20
129	10
131	10
132	20
133	10
134	20
135	10
137	60
138	60
139	120
140	10
144	10
145	40
146	10
147	10
149	70
150	230
151	230
152	140
153	10
157	20
158	30
160	10
161	50
162	80
163	340
164	130
165	110
166	10
168	10
169	70
170	40
171	30
173	20
174	100
175	140
176	490
177	110
178	50
179	10
181	10
182	30
183	20
184	20
185	20
186	60
187	290
188	180
189	620
190	150
191	20
193	40
194	70
195	190
196	60
197	30
198	30
199	170
200	150
201	130
202	350
203	90
204	10
205	10
206	50
207	50
208	150
209	70
210	30
212	40
214	20
218	30
219	420
220	340
221	3262
222	1391
223	380
224	80
225	30
229	10
230	10
231	200
232	180
233	200
234	550
235	330
236	150
237	40
238	40
242	20
244	80
245	10
246	70
247	20
248	10
255	730
256	190
257	370
258	100
259	50
260	10
268	50
269	90
270	120
271	100
272	50
273	20
284	10
312	10
313	80
314	40
315	80
316	20
317	20
