Mass Spectrum: 4-Amino-3-bromo-5-nitrobenzotrifluoride
Formula: C7 H4 Br F3 N2 O2
CAS: 113170-71-1
Molecular weight: 284
Origin: NIST Mass Spectrometry Data Center
m/z	RELATIVE INTENSITY
12	80
16	120
17	260
18	440
19	120
20	80
26	150
30	3353
31	550
36	120
37	771
38	631
39	190
40	180
41	190
44	410
45	150
46	711
49	190
50	540
51	641
52	2602
53	480
54	140
56	220
57	440
61	1341
62	1852
63	1792
64	621
65	1501
66	160
69	1742
70	340
74	450
75	1151
76	681
77	150
78	370
79	360
80	410
81	1191
82	550
83	120
85	60
86	210
87	601
88	1401
89	1351
90	781
91	150
92	120
93	210
94	320
95	160
97	80
99	210
100	170
101	210
102	100
103	80
105	140
106	380
107	290
108	651
109	691
110	110
111	200
112	641
113	561
114	190
116	100
117	100
118	200
119	240
120	370
123	120
126	290
127	330
128	100
129	80
131	1231
132	1802
133	340
134	100
135	160
137	270
138	1461
139	1682
140	1321
141	240
142	140
143	260
144	150
145	110
146	270
147	941
148	110
151	110
153	90
155	190
157	1241
158	9038
159	5575
160	540
161	120
171	210
173	90
174	120
175	160
176	170
178	120
186	100
187	290
188	340
189	180
206	160
210	110
211	140
213	160
218	250
219	320
220	280
221	320
225	90
226	1151
228	1201
229	120
236	340
238	3123
240	2823
241	160
249	100
254	1041
255	110
256	921
265	871
266	691
267	1301
268	911
269	350
270	230
284	9999
285	1161
286	9889
287	741
288	70
