Mass Spectrum: 1H-Pyrazole, 3,5-dimethyl-1-phenyl-
Formula: C11 H12 N2
CAS: 1131-16-4
Molecular weight: 172
Origin: John Halket,Royal Holloway, University of London, UK
m/z	RELATIVE INTENSITY
14	20
15	200
26	130
27	550
28	240
29	20
30	40
37	160
38	530
39	2342
40	571
41	631
42	741
43	80
44	10
50	961
51	3543
52	641
53	260
54	400
55	90
56	20
57	10
59	20
60	10
61	70
62	240
63	921
64	931
65	1141
66	420
67	180
68	130
69	100
70	50
72	20
73	180
74	280
75	270
76	571
77	6166
78	961
79	120
80	190
81	70
82	10
85	210
86	400
88	70
89	851
90	621
91	761
92	150
93	70
94	80
95	921
96	70
99	10
100	10
101	70
102	240
103	1041
104	651
105	110
106	40
107	20
113	10
114	40
115	220
116	611
117	420
118	1311
119	130
120	10
126	10
127	150
128	460
129	450
130	5335
131	861
132	130
133	20
139	10
140	50
141	60
142	240
143	220
144	1281
145	210
146	130
147	10
152	10
154	1692
155	1331
156	981
157	1471
158	170
159	10
168	20
169	200
171	8518
172	9999
173	1722
174	100
