Mass Spectrum: 1H-Pyrazol-5-amine, 3-methyl-1-phenyl-
Formula: C10 H11 N3
CAS: 1131-18-6
Molecular weight: 173
Origin: Japan AIST/NIMC Database- Spectrum MS-IW-6471
m/z	RELATIVE INTENSITY
15	10
27	30
28	99
29	10
37	10
38	40
39	199
40	70
41	199
42	139
43	279
44	20
50	60
51	319
52	99
53	30
54	80
55	60
56	10
57	20
62	10
63	80
64	149
65	189
66	179
67	90
68	50
69	20
70	60
73	10
74	20
75	20
76	40
77	929
78	199
79	40
80	20
81	40
82	10
83	10
85	10
86	159
87	20
89	70
90	60
91	349
92	699
93	149
94	10
95	10
96	80
97	10
102	20
103	60
104	579
105	149
106	60
107	30
108	30
115	40
116	70
117	50
118	259
119	199
120	20
128	50
129	149
130	679
131	699
132	289
133	80
142	20
143	40
144	70
145	539
146	70
147	60
155	929
156	479
157	299
158	109
159	10
170	30
171	30
172	2949
173	9999
174	1259
175	70
