Mass Spectrum: 9H-Fluorene, 2-bromo-
Formula: C13 H9 Br
CAS: 1133-80-8
Molecular weight: 244
Origin: NIST Mass Spectrometry Data Center, 1994
m/z	RELATIVE INTENSITY
26	24
27	35
37	51
38	147
39	330
40	21
44	10
49	26
50	396
51	271
52	39
55	58
56	46
61	124
62	376
63	599
64	70
65	56
67	43
70	564
74	404
75	268
76	94
77	49
79	43
80	24
82	1114
83	1854
85	91
86	361
87	405
88	150
89	194
90	19
91	15
97	30
98	202
99	114
100	39
101	18
102	25
109	53
110	160
111	199
112	65
113	198
114	72
115	317
116	39
119	13
122	147
123	139
124	15
125	19
126	69
127	15
133	13
134	33
135	28
137	217
138	154
139	464
140	49
161	150
162	401
163	2182
164	1696
165	9999
166	1457
167	98
244	2078
245	305
246	2055
247	292
248	22
