Mass Spectrum: trans-Carveyl acetate
Formula: C12 H18 O2
CAS: 1134-95-8
Molecular weight: 194
Origin: NIST Mass Spectrometry Data Center, 1998.
m/z	RELATIVE INTENSITY
14	10
15	160
26	30
27	590
29	500
30	10
31	30
37	20
38	80
39	1990
40	380
41	2580
42	370
43	7429
44	220
45	110
50	170
51	660
52	330
53	1660
54	410
55	2230
56	500
57	140
58	60
59	70
60	30
61	140
62	60
63	250
64	80
65	1020
66	390
67	1380
68	650
69	800
70	50
71	130
72	110
73	10
74	30
75	50
76	50
77	2430
78	720
79	2540
80	1420
81	1210
82	630
83	1030
84	9999
85	560
86	60
87	20
88	10
89	120
90	10
91	5909
92	3270
93	3030
94	770
95	770
96	580
97	450
98	40
99	10
101	10
102	60
103	420
104	220
105	3020
106	1370
107	1370
108	1610
109	7999
110	800
111	150
112	20
113	20
114	20
115	360
116	110
117	970
118	210
119	9519
120	1020
121	170
122	160
123	610
124	270
125	60
126	430
127	40
128	30
129	20
131	80
132	60
133	540
134	5199
135	690
136	70
137	730
138	80
139	10
150	250
151	1170
152	5619
153	630
154	40
161	10
194	10
