Mass Spectrum: Baclofen
Formula: C10 H12 Cl N O2
CAS: 1134-47-0
Molecular weight: 213
Origin: NIST Mass Spectrometry Data Center, 1998.
m/z	RELATIVE INTENSITY
27	60
28	290
29	80
30	960
38	40
39	230
42	40
44	40
50	450
51	790
52	130
54	30
55	40
56	20
58	150
61	30
62	30
63	400
64	20
65	30
73	40
74	180
75	780
76	250
77	1130
78	10
87	10
89	390
90	50
91	150
99	50
101	740
102	830
103	2430
104	100
111	40
112	250
115	570
116	60
117	190
125	220
130	60
136	30
137	310
138	9999
139	990
140	3140
141	230
165	120
167	130
195	2850
196	160
197	870
198	20
