Mass Spectrum: 2H-2,4a-Methanonaphthalene, 1,3,4,5,6,7-hexahydro-1,1,5,5-tetramethyl-, (2S)-
Formula: C15 H24
CAS: 1135-66-6
Molecular weight: 204
Origin: D.HENNEBERG, MAX-PLANCK INSTITUTE, MULHEIM, WEST GERMANY
m/z	RELATIVE INTENSITY
22	6
23	14
24	12
25	28
26	69
27	2217
28	1566
29	2496
30	48
31	23
33	23
34	25
35	47
36	65
37	118
38	65
39	2811
40	468
41	9263
42	385
43	2311
44	310
45	42
46	33
47	31
48	19
49	39
50	149
51	861
52	365
53	2227
54	246
55	4042
56	335
57	594
58	130
59	73
60	22
61	32
62	61
63	338
64	328
65	1605
66	429
67	2393
68	277
69	2977
70	309
71	362
72	171
73	94
74	69
75	201
76	170
77	3265
78	971
79	3189
80	976
81	2383
82	330
83	602
84	86
85	79
86	51
87	82
88	100
89	272
90	172
91	6126
92	1582
93	4364
94	1058
95	1391
96	232
97	161
98	76
99	41
100	70
101	148
102	227
103	722
104	486
105	6901
106	2879
107	3446
108	2306
109	1028
110	158
111	75
112	64
113	100
114	99
115	965
116	479
117	1153
118	416
119	5453
120	2032
121	1980
122	509
123	320
124	75
125	63
126	62
127	252
128	573
129	550
130	381
131	876
132	357
133	5796
134	1173
135	704
136	984
137	150
138	32
139	28
140	40
141	169
142	111
143	217
144	118
145	1078
146	376
147	1775
148	5176
149	810
150	113
152	30
153	33
154	31
155	27
156	24
157	63
158	33
159	314
160	464
161	9999
162	1356
163	156
164	8
165	12
169	7
170	6
172	15
173	70
174	114
175	5479
176	777
177	62
178	8
179	6
180	6
183	5
185	15
187	275
188	81
189	2501
190	392
191	38
200	6
202	99
203	67
204	2721
205	434
206	23
