Mass Spectrum: n-Hexyl methylphosphonofluoridate
Formula: C7 H16 F O2 P
CAS: 113548-89-3
Molecular weight: 182
Origin: VERIFIN - Methodology B1-1979
m/z	RELATIVE INTENSITY
27	500
28	200
29	500
39	500
40	80
41	1201
42	700
43	700
47	100
53	90
54	90
55	1201
56	1501
57	100
67	100
69	500
79	100
81	800
82	300
84	300
98	100
99	9999
100	100
111	90
112	100
125	80
139	70
153	40
