Mass Spectrum: 3,7-Dimethyldibenzothiophene
Formula: C14 H12 S
CAS: 1136-85-2
Molecular weight: 212
Origin: Organic Synthesis Lab, MSU, Moscow.TRC 342
m/z	RELATIVE INTENSITY
79	190
92	611
104	430
105	1321
106	450
115	170
139	240
151	270
152	621
163	190
164	180
165	631
171	210
176	210
178	571
179	270
184	350
195	450
196	190
197	2102
198	310
208	711
209	440
211	5565
212	9999
213	1732
214	561
