Mass Spectrum: 2,3,6-Trifluorophenol
Formula: C6 H3 F3 O
CAS: 113798-74-6
Molecular weight: 148
Origin: NIST Mass Spectrometry Data Center, 1994
m/z	RELATIVE INTENSITY
12	54
17	61
18	43
19	5
20	39
25	101
28	169
31	1640
32	127
33	48
36	143
37	601
38	439
39	140
40	100
44	128
48	66
49	324
50	3620
51	977
53	259
54	38
55	246
56	874
57	735
60	147
61	517
62	274
63	119
64	371
67	56
68	517
69	1472
70	358
71	411
72	46
73	44
74	572
75	1207
76	83
77	91
79	295
80	474
81	1597
82	107
86	77
87	135
88	147
91	160
92	68
93	465
94	83
97	57
99	4824
100	9470
101	959
102	52
117	69
119	1468
120	124
128	1306
129	171
130	31
131	35
148	9999
149	733
150	38
