Mass Spectrum: 1,2,4-Methenoazulene, decahydro-1,5,5,8a-tetramethyl-, [1S-(1.alpha.,2.alpha.,3a.beta.,4.alpha.,8a.beta.,9R*)]-
Formula: C15 H24
CAS: 1137-12-8
Molecular weight: 204
Origin: D.HENNEBERG, MAX-PLANCK INSTITUTE, MULHEIM, WEST GERMANY
m/z	RELATIVE INTENSITY
27	1828
28	465
29	1810
30	36
31	12
37	12
38	37
39	1979
40	357
41	5777
42	365
43	1451
44	51
49	11
50	102
51	567
52	256
53	1493
54	197
55	3149
56	687
57	528
58	63
59	45
60	7
62	24
63	195
64	129
65	1075
66	551
67	1566
68	201
69	2514
70	389
71	144
72	82
73	76
74	30
75	75
76	63
77	2378
78	667
79	2933
80	728
81	1294
82	761
83	457
84	69
85	73
86	11
87	71
88	24
89	111
90	51
91	4743
92	1123
93	3670
94	9999
95	5225
96	1170
97	240
98	62
99	37
101	28
102	88
103	429
104	251
105	5724
106	1772
107	4095
108	2022
109	1508
110	393
111	99
112	26
113	18
114	23
115	665
116	263
117	758
118	235
119	5249
120	2449
121	2564
122	1407
123	848
124	222
125	30
127	133
128	327
129	389
130	205
131	500
132	180
133	3725
134	1113
135	1263
136	558
137	137
138	32
139	17
140	13
141	203
142	235
143	114
144	68
145	509
146	152
147	1499
148	990
149	240
150	65
151	11
152	15
153	18
155	49
156	99
157	158
158	33
159	100
160	114
161	3355
162	622
163	509
164	79
169	24
173	28
174	23
175	349
176	182
177	35
183	9
184	11
187	15
189	2903
190	442
191	31
201	53
202	11
204	3322
205	526
206	49
