Mass Spectrum: Phenol, 3,5-bis(1,1-dimethylethyl)-
Formula: C14 H22 O
CAS: 1138-52-9
Molecular weight: 206
Origin: Japan AIST/NIMC Database- Spectrum MS-NW-6253
m/z	RELATIVE INTENSITY
15	50
27	169
28	70
29	729
30	10
38	20
39	359
40	40
41	1329
42	50
43	70
50	30
51	169
52	50
53	129
54	10
55	279
56	30
57	6749
58	309
59	20
60	60
62	20
63	90
64	99
65	179
66	159
67	80
68	10
69	30
70	10
71	10
72	90
73	389
74	489
75	30
76	20
77	299
78	70
79	169
80	50
81	30
83	10
86	10
87	119
88	349
89	40
90	10
91	359
92	40
93	40
94	30
95	119
96	10
101	10
102	20
103	90
104	30
105	169
106	20
107	389
108	50
109	20
115	179
116	60
117	109
118	20
119	109
120	40
121	159
122	20
127	40
128	60
129	50
130	20
131	90
132	50
133	149
134	50
135	449
136	50
141	20
142	10
143	10
144	20
145	50
146	30
147	229
148	50
149	99
150	20
157	10
158	10
159	20
160	10
161	90
162	20
163	379
164	70
175	119
176	50
177	70
178	10
189	20
190	20
191	9999
192	1459
193	119
205	10
206	3049
207	499
208	30
