Mass Spectrum: Isolongifolol
Formula: C15 H26 O
CAS: 1139-17-9
Molecular weight: 222
Origin: NIST Mass Spectrometry Data Center
m/z	RELATIVE INTENSITY
15	20
19	10
27	530
28	120
29	991
31	1001
39	1231
40	260
41	4564
42	390
43	2012
44	120
45	60
50	50
51	350
52	200
53	1641
54	290
55	4544
56	871
57	1141
58	80
59	110
60	10
61	10
62	20
63	110
64	60
65	1121
66	701
67	4694
68	671
69	4054
70	1181
71	641
72	50
73	20
74	10
75	20
77	2752
78	671
79	4794
80	1191
81	6005
82	3103
83	1952
84	480
85	440
86	40
87	10
89	60
91	4424
92	1852
93	5425
94	2682
95	8327
96	1331
97	1081
98	400
99	110
100	10
101	10
102	50
103	330
104	170
105	2843
106	971
107	4484
108	2502
109	9999
110	5555
111	1732
112	611
113	120
114	20
115	360
116	130
117	440
118	120
119	1802
120	1021
121	3053
122	1481
123	1471
124	571
125	480
126	170
127	380
128	160
129	120
130	50
131	220
132	90
133	1702
134	681
135	2903
136	1071
137	2472
138	1111
139	440
140	170
141	70
142	20
143	20
144	10
145	110
146	50
147	781
148	941
149	1962
150	571
151	2762
152	951
153	440
154	2412
155	310
156	20
157	10
159	40
160	40
161	961
162	290
163	1001
164	330
165	160
166	621
167	130
168	30
173	10
175	390
176	270
177	991
178	540
179	691
180	120
181	80
182	10
187	10
189	1341
190	190
191	611
192	90
193	340
194	641
195	80
196	10
203	10
204	380
205	80
207	741
208	120
209	10
220	10
222	270
223	40
