Mass Spectrum: Metyridine
Formula: C8 H11 N O
CAS: 114-91-0
Molecular weight: 137
Origin: NIST Mass Spectrometry Data Center, 1998.
m/z	RELATIVE INTENSITY
14	10
15	100
26	70
27	190
28	120
29	340
30	30
31	40
37	50
38	150
39	790
40	110
41	120
42	80
43	60
44	20
45	3580
46	90
47	10
49	40
50	480
51	1120
52	780
53	320
54	100
55	10
58	20
59	10
61	30
62	90
63	270
64	190
65	1020
66	340
67	160
68	20
73	10
74	40
75	50
76	80
77	320
78	1060
79	950
80	170
81	10
90	10
91	50
92	640
93	2980
94	2410
95	160
96	10
102	10
103	10
104	270
105	130
106	2210
107	890
108	130
109	20
120	280
121	220
122	9999
123	830
124	50
136	110
137	10
138	10
