Mass Spectrum: Propoxur
Formula: C11 H15 N O3
CAS: 114-26-1
Molecular weight: 209
Origin: NIST Mass Spectrometry Data Center, 1990.
m/z	RELATIVE INTENSITY
12	4
13	7
14	29
15	126
17	2
26	250
27	1343
28	78
29	121
30	5
31	44
32	8
37	70
38	236
39	978
40	109
41	853
42	141
43	973
44	30
45	46
46	3
49	34
50	258
51	444
52	509
53	829
54	289
55	187
56	14
57	5
58	1
59	35
60	5
61	23
62	96
63	478
64	799
65	279
66	60
67	14
68	15
69	21
71	2
74	21
75	14
76	5
77	38
78	8
79	71
80	2
81	1149
82	504
83	27
84	2
89	3
91	57
92	499
93	101
94	23
95	16
103	4
105	20
106	7
107	19
110	9999
111	763
112	66
113	6
119	7
121	40
122	4
123	28
133	6
135	11
137	68
138	4
152	1745
153	158
154	11
