Mass Spectrum: 2-Acetyl-1-phenylhydrazine
Formula: C8 H10 N2 O
CAS: 114-83-0
Molecular weight: 150
Origin: NIST Mass Spectrometry Data Center, 1998.
m/z	RELATIVE INTENSITY
14	20
15	160
26	30
27	110
29	260
30	40
31	10
37	80
38	230
39	830
40	120
41	120
42	180
43	2280
44	90
45	10
49	20
50	620
51	1900
52	580
53	310
54	50
55	10
56	10
59	10
61	60
62	140
63	470
64	430
65	1430
66	170
67	20
73	20
74	170
75	110
76	160
77	4140
78	1090
79	700
80	670
81	140
88	10
90	80
91	1130
92	2310
93	530
94	30
105	100
106	70
107	3670
108	9999
109	740
110	10
132	10
133	10
150	3940
151	390
152	10
