Mass Spectrum: p-N,N-Bis(2-chloroethyl)aminobenzoic acid
Formula: C11 H13 Cl2 N O2
CAS: 1141-37-3
Molecular weight: 261
Origin: NIST Mass Spectrometry Data Center, 1992
m/z	RELATIVE INTENSITY
14	29
15	21
17	40
18	83
27	1066
28	637
29	69
32	62
35	39
36	99
37	39
38	83
39	280
41	72
42	98
44	34
45	214
49	102
50	260
51	308
52	145
53	130
54	72
56	47
58	33
61	59
62	103
63	1361
64	172
65	1114
66	92
73	47
74	107
75	192
76	247
77	593
78	233
79	225
80	36
89	117
90	192
91	301
92	74
93	122
94	29
96	42
97	73
99	43
102	96
103	159
104	354
105	289
106	356
107	117
115	167
116	118
117	549
118	368
119	121
120	40
121	423
122	55
130	227
131	121
132	961
133	96
135	104
138	37
144	23
145	43
146	66
147	23
148	814
149	489
150	768
151	74
152	35
158	168
162	84
163	134
164	67
167	248
168	152
169	95
174	54
176	152
177	52
180	76
181	34
182	42
184	52
190	48
193	44
194	29
198	50
207	21
208	31
209	2
210	80
211	2
212	9999
213	1297
214	3404
215	335
216	75
221	43
223	36
224	54
225	58
226	103
227	42
228	60
240	49
244	177
246	109
261	1195
262	216
263	774
264	127
265	187
267	6
