Mass Spectrum: Bis(o-aminophenyl) disulfide
Formula: C12 H12 N2 S2
CAS: 1141-88-4
Molecular weight: 248
Origin: Japan AIST/NIMC Database- Spectrum MS-NW-4399
m/z	RELATIVE INTENSITY
15	10
26	10
27	99
28	50
29	10
30	10
32	10
37	30
38	99
39	369
40	40
41	80
42	30
44	20
45	399
46	10
47	30
50	40
51	129
52	189
53	609
54	90
57	20
58	40
59	10
60	30
61	10
62	40
63	179
64	109
65	229
66	80
67	90
69	169
70	139
71	80
72	20
74	10
76	10
77	10
78	60
79	30
80	3779
81	369
82	30
83	10
84	40
85	10
90	90
91	179
92	109
93	329
94	20
95	90
96	209
97	789
98	129
99	50
108	40
109	10
110	10
122	50
123	60
124	9999
125	1979
126	569
127	90
135	10
154	20
155	40
156	40
181	20
182	40
183	10
184	20
198	10
214	40
215	10
231	10
248	1259
249	189
250	129
251	10
