Mass Spectrum: 4-(Hexyloxy)benzoic acid
Formula: C13 H18 O3
CAS: 1142-39-8
Molecular weight: 222
Origin: NIST Mass Spectrometry Data Center, 1994
m/z	RELATIVE INTENSITY
27	580
28	122
29	840
38	108
39	766
40	127
41	1559
42	345
43	2504
44	107
45	66
50	196
51	193
52	74
53	383
54	89
55	1013
56	539
57	384
62	60
63	284
64	187
65	1047
66	153
67	82
68	60
69	509
74	81
75	131
76	192
77	236
78	57
79	166
80	57
81	319
82	61
83	46
84	415
85	232
91	84
92	148
93	416
94	66
95	316
103	60
105	51
107	83
109	129
110	94
119	53
121	3384
122	275
123	80
135	49
138	9999
139	2578
140	203
151	214
205	48
222	2961
223	472
224	66
