Mass Spectrum: Anthralin
Formula: C14 H10 O3
CAS: 1143-38-0
Molecular weight: 226
Origin: Japan AIST/NIMC Database- Spectrum MS-NW-7088
m/z	RELATIVE INTENSITY
26	10
27	50
28	70
29	40
37	20
38	60
39	229
40	10
49	10
50	139
51	259
52	70
53	60
55	40
56	20
57	99
58	40
59	10
61	40
62	169
63	449
64	70
65	70
66	20
67	10
69	99
70	109
71	50
72	60
73	20
74	149
75	349
76	929
77	179
78	80
79	20
83	10
84	269
85	50
86	90
87	139
88	60
89	139
90	189
91	40
92	30
97	10
98	199
99	239
100	70
101	60
102	80
103	20
104	279
105	40
106	10
109	10
110	20
111	30
112	40
113	309
114	70
115	439
116	60
118	10
124	10
125	70
126	99
127	60
128	20
129	20
130	10
131	20
137	20
138	30
139	369
140	109
141	409
142	60
143	10
144	20
145	10
149	30
150	319
151	729
152	1039
153	239
154	30
155	40
156	10
164	20
165	10
168	179
169	399
170	119
171	30
172	10
179	90
180	619
181	559
182	99
183	10
184	20
196	20
197	1519
198	1549
199	239
200	20
208	99
209	129
210	20
211	10
224	10
225	519
226	9999
227	1549
228	179
229	20
