Mass Spectrum: 1H-Pyrazole, 3,5-diphenyl-
Formula: C15 H12 N2
CAS: 1145-01-3
Molecular weight: 220
Origin: V.A. KOPTYUG, VOL.4, ATLAS OF MASS SPECTRA OF ORGANIC COMPOUNDS
m/z	RELATIVE INTENSITY
26	140
27	240
28	550
29	140
39	380
40	80
41	440
42	90
43	470
50	170
51	590
52	130
55	600
56	150
57	550
62	110
63	440
64	130
65	140
67	300
68	100
69	470
70	140
71	300
75	130
76	170
77	1170
78	190
79	170
81	440
82	230
83	360
89	690
90	630
91	420
95	510
96	210
97	300
102	130
103	140
104	870
105	230
109	400
110	540
111	240
115	310
116	270
117	800
118	190
123	270
137	190
138	70
139	190
143	170
144	120
163	280
164	190
165	690
166	120
188	150
189	1080
190	390
191	2490
192	520
193	150
217	130
218	140
219	500
220	9999
221	1730
222	130
