Mass Spectrum: Chloroacetyl-L-tyrosine
Formula: C11 H12 Cl N O4
CAS: 1145-56-8
Molecular weight: 257
Origin: Japan AIST/NIMC Database- Spectrum MS-NW-2480
m/z	RELATIVE INTENSITY
14	20
15	40
17	20
18	70
26	20
27	139
28	159
29	70
30	20
31	60
35	90
36	949
37	30
38	299
39	209
40	20
41	60
42	119
43	319
44	109
45	40
46	10
49	109
50	70
51	179
52	119
53	129
54	10
55	80
56	10
57	20
58	20
59	10
60	20
61	20
62	30
63	80
64	30
65	99
66	30
67	20
68	20
69	20
70	10
71	10
73	10
74	90
75	20
76	20
77	679
78	229
79	129
80	20
81	40
83	10
86	10
87	10
88	10
89	40
90	50
91	159
92	20
93	10
94	80
95	20
96	10
97	10
103	10
104	20
105	60
106	119
107	9999
108	919
109	60
115	20
116	20
117	20
118	90
119	80
120	70
121	20
123	30
131	10
132	50
133	399
134	109
135	139
136	139
137	10
144	10
145	10
146	30
147	129
148	30
159	10
162	10
163	139
164	2559
165	259
166	30
175	20
176	10
177	30
178	10
203	109
204	10
211	10
212	20
219	10
221	99
222	10
257	20
259	10
