Mass Spectrum: Benzoylglycylglycine
Formula: C11 H12 N2 O4
CAS: 1145-32-0
Molecular weight: 236
Origin: Japan AIST/NIMC Database- Spectrum MS-NW-2487
m/z	RELATIVE INTENSITY
12	10
14	30
15	50
16	30
17	40
18	129
26	40
27	209
28	659
29	109
30	969
31	70
37	30
38	60
39	139
40	30
41	60
42	169
43	80
44	459
45	50
49	20
50	389
51	1179
52	119
53	20
54	10
55	20
56	209
57	40
58	40
59	40
60	10
61	10
62	30
63	70
64	30
65	30
66	10
67	20
68	10
69	20
70	10
71	269
72	20
73	20
74	149
75	129
76	369
77	3899
78	349
79	30
81	10
82	10
83	10
84	10
85	60
86	10
87	20
88	10
89	119
90	99
91	80
92	10
94	10
95	10
97	10
102	30
103	349
104	289
105	9999
106	819
107	50
111	10
113	20
114	70
115	10
116	109
117	1259
118	379
119	50
120	20
121	90
122	90
131	10
132	20
133	60
134	2209
135	3059
136	269
137	20
139	40
141	10
143	10
144	40
145	90
146	30
147	10
149	20
157	10
160	50
161	519
162	349
163	50
169	10
172	199
173	109
174	109
175	40
189	20
190	159
191	20
192	60
193	10
200	90
201	20
217	40
218	399
219	50
236	10
