Mass Spectrum: 4-Nitrodiphenylsulfone
Formula: C12 H9 N O4 S
CAS: 1146-39-0
Molecular weight: 263
Origin: NIST Mass Spectrometry Data Center, 1994
m/z	RELATIVE INTENSITY
12	27
16	24
27	239
28	147
30	2340
32	13
37	115
38	379
39	1043
40	70
45	112
46	217
47	29
48	51
49	13
50	4123
51	5601
52	375
53	413
54	49
55	53
57	32
58	106
61	68
62	271
63	1021
64	619
65	3027
66	226
68	35
69	342
70	308
71	75
72	22
73	118
74	991
75	1509
76	2044
77	9999
78	858
79	101
80	76
81	232
82	156
83	42
84	243
85	58
86	98
87	68
89	70
93	4786
94	367
95	205
96	252
97	1947
98	191
99	116
100	36
101	51
102	81
105	24
106	68
107	41
108	261
109	448
110	60
111	55
112	358
113	71
114	57
115	393
116	36
121	31
122	172
125	9095
126	964
127	613
128	172
139	221
140	572
141	1238
142	174
143	43
150	189
151	369
152	899
153	156
156	32
168	176
170	4413
171	424
172	312
173	36
181	24
184	62
215	26
216	140
217	108
233	128
247	54
263	5422
264	797
265	379
266	40
