Mass Spectrum: Naphthalene-D8
Formula: C10 D8
CAS: 1146-65-2
Molecular weight: 136
Origin: NIST Mass Spectrometry Data Center, 1990.
m/z	RELATIVE INTENSITY
18	13
28	96
30	89
32	19
38	72
40	121
42	289
43	10
50	43
52	542
54	953
56	141
58	20
60	13
62	98
64	261
66	578
68	629
70	12
74	40
76	409
77	22
78	441
79	22
80	393
81	20
82	448
83	22
84	356
85	20
86	33
88	71
90	112
91	10
92	10
94	64
98	11
100	85
102	29
104	48
106	246
108	1165
109	104
118	22
124	10
130	31
132	431
133	47
134	987
135	110
136	9999
137	1032
138	46
