Mass Spectrum: 1-(2-Hydroxyethylthio)-2-(vinylthio)ethane
Formula: C6 H12 O S2
CAS: 114811-37-9
Molecular weight: 164
Origin: Dennis Rohrbaugh, CBDCOM/ERDEC, Edgewood, MD
m/z	RELATIVE INTENSITY
44	652
45	9999
46	1670
47	2051
53	613
57	799
58	3022
59	4602
61	6605
63	257
64	314
71	280
73	1185
75	342
77	218
85	1094
87	2550
89	176
91	947
92	233
94	142
104	1346
105	4759
106	347
107	233
118	142
119	290
120	304
164	1337
165	90
166	99
