Mass Spectrum: Endosulfan
Formula: C9 H6 Cl6 O3 S
CAS: 115-29-7
Molecular weight: 404
Origin: CATALOGUE OF MASS SPECTRA OF PESTICIDES, APRIL, 1975; J. FREUDENTHAL & L. G. GRAMBERG, NAT'L INST. OF PUBLIC HEALTH, THE NETHERLANDS
m/z	RELATIVE INTENSITY
27	854
28	405
29	1366
30	194
31	481
32	100
36	395
38	207
39	2275
40	523
41	2314
42	334
43	621
44	177
48	547
49	747
50	659
51	899
53	685
54	184
55	464
57	156
61	619
62	382
63	1737
64	415
65	820
67	311
68	291
69	2858
70	408
71	108
72	230
73	1448
74	827
75	3494
76	199
77	1062
78	2139
79	693
80	101
81	207
82	120
83	1309
84	890
85	1992
86	914
87	724
88	125
89	2749
90	100
91	984
94	119
95	314
96	556
97	1476
98	719
99	1451
100	258
101	461
102	2641
103	2754
104	1275
105	221
106	310
107	1537
108	1128
109	2601
110	507
111	1126
112	254
113	333
114	201
116	123
117	1494
118	345
119	2825
120	2950
121	2709
122	829
123	1208
124	171
125	404
127	113
129	124
130	526
131	718
132	579
133	1961
134	825
135	1861
136	1086
137	1544
138	806
139	1103
140	158
141	1683
142	176
143	2295
144	433
145	1783
146	799
147	806
148	381
149	412
150	334
151	100
152	215
153	129
154	164
155	438
156	263
157	1489
158	460
159	5333
160	5116
161	3486
162	3045
163	729
164	618
165	758
166	121
167	1483
168	485
169	1851
170	6258
171	2061
172	4389
173	1104
174	775
175	191
177	215
178	216
179	530
180	810
181	1264
182	695
183	1159
184	412
185	582
186	254
187	285
188	189
189	162
190	144
191	1850
192	536
193	4502
194	1689
195	9999
196	1895
197	8790
198	998
199	2944
200	364
201	986
202	184
203	1053
204	3947
205	4696
206	4773
207	6825
208	2532
209	4053
210	638
211	1185
212	224
213	350
214	775
215	592
216	1182
217	707
218	748
219	480
220	419
221	530
222	327
223	722
224	151
225	722
226	562
227	2541
228	1591
229	4987
230	1789
231	3764
232	990
233	2242
234	611
235	4716
236	676
237	7301
238	773
239	6835
240	3055
241	8587
242	3982
243	5788
244	2261
245	2499
246	610
247	652
248	453
249	168
250	716
251	627
252	845
253	582
254	712
255	469
256	439
257	441
258	593
259	446
260	620
261	3009
262	611
263	4613
264	501
265	6018
266	582
267	5768
268	596
269	5203
270	2146
271	3424
272	4041
273	1679
274	3017
275	3405
276	1689
277	5552
278	891
279	3986
280	448
281	1777
282	242
283	473
285	139
286	268
287	128
288	258
289	213
290	177
291	160
293	1137
294	119
295	1993
296	215
297	1294
298	230
299	537
300	157
301	128
305	1705
306	215
307	2522
308	308
309	1876
310	179
311	808
312	127
313	342
315	120
321	939
323	1622
324	192
325	1019
327	334
329	133
337	2914
338	361
339	5001
340	534
341	3261
342	376
343	1126
344	137
345	217
356	199
358	336
360	234
371	225
373	134
404	284
406	720
408	473
410	227
