Mass Spectrum: 3-Hydroxy-3-methyl-2-butanone
Formula: C5 H10 O2
CAS: 115-22-0
Molecular weight: 102
m/z	RELATIVE INTENSITY
12	10
13	50
14	300
15	1732
16	40
17	30
18	120
19	40
25	20
26	130
27	430
28	310
29	751
30	30
31	4864
32	80
33	10
36	10
37	60
38	100
39	601
40	90
41	2282
42	530
43	3914
44	160
45	260
46	10
49	10
50	30
51	20
52	10
53	30
54	10
55	50
56	10
57	320
58	120
59	9999
60	350
61	40
62	10
63	10
65	10
66	10
67	10
68	10
69	150
70	20
71	10
72	10
73	20
74	10
84	10
85	50
86	20
87	380
88	20
102	50
103	10
