Mass Spectrum: Paramethadione
Formula: C7 H11 N O3
CAS: 115-67-3
Molecular weight: 157
Origin: Patti Price, Georgia Bureau of Investigation, Decatur, Georgia
m/z	RELATIVE INTENSITY
41	1010
42	570
43	9999
44	560
45	60
47	10
49	110
50	70
51	130
52	40
53	150
54	60
55	330
56	680
57	1481
58	640
59	70
69	80
70	160
71	10
72	440
73	60
82	10
83	20
84	60
85	10
86	30
98	10
99	10
100	170
101	10
115	10
127	30
128	400
129	4614
130	250
131	40
143	240
144	10
157	20
