Mass Spectrum: Triphenyl phosphate
Formula: C18 H15 O4 P
CAS: 115-86-6
Molecular weight: 326
Origin: ACCUSTANDARD Chemicals / NIST MS Data Center.
m/z	RELATIVE INTENSITY
12	15
13	21
15	15
19	13
25	22
26	110
27	465
31	27
37	163
38	902
39	4869
40	250
41	48
42	24
43	7
47	841
50	1498
51	4643
52	292
53	249
54	26
55	112
56	15
57	25
61	52
62	301
63	1080
64	1092
65	6195
66	735
67	45
68	36
69	15
72	11
73	61
74	291
75	352
76	11
77	8470
78	606
79	58
80	56
81	250
82	34
83	47
84	56
85	9
86	20
87	13
88	16
89	44
90	17
91	46
92	318
93	952
94	2061
95	258
96	25
99	83
100	281
101	33
102	56
103	19
105	18
107	15
109	226
110	23
111	22
112	104
113	29
114	15
115	615
116	73
121	27
125	16
126	46
127	94
128	188
129	101
130	17
131	47
133	13
137	13
139	781
140	734
141	1119
142	417
143	41
144	27
145	12
149	17
150	67
151	256
152	608
153	190
154	33
155	103
156	412
157	164
158	52
159	17
163	16
165	28
166	17
168	1426
169	2559
170	2505
171	319
172	52
173	48
174	19
175	19
181	16
184	26
185	72
186	123
187	192
188	18
189	18
191	21
199	15
202	100
203	61
204	22
205	19
215	2391
216	352
217	175
218	70
219	18
220	11
222	22
226	184
227	517
228	1546
229	615
230	153
231	465
232	1557
233	2416
234	336
235	43
242	14
243	37
244	147
245	265
246	495
247	113
248	208
249	684
250	102
251	14
261	11
262	20
289	79
290	28
299	42
307	112
308	77
309	20
325	8962
326	9999
327	1892
328	241
329	27
