Mass Spectrum: Pentaerythritol
Formula: C5 H12 O4
CAS: 115-77-5
Molecular weight: 136
Origin: Japan AIST/NIMC Database- Spectrum MS-NW-2140
m/z	RELATIVE INTENSITY
12	10
13	20
14	90
15	289
16	20
17	339
18	1729
19	409
25	30
26	269
27	1479
28	719
29	3689
30	859
31	6019
32	139
33	30
36	20
37	389
38	249
39	2649
40	1299
41	5839
42	8449
43	889
44	649
45	449
46	20
47	1409
48	20
49	609
50	50
51	60
52	50
53	309
54	2209
55	649
56	299
57	9999
58	1209
59	119
60	829
61	109
65	40
66	10
67	20
68	129
69	2389
70	6759
71	3089
72	809
73	459
74	60
75	109
76	10
77	30
79	20
81	169
82	229
83	60
84	30
85	169
86	40
87	629
88	889
89	50
90	10
91	10
95	10
97	20
98	20
99	30
100	299
101	20
