Mass Spectrum: Chlorendic anhydride
Formula: C9 H2 Cl6 O3
CAS: 115-27-5
Molecular weight: 368
Origin: NIST Mass Spectrometry Data Center, 1998.
m/z	RELATIVE INTENSITY
24	10
25	30
26	440
27	10
28	30
29	20
35	90
36	100
37	230
38	70
41	30
43	100
44	60
45	10
47	270
48	90
49	320
50	190
51	10
52	10
53	150
54	200
55	10
59	40
60	820
61	690
62	210
63	440
64	10
65	190
66	40
67	10
69	10
70	10
71	270
72	320
73	630
74	360
75	110
76	10
77	250
78	310
79	160
82	170
83	380
84	760
85	920
86	650
87	130
88	10
89	420
90	30
91	130
92	10
94	200
95	1310
96	1190
97	710
98	190
99	90
100	30
101	30
102	10
106	290
107	880
108	550
109	730
110	170
111	160
112	10
113	530
114	540
115	210
116	10
117	500
118	230
119	550
120	600
121	770
122	220
123	230
124	20
125	10
127	130
128	170
129	100
130	870
131	1110
132	780
135	60
136	10
137	10
141	780
142	80
143	990
144	150
145	410
146	70
147	70
148	20
149	10
150	10
153	30
154	60
155	330
156	170
157	220
158	90
159	40
160	20
165	580
166	40
167	750
168	50
169	350
170	30
171	80
172	10
173	10
177	40
178	70
179	230
180	80
181	200
182	30
183	60
184	10
185	10
188	20
189	10
190	60
191	2140
192	200
193	2030
194	170
195	670
196	50
197	70
198	10
200	20
201	240
202	40
203	300
204	30
205	150
206	10
207	1670
208	130
209	1590
210	130
211	510
212	40
213	80
214	310
215	60
216	400
217	40
218	200
219	40
220	60
221	30
222	10
223	10
225	270
226	510
227	400
228	680
229	240
230	320
231	70
232	70
233	10
234	10
235	1550
236	100
237	2520
238	160
239	1620
240	90
241	540
242	40
243	130
244	10
245	30
247	10
248	20
249	20
250	30
251	30
252	20
253	20
254	440
255	50
256	570
257	50
258	270
259	30
260	10
261	6369
262	540
263	9999
264	800
265	6409
266	480
267	2100
268	160
269	380
270	940
271	140
272	1710
273	120
274	1340
275	80
276	590
277	480
278	170
279	750
280	80
281	460
282	40
283	150
284	60
285	30
286	100
287	10
288	80
289	240
290	60
291	370
292	40
293	240
294	20
295	80
296	50
297	20
298	90
299	10
300	70
301	10
302	30
304	10
305	530
306	50
307	820
308	80
309	540
310	40
311	170
312	60
313	30
314	70
315	10
316	60
318	30
320	10
333	670
334	60
335	1060
336	100
337	680
338	70
339	220
340	40
341	40
342	30
344	30
346	10
368	420
369	40
370	810
371	80
372	660
373	60
374	280
375	30
376	70
377	10
378	10
