Mass Spectrum: Mercury, chloromethyl-
Formula: C H3 Cl Hg
CAS: 115-09-3
Molecular weight: 252
m/z	RELATIVE INTENSITY
35	1800
36	700
37	500
47	400
48	900
49	2000
51	600
198	1600
199	2800
200	4100
201	2400
202	5199
203	400
204	1100
212	700
213	2500
214	3400
215	4200
216	3100
217	4300
219	1100
233	900
234	1500
235	2600
236	1800
237	3600
238	400
239	1500
248	2900
249	4700
250	7199
251	5099
252	9999
253	1300
254	4500
