Mass Spectrum: Tri(2-chloroethyl) phosphate
Formula: C6 H12 Cl3 O4 P
CAS: 115-96-8
Molecular weight: 284
Origin: NIST Mass Spectrometry Data Center, 1998.
m/z	RELATIVE INTENSITY
14	10
15	70
25	10
26	300
27	2790
28	150
29	270
30	50
31	190
35	20
36	10
37	10
38	10
39	20
41	30
42	190
43	390
44	200
45	670
46	10
47	480
48	100
49	1200
50	120
51	390
52	30
53	30
55	10
57	120
58	10
59	10
60	30
61	250
62	1980
63	9999
64	860
65	3370
66	70
67	10
69	10
70	10
71	30
76	10
77	280
78	70
79	140
80	20
81	1380
82	80
83	90
85	10
88	10
89	120
90	10
91	90
92	10
93	580
94	10
95	100
96	10
97	10
98	10
99	3600
100	10
101	60
105	20
106	10
107	200
108	10
109	90
111	110
112	10
113	60
115	10
117	2650
119	870
121	40
122	10
123	130
124	150
125	2580
126	160
127	50
128	30
129	20
131	20
133	10
135	220
137	210
138	10
139	70
141	10
143	5319
144	130
145	1750
146	30
147	10
151	280
152	10
157	20
159	60
161	1500
162	30
163	550
164	10
165	20
169	10
171	10
173	30
175	10
179	10
181	10
185	10
187	1420
188	60
189	470
190	20
191	10
199	10
205	4400
206	210
207	2840
208	130
209	460
210	20
213	160
214	10
215	40
221	10
223	2720
224	130
225	1760
226	80
227	290
228	10
235	1060
236	50
237	680
238	30
239	110
240	10
247	10
249	7359
250	520
251	4760
252	330
253	800
254	50
255	10
283	10
285	20
287	20
