Mass Spectrum: Talbutal
Formula: C11 H16 N2 O3
CAS: 115-44-6
Molecular weight: 224
Origin: Drug Lab
m/z	RELATIVE INTENSITY
40	320
41	4754
42	390
43	520
44	661
45	20
50	150
51	390
52	470
53	1581
54	460
55	881
56	390
57	1251
58	50
63	50
65	290
66	250
67	601
68	370
69	450
70	460
71	50
77	480
78	310
79	941
80	591
81	651
82	280
83	300
84	130
85	40
91	140
92	20
93	110
94	220
95	250
96	1581
97	3263
98	520
99	40
106	581
107	180
108	891
109	330
110	180
111	130
112	390
113	30
121	20
122	280
123	390
124	2793
125	360
126	70
128	50
129	110
135	50
136	20
138	110
139	50
140	100
141	510
142	20
149	40
150	130
151	520
152	170
153	2112
154	340
155	370
156	10
165	150
167	9999
168	7737
169	851
170	80
181	220
182	500
183	651
184	60
195	2132
196	230
209	10
