Mass Spectrum: 2,2-Bis(ethylsulfonyl)propane
Formula: C7 H16 O4 S2
CAS: 115-24-2
Molecular weight: 228
Origin: R.E.Ardrey ET AL.Pharmaceutical Mass Spectra,L.,1985
m/z	RELATIVE INTENSITY
26	100
27	1601
29	5105
30	100
31	200
39	901
40	200
41	1802
42	601
43	2502
45	100
48	100
49	100
50	100
59	5805
60	200
61	100
63	200
66	300
67	100
77	9999
78	2002
79	500
91	300
95	901
135	1001
136	500
