Mass Spectrum: Mephobarbital
Formula: C13 H14 N2 O3
CAS: 115-38-8
Molecular weight: 246
Origin: NIST Mass Spectrometry Data Center
m/z	RELATIVE INTENSITY
15	30
26	20
27	180
28	160
29	220
30	40
31	20
37	10
38	50
39	540
40	60
41	110
42	90
43	50
44	110
49	10
50	300
51	981
52	200
53	110
54	60
55	70
56	290
57	250
58	721
61	30
62	220
63	741
64	120
65	440
66	90
67	20
68	20
69	50
70	220
71	10
73	40
74	110
75	170
76	310
77	1782
78	731
79	100
80	20
81	10
82	30
83	40
84	10
85	30
86	60
87	110
88	120
89	1371
90	621
91	1832
92	210
93	20
94	30
95	10
96	10
97	30
98	20
99	10
100	10
101	70
102	410
103	2252
104	1031
105	601
106	70
107	30
108	10
109	20
110	10
111	10
112	80
113	40
114	60
115	2352
116	671
117	5645
118	3233
119	300
120	30
126	60
127	20
128	80
129	60
130	150
131	380
132	330
133	430
134	50
135	10
140	20
141	20
142	60
143	270
144	390
145	250
146	2813
147	420
148	30
155	90
156	70
157	20
158	50
159	60
160	380
161	1081
162	150
163	10
168	10
169	130
170	20
171	30
172	70
173	40
174	701
175	801
176	90
177	10
185	10
186	20
187	60
188	530
189	290
190	540
191	60
192	10
199	10
200	10
201	10
202	20
203	170
204	20
214	10
215	10
216	20
217	250
218	9999
219	1241
220	130
221	10
229	80
230	10
231	380
232	50
233	10
245	20
246	561
247	80
248	10
