Mass Spectrum: Cyclobutane, octafluoro-
Formula: C4 F8
CAS: 115-25-3
Molecular weight: 200
m/z	RELATIVE INTENSITY
12	100
19	50
24	20
31	5425
32	60
36	30
43	140
44	10
48	10
50	1321
51	20
55	130
56	10
62	210
63	10
67	10
69	2462
70	20
74	270
75	10
81	190
82	10
86	40
87	10
88	10
93	651
94	20
100	9999
101	210
105	10
112	100
113	10
119	10
124	10
131	8678
132	270
150	20
162	10
181	10
200	10
