Mass Spectrum: 3,5-Pyridinedicarboxylic acid, 2,4,6-trimethyl-, diethyl ester
Formula: C14 H19 N O4
CAS: 1150-55-6
Molecular weight: 265
Origin: K.NAKATSU, DEP. PHARM., QUEEN'S UNIV., KINGSTON, ONTARIO, CAN.
m/z	RELATIVE INTENSITY
76	220
77	1660
78	1090
79	420
80	200
81	350
83	120
85	130
87	520
91	890
92	220
93	600
94	240
95	170
97	110
104	190
105	310
106	250
107	190
108	190
109	180
116	110
117	110
118	420
119	400
120	1090
121	470
122	1210
123	240
133	110
134	380
135	260
136	270
145	120
146	460
147	840
148	410
149	250
150	90
162	470
163	1000
164	2210
165	690
166	130
174	1030
175	180
176	140
178	110
180	110
190	690
191	2090
192	3250
193	940
194	230
204	120
208	4720
209	660
210	120
220	9999
221	1710
222	710
223	90
236	3150
237	570
250	780
251	100
265	4430
266	510
267	90
