Mass Spectrum: 2-Propanone, 1-hydroxy-
Formula: C3 H6 O2
CAS: 116-09-6
Molecular weight: 74
m/z	RELATIVE INTENSITY
15	861
25	30
26	100
27	240
28	210
29	550
30	90
31	1692
32	30
36	10
37	30
38	30
39	40
40	20
41	80
42	440
43	9999
44	260
45	370
53	30
55	40
56	20
57	40
58	80
73	10
74	981
75	60
