Mass Spectrum: 9,10-Anthracenedione, 1-amino-4-hydroxy-
Formula: C14 H9 N O3
CAS: 116-85-8
Molecular weight: 239
Origin: Japan AIST/NIMC Database- Spectrum MS-NW-5791
m/z	RELATIVE INTENSITY
17	10
18	30
26	60
27	99
28	40
29	50
37	30
38	90
39	149
40	30
41	40
42	10
43	10
44	20
48	10
49	50
50	439
51	509
52	429
53	269
54	80
55	50
56	30
57	20
60	10
61	99
62	149
63	339
64	239
65	70
66	40
67	20
68	40
69	60
70	30
71	10
73	60
74	289
75	449
76	499
77	839
78	289
79	99
80	70
81	20
82	30
83	40
84	30
85	40
86	90
87	129
88	80
89	99
90	50
91	199
92	90
93	10
94	20
95	20
97	30
98	90
99	90
100	129
101	359
102	479
103	99
104	139
105	239
106	90
107	40
108	10
109	30
110	50
111	60
112	50
113	90
114	109
115	80
116	30
119	169
120	50
121	10
122	20
123	20
124	20
125	60
126	269
127	749
128	799
129	299
130	70
131	30
132	20
133	30
134	99
135	40
137	90
138	139
139	229
140	99
141	20
142	20
143	20
144	10
145	10
149	20
150	50
151	70
152	90
153	159
154	1569
155	449
156	139
157	60
158	30
159	10
160	10
161	20
162	10
163	10
164	119
165	90
166	60
167	50
168	70
169	20
170	10
171	10
174	10
177	20
180	50
181	20
182	569
183	549
184	149
185	30
186	60
187	20
188	30
191	10
192	10
193	30
194	60
195	30
196	30
197	10
201	20
207	20
208	30
209	20
210	389
211	409
212	109
213	20
214	70
215	10
216	40
222	30
223	70
224	109
225	20
226	10
236	30
237	30
238	869
239	9999
240	1579
241	209
242	90
243	10
