Mass Spectrum: Benzene, 1,2,4-trichloro-5-[(4-chlorophenyl)sulfonyl]-
Formula: C12 H6 Cl4 O2 S
CAS: 116-29-0
Molecular weight: 354
Origin: MASS SPECTROMETRY CENTER, UNIV. OF UTAH EPA-PTSEL 6600
m/z	RELATIVE INTENSITY
27	31
28	68
36	54
37	20
38	18
39	59
45	125
49	16
50	1423
51	844
61	311
62	171
63	334
69	78
73	658
74	1494
75	3872
76	800
77	32
79	196
81	34
84	513
85	589
86	154
87	243
95	19
96	32
97	139
98	17
99	1133
100	30
101	307
107	71
108	745
109	854
110	404
111	7659
112	657
113	2396
114	103
115	16
118	14
127	3632
128	392
129	1294
130	34
131	579
132	13
133	175
143	834
144	581
145	900
146	823
147	312
148	81
149	36
150	77
159	9999
160	886
161	3729
162	286
163	161
167	93
169	141
175	2124
176	301
177	883
178	114
179	659
180	29
181	560
183	242
184	135
185	78
195	72
197	17
199	157
201	117
220	445
222	270
227	5085
228	493
229	5081
230	476
231	1851
232	95
233	306
254	127
255	19
256	180
257	49
290	34
292	16
294	16
354	3070
355	654
356	4109
357	714
358	2116
359	361
360	585
