Mass Spectrum: Triisopropyl phosphite
Formula: C9 H21 O3 P
CAS: 116-17-6
Molecular weight: 208
Origin: RADIAN CORP
m/z	RELATIVE INTENSITY
15	260
26	130
27	1740
29	240
31	160
37	30
38	100
39	1350
40	170
41	3510
42	620
43	7350
44	320
45	1310
46	50
47	780
48	40
49	10
57	40
58	70
59	580
62	10
63	50
64	10
65	3260
66	20
69	30
79	30
81	230
82	9999
83	3540
84	80
85	30
90	20
91	410
92	180
96	160
105	260
106	30
107	4900
108	380
109	4770
110	130
111	30
121	20
123	720
124	5450
125	1470
126	80
134	20
135	20
149	1290
150	90
151	20
166	550
167	930
168	60
208	230
209	130
