Mass Spectrum: Acetic acid, dichloro-, methyl ester
Formula: C3 H4 Cl2 O2
CAS: 116-54-1
Molecular weight: 142
Origin: Japan AIST/NIMC Database- Spectrum MS-NW-4395
m/z	RELATIVE INTENSITY
12	30
13	119
14	90
15	2869
16	30
25	10
26	20
27	99
28	269
29	609
30	80
31	149
32	30
35	119
36	119
37	40
38	40
40	20
41	149
42	20
43	20
44	50
45	10
47	349
48	789
49	189
50	269
51	109
53	30
59	9999
60	229
61	50
62	30
63	769
64	20
65	239
76	489
77	20
78	159
79	139
81	50
82	90
83	4099
84	109
85	2639
86	40
87	429
98	70
99	10
100	40
107	30
109	10
110	30
111	129
112	10
113	109
115	20
