Mass Spectrum: Aflatoxin B1
Formula: C17 H12 O6
CAS: 1162-65-8
Molecular weight: 312
Origin: NIST Mass Spectrometry Data Center
m/z	RELATIVE INTENSITY
15	120
18	30
27	240
28	160
29	500
38	100
39	571
40	80
41	130
42	100
43	250
44	40
50	390
51	1111
52	390
53	601
55	681
56	100
57	180
59	110
61	170
62	510
63	1181
64	621
65	641
66	200
67	100
68	100
69	891
70	140
71	90
73	110
74	430
75	621
76	400
77	1171
78	400
79	601
80	170
81	90
84	140
85	140
86	270
87	410
88	330
89	721
90	330
91	450
92	771
93	330
94	90
95	120
98	280
99	260
100	621
101	470
102	530
103	550
104	100
105	220
107	400
111	120
112	100
113	561
114	460
115	1591
116	310
117	230
118	110
119	140
120	210
121	240
125	80
126	430
127	1051
128	1902
129	761
130	200
131	250
133	120
135	130
139	781
140	200
141	550
142	320
143	270
144	140
145	190
147	100
149	90
151	90
152	130
153	140
154	100
155	540
156	400
157	490
158	180
159	130
167	90
168	180
169	350
170	200
171	681
172	230
173	230
174	90
181	100
183	280
184	571
185	961
186	260
187	230
197	330
198	220
199	981
200	500
201	420
210	100
211	651
212	450
213	1651
214	370
215	190
225	190
226	130
227	2903
228	2422
229	490
237	90
238	180
239	230
240	150
241	1471
242	280
243	140
253	150
255	1351
256	1601
257	250
266	170
267	110
268	120
269	1501
270	300
281	761
282	170
283	1621
284	1842
285	330
294	90
297	150
311	350
312	9999
313	1772
314	270
