Mass Spectrum: Dimefline
Formula: C20 H21 N O3
CAS: 1165-48-6
Molecular weight: 323
Origin: Tox21 Consortium/NIST Mass Spectrometry Data Center, 2012
m/z	RELATIVE INTENSITY
15	80
18	10
26	10
27	70
28	80
29	80
30	280
31	10
38	50
39	310
40	50
41	140
42	1101
43	260
44	661
45	70
46	1431
47	40
50	220
51	591
52	130
53	390
54	50
55	170
56	70
57	741
58	6336
59	290
60	10
61	10
62	100
63	581
64	490
65	500
66	160
67	80
68	30
69	70
70	10
72	10
74	80
75	240
76	390
77	1912
78	350
79	270
80	70
81	90
82	70
83	60
84	10
85	10
86	30
87	70
88	90
89	470
90	120
91	280
92	1281
93	290
94	110
95	100
96	30
97	40
98	80
99	20
100	20
101	100
102	100
103	180
104	170
105	3073
106	440
107	210
108	90
109	100
110	40
111	30
112	20
113	60
114	100
115	2352
116	500
117	140
118	120
119	150
120	370
121	120
122	40
123	50
124	310
126	40
127	40
128	40
129	60
130	60
131	280
132	120
133	3133
134	440
135	160
136	180
137	40
138	50
139	550
140	50
141	30
142	40
143	30
144	120
145	100
146	70
147	130
148	90
149	410
150	80
151	90
152	150
153	260
155	10
156	10
157	20
158	30
159	20
160	310
162	100
163	9999
164	1151
165	330
166	60
167	20
168	10
169	10
172	10
173	10
174	50
175	20
176	160
177	80
178	330
179	130
180	30
181	30
182	10
185	10
187	20
188	20
189	110
190	80
191	70
192	230
193	100
194	30
195	20
196	10
201	10
202	40
203	30
204	10
205	60
206	50
207	40
208	20
209	10
216	10
218	30
219	60
220	40
221	90
222	30
223	20
224	10
225	10
230	10
231	20
232	10
233	20
234	200
235	260
236	70
237	40
238	10
246	10
247	50
248	280
249	460
250	550
251	190
252	40
260	20
261	20
262	10
263	350
264	90
265	170
266	40
267	40
268	10
276	20
277	2372
278	801
279	5505
280	1191
281	150
282	20
290	370
291	90
292	180
293	40
294	170
295	30
304	10
305	10
306	20
308	1952
309	430
310	50
320	10
321	10
322	1181
323	3243
324	671
325	100
326	10
