Mass Spectrum: 4H-1-Benzopyran-4-one, 5,6,7-trimethoxy-2-(4-methoxyphenyl)-
Formula: C19 H18 O6
CAS: 1168-42-9
Molecular weight: 342
Origin: Japan AIST/NIMC Database- Spectrum MS-IW-6741
m/z	RELATIVE INTENSITY
14	10
15	109
17	20
18	70
27	70
28	299
29	30
30	10
31	10
37	10
38	10
39	80
41	30
43	30
44	20
45	10
47	10
50	70
51	60
52	30
53	199
54	10
55	40
56	20
57	20
59	109
62	50
63	159
64	50
65	80
66	159
67	30
68	40
69	569
70	30
71	10
74	30
75	70
76	50
77	179
78	70
79	50
80	60
81	40
82	20
83	219
84	50
85	30
86	10
87	20
88	30
89	289
90	50
91	60
92	99
93	199
94	70
95	40
96	50
97	20
98	10
99	60
100	20
101	40
102	40
103	20
104	20
105	40
106	40
107	80
108	40
109	80
110	20
111	50
112	40
113	50
114	60
115	70
116	30
117	209
118	50
119	80
120	80
121	50
122	20
123	40
124	119
125	40
126	90
127	99
128	269
129	20
131	10
132	519
133	219
134	70
135	269
136	60
137	109
138	20
139	219
140	70
141	70
142	299
143	50
144	40
145	40
146	10
147	10
148	60
149	60
150	40
151	50
152	329
153	129
154	30
155	40
156	119
157	319
158	10
159	129
160	10
161	10
163	369
164	229
165	189
166	80
167	1069
168	119
169	60
170	20
171	50
172	20
173	10
177	30
179	60
180	189
181	99
182	30
183	40
184	10
185	60
186	10
191	10
193	20
194	10
195	379
196	50
197	30
198	30
199	20
200	10
201	10
207	10
208	10
209	90
210	50
211	40
212	10
213	80
214	20
215	10
221	10
222	10
223	20
224	20
225	40
226	30
227	20
228	10
236	20
237	50
238	70
239	50
240	50
241	99
242	20
243	10
250	20
251	40
252	179
253	179
254	80
255	40
256	129
257	20
264	20
265	40
266	199
267	99
268	179
269	149
270	50
271	20
278	10
279	10
280	50
281	299
282	199
283	279
284	1189
285	279
286	40
293	40
294	20
295	139
296	549
297	379
298	159
299	489
300	90
308	10
309	209
310	90
311	549
312	379
313	489
314	99
323	10
325	319
327	9999
328	2199
329	349
330	40
341	259
342	2439
343	589
344	90
345	10
