Mass Spectrum: Bulan
Formula: C16 H15 Cl2 N O2
CAS: 117-26-0
Molecular weight: 323
Origin: NIST Mass Spectrometry Data Center, 1998.
m/z	RELATIVE INTENSITY
15	10
26	20
27	230
29	400
30	130
35	10
36	20
37	10
38	40
39	390
40	40
41	200
42	80
43	20
46	40
49	30
50	340
51	540
52	80
53	180
54	80
55	30
56	20
57	20
58	10
60	10
61	40
62	160
63	610
64	70
65	160
66	10
68	20
69	60
72	10
73	210
74	240
75	990
76	370
77	680
78	110
79	30
80	10
81	10
82	810
84	20
85	80
86	120
87	270
88	570
89	1240
90	350
91	430
92	40
93	100
97	60
98	70
99	610
100	330
101	1100
102	630
103	740
104	110
105	50
106	130
107	50
108	10
109	10
110	50
111	220
112	200
113	340
114	350
115	1660
116	740
117	160
118	20
119	10
120	30
121	20
122	20
123	100
124	10
125	9999
126	990
127	3790
128	1050
129	1380
130	540
131	430
132	50
134	10
135	20
136	300
137	290
138	330
139	1820
140	210
141	500
142	50
147	20
148	20
149	730
150	290
151	900
152	510
153	190
154	20
155	10
159	10
160	40
161	80
162	200
163	1700
164	1430
165	7719
166	1320
167	180
168	50
172	10
173	100
174	90
175	160
176	1120
177	760
178	2910
179	530
180	50
181	10
183	20
184	10
185	20
186	80
187	70
188	70
189	420
190	190
191	650
192	170
193	20
196	10
197	40
198	90
199	2200
200	860
201	890
202	410
203	140
204	70
205	120
206	310
207	70
208	10
209	10
210	30
211	30
212	890
213	300
214	330
215	100
216	20
220	10
222	40
223	20
224	30
225	190
226	510
227	150
228	170
229	40
233	140
234	30
235	7439
236	1100
237	4830
238	700
239	810
240	190
241	7989
242	1410
243	2700
244	450
245	40
246	50
247	40
248	500
249	100
250	310
251	50
252	60
253	10
259	10
261	720
262	120
263	450
264	80
265	80
266	10
275	100
276	5169
277	1010
278	3350
279	640
280	580
281	100
282	10
291	10
323	80
324	20
325	50
326	10
327	10
