Mass Spectrum: Benzeneacetic acid, .alpha.-phenyl-
Formula: C14 H12 O2
CAS: 117-34-0
Molecular weight: 212
Origin: Japan AIST/NIMC Database- Spectrum MS-NW-6886
m/z	RELATIVE INTENSITY
14	10
16	10
18	20
26	10
27	50
28	20
29	10
37	10
38	40
39	259
40	20
41	20
43	10
44	90
45	70
50	129
51	309
52	50
53	20
54	10
55	20
56	10
57	50
58	10
61	20
62	90
63	269
64	50
65	139
66	10
69	109
70	80
71	20
73	10
74	80
75	80
76	119
77	259
78	50
79	30
81	80
82	369
83	349
84	10
85	10
86	50
87	70
88	40
89	189
90	60
91	149
92	10
98	20
99	10
100	10
101	20
102	60
103	10
105	90
106	10
107	10
109	10
110	10
111	10
113	50
114	30
115	289
116	30
118	10
121	30
122	10
123	20
124	10
125	10
126	60
127	50
128	189
129	30
131	10
132	10
133	20
135	10
137	20
138	20
139	229
140	40
141	99
142	20
149	10
150	20
151	129
152	1369
153	289
154	30
155	10
161	10
162	20
163	169
164	249
165	2749
166	1109
167	9999
168	1879
169	169
170	10
181	20
182	30
183	10
194	50
195	10
212	1679
213	279
214	40
