Mass Spectrum: Di-n-octyl phthalate
Formula: C24 H38 O4
CAS: 117-84-0
Molecular weight: 390
Origin: Japan AIST/NIMC Database- Spectrum MS-NW- 521
m/z	RELATIVE INTENSITY
15	10
18	10
27	169
28	60
29	449
30	30
39	129
40	20
41	929
42	279
43	1189
44	50
50	50
51	30
53	50
54	80
55	649
56	349
57	999
58	50
60	20
65	119
66	10
67	90
68	109
69	459
70	279
71	619
72	30
73	30
74	10
75	30
76	209
77	80
79	20
81	70
82	80
83	209
84	179
85	50
91	10
92	10
93	99
94	10
95	30
96	10
97	60
98	10
104	229
105	149
106	20
109	20
110	30
111	40
112	229
113	149
114	10
121	99
122	119
123	129
124	10
127	20
129	20
132	40
133	20
135	10
136	10
145	20
146	10
147	10
148	20
149	9999
150	969
151	109
160	20
167	279
168	30
176	30
233	10
251	30
256	20
260	20
261	329
262	119
263	20
279	1799
280	319
281	40
306	30
347	10
390	189
391	50
