Mass Spectrum: Danthron
Formula: C14 H8 O4
CAS: 117-10-2
Molecular weight: 240
Origin: RADIAN CORP
m/z	RELATIVE INTENSITY
15	10
26	40
27	90
30	20
37	80
38	170
39	400
46	10
50	230
51	550
52	100
53	310
54	40
55	130
56	130
58	20
61	190
62	600
63	1390
64	740
65	300
66	140
67	70
69	390
73	40
74	450
75	590
76	300
77	500
78	200
79	200
81	20
83	170
85	80
86	290
87	300
88	150
89	150
90	80
91	310
92	1260
93	150
94	10
95	10
97	110
98	180
99	140
100	110
101	290
102	450
103	80
104	20
105	40
106	180
107	30
108	10
109	50
110	130
111	180
112	120
113	100
114	40
115	40
116	30
117	20
118	20
119	220
120	500
121	180
122	50
123	20
125	50
126	390
127	730
128	910
129	170
130	90
131	30
133	20
134	30
135	20
136	10
137	430
138	1210
139	440
140	90
141	20
142	10
145	30
147	20
154	20
155	670
156	250
157	30
158	20
165	20
166	60
167	60
168	70
169	20
171	10
173	20
183	250
184	1660
185	240
186	60
194	10
195	130
196	40
211	380
212	1540
213	230
214	30
223	710
224	230
225	30
228	10
239	420
240	9999
241	1540
242	200
243	20
