Mass Spectrum: Methanone, (2-hydroxyphenyl)phenyl-
Formula: C13 H10 O2
CAS: 117-99-7
Molecular weight: 198
Origin: Japan AIST/NIMC Database- Spectrum MS-NW-6092
m/z	RELATIVE INTENSITY
14	10
18	10
26	40
27	179
28	70
29	30
37	70
38	249
39	1289
40	60
41	20
42	10
43	20
44	30
45	10
49	30
50	509
51	1439
52	159
53	359
54	20
55	30
56	20
57	90
58	50
59	10
60	10
61	70
62	209
63	589
64	369
65	1929
66	159
67	30
68	10
69	60
70	99
71	60
72	30
73	30
74	219
75	239
76	379
77	4079
78	379
79	30
84	90
85	40
86	60
87	80
88	40
89	99
90	50
91	60
92	629
93	1159
94	119
95	10
97	10
98	60
99	329
100	20
101	20
102	60
103	20
104	40
105	3539
106	299
107	30
109	10
110	20
111	20
113	60
114	40
115	389
116	50
119	20
120	1059
121	6409
122	549
123	60
125	10
126	60
127	20
128	10
129	10
131	10
138	10
139	179
140	50
141	249
142	60
143	10
144	10
150	50
151	129
152	229
153	60
154	10
155	10
165	10
166	10
168	90
169	149
170	70
171	20
179	30
180	109
181	329
182	80
183	10
196	90
197	9999
198	8789
199	1209
200	129
201	10
