Mass Spectrum: Benzene, 1,1'-(2-nitropropylidene)bis[4-chloro-
Formula: C15 H13 Cl2 N O2
CAS: 117-27-1
Molecular weight: 309
Origin: MASS SPEC DATA COMPILATION OF PEST. AND IND. CHEMICALS, T. CAIRNS, FDA, USA
m/z	RELATIVE INTENSITY
50	600
51	990
61	200
62	390
63	1270
64	210
65	380
73	600
74	510
75	1850
76	940
77	1070
78	220
80	210
81	610
82	2950
83	1500
86	430
87	690
88	3550
89	3030
90	710
91	800
93	640
94	960
95	2890
96	2270
98	200
99	390
100	1500
101	1420
102	1000
103	610
104	240
105	200
106	3060
107	1470
108	230
111	330
112	400
113	900
114	1490
115	7020
116	5820
117	2150
124	370
125	7600
126	1210
127	3020
128	450
132	200
136	370
137	530
138	540
139	1330
140	290
141	340
149	1490
150	420
151	3450
152	1050
153	960
154	370
162	300
163	1330
164	1060
165	5790
166	1420
175	250
176	970
177	740
178	2280
179	380
188	210
189	690
190	380
191	1020
192	1880
193	530
197	430
199	2460
200	1000
201	1470
202	370
203	310
212	1040
213	390
214	420
225	290
226	380
227	4500
228	970
229	1330
230	310
234	310
235	7740
236	1940
237	5570
238	1250
239	980
240	260
241	240
248	630
249	210
250	420
261	440
262	9999
263	4810
264	7750
265	2520
266	1710
267	490
275	410
276	320
277	750
278	290
279	360
309	310
311	200
