Mass Spectrum: 9,10-Anthracenedione, 1,5-dihydroxy-
Formula: C14 H8 O4
CAS: 117-12-4
Molecular weight: 240
Origin: Japan AIST/NIMC Database- Spectrum MS-NW-5695
m/z	RELATIVE INTENSITY
14	10
17	10
18	30
26	20
27	40
28	70
29	50
37	70
38	119
39	279
40	20
41	10
43	10
45	10
46	10
49	20
50	139
51	319
52	50
53	139
54	10
55	50
56	50
57	10
58	10
60	10
61	99
62	299
63	609
64	399
65	159
66	70
67	20
68	30
69	119
70	40
71	10
72	10
73	30
74	199
75	299
76	169
77	229
78	119
79	129
80	10
81	10
82	20
83	99
84	20
85	40
86	129
87	149
88	70
89	80
90	60
91	219
92	969
93	149
94	20
97	40
98	90
99	70
100	70
101	189
102	269
103	50
104	30
105	40
106	99
107	10
108	20
109	30
110	40
111	60
112	60
113	60
114	40
115	40
116	20
117	10
118	10
119	259
120	419
121	189
122	40
123	10
125	30
126	219
127	439
128	629
129	119
130	70
131	20
132	10
134	20
135	20
136	10
137	99
138	429
139	259
140	80
141	10
142	10
143	10
144	10
145	20
149	20
150	10
153	10
154	30
155	579
156	259
157	40
158	20
159	10
160	10
161	10
165	20
166	30
167	50
168	119
169	20
170	10
171	30
172	10
173	10
180	10
181	10
182	10
183	149
184	1399
185	199
186	50
187	10
188	10
189	10
193	10
194	20
195	90
196	80
197	20
199	20
200	20
206	10
207	10
208	10
210	10
211	189
212	1099
213	159
214	20
222	20
223	659
224	459
225	80
226	10
238	20
239	599
240	9999
241	1599
242	209
243	30
