Mass Spectrum: Anisindione
Formula: C16 H12 O3
CAS: 117-37-3
Molecular weight: 252
Origin: Finnigan MAT: Toxicological Library (LIBR-TX)
m/z	RELATIVE INTENSITY
50	279
51	274
63	199
76	589
77	581
82	208
89	85
90	84
91	109
104	180
112	112
125	279
126	207
180	94
181	796
182	93
195	203
209	409
223	200
237	4398
238	709
252	9999
253	1753
254	208
