Mass Spectrum: Trifluoperazine
Formula: C21 H24 F3 N3 S
CAS: 117-89-5
Molecular weight: 407
Origin: Tox21 Consortium/NIST Mass Spectrometry Data Center, 2012
m/z	RELATIVE INTENSITY
15	50
26	20
27	80
28	310
29	150
30	130
31	20
38	10
39	110
40	30
41	561
42	2853
43	3603
44	1331
45	170
46	10
47	10
50	40
51	80
52	30
53	30
54	190
55	350
56	1571
57	851
58	1291
59	120
60	10
62	20
63	90
64	20
65	60
66	10
67	40
68	190
69	360
70	7627
71	2202
72	530
73	40
74	20
75	60
76	40
77	170
78	40
79	10
80	30
81	60
82	360
83	430
84	761
85	1001
86	150
87	20
88	20
89	40
90	20
91	30
92	10
93	30
94	30
95	120
96	320
97	550
98	1051
99	821
100	160
101	90
102	30
103	20
104	20
105	20
106	20
107	30
108	110
109	120
110	40
111	881
112	220
113	9999
114	1111
115	90
116	20
117	30
118	10
119	20
120	30
121	30
122	20
123	30
124	40
125	160
126	120
127	2392
128	230
129	20
130	50
131	20
132	30
133	40
134	40
135	20
136	30
137	30
138	60
139	380
140	170
141	3463
142	330
143	30
144	20
145	70
146	30
147	20
148	10
149	10
150	20
151	70
152	140
153	110
154	40
155	10
156	10
157	100
158	40
159	20
160	10
161	10
162	10
163	20
164	70
165	40
166	50
167	50
168	10
169	60
170	70
171	70
172	40
173	10
174	10
175	40
176	50
177	80
178	100
179	70
180	20
181	20
182	70
183	50
184	150
185	40
186	20
187	20
188	40
189	40
190	20
191	30
192	10
193	10
194	30
195	50
196	310
197	260
198	120
199	40
200	20
201	110
202	170
203	80
204	60
205	20
206	40
207	40
208	60
209	60
210	90
211	70
212	70
213	60
214	60
215	90
216	80
217	20
218	10
219	40
220	60
221	50
222	260
223	120
224	40
225	30
226	70
227	40
228	150
229	40
230	40
231	20
232	20
233	100
234	160
235	150
236	50
237	20
238	70
239	90
240	90
241	30
242	20
243	10
244	10
245	50
246	140
247	370
248	2182
249	350
250	40
251	40
252	40
253	20
254	20
255	10
256	10
258	30
259	30
260	160
261	90
262	100
263	20
264	30
265	90
266	1932
267	901
268	200
269	50
270	10
271	10
272	60
273	20
274	80
275	30
276	10
277	10
278	110
279	80
280	1301
281	671
282	160
283	40
284	10
285	10
286	10
287	20
288	10
289	10
290	10
291	120
292	400
293	581
294	641
295	120
296	40
304	50
306	1782
307	1001
308	260
309	70
310	10
320	20
321	30
322	10
323	10
333	10
334	10
335	20
336	90
337	40
338	10
348	30
349	40
350	370
351	100
352	30
353	10
363	270
364	80
365	50
366	10
368	20
369	10
377	30
378	30
379	10
388	10
391	10
392	60
393	20
405	70
407	4464
408	1111
409	330
410	60
411	10
