Mass Spectrum: Anthraquinone, 2-amino-
Formula: C14 H9 N O2
CAS: 117-79-3
Molecular weight: 223
Origin: NIST Mass Spectrometry Data Center, 1998.
m/z	RELATIVE INTENSITY
38	50
39	240
41	360
50	510
51	170
52	160
62	310
63	770
64	300
65	260
69	270
70	410
74	520
75	490
76	700
77	280
83	1400
86	90
87	180
88	80
89	270
91	250
97	800
99	90
111	80
113	260
114	240
115	280
126	130
137	50
138	240
139	3970
140	1640
141	130
150	100
151	90
164	210
165	110
166	2100
167	4130
168	880
179	90
194	1090
195	2870
196	270
207	240
222	940
223	9999
224	1470
225	100
