Mass Spectrum: Cyclopropanecarboxylic acid, 3-(3-methoxy-2-methyl-3-oxo-1-propenyl)-2,2-dimethyl-, 2-methyl-4-oxo-3-(2-pentenyl)-2-cyclopenten-1-yl ester, [1R-[1.alpha.[S*(Z)],3.beta.(E)]]-
Formula: C22 H30 O5
CAS: 1172-63-0
Molecular weight: 374
Origin: Y.KAWANO, COLL. TROP. AGRIC., UNIV. OF HAWAII, HAWAII
m/z	RELATIVE INTENSITY
27	1400
29	3600
39	2500
41	5600
42	320
43	5880
44	530
50	290
51	500
52	490
53	1820
54	390
55	6300
56	390
57	1340
58	360
59	1320
60	480
65	1320
66	520
67	1300
68	390
69	1180
70	140
71	290
72	35
73	180
77	2930
78	780
79	3680
80	830
81	1370
91	5000
92	720
93	6650
94	560
95	480
96	210
97	270
103	320
104	84
105	1960
106	390
107	9999
108	1190
109	940
110	130
111	180
112	590
115	360
116	28
117	280
118	84
119	490
120	430
121	3220
122	570
123	560
125	550
133	1290
134	480
135	3530
136	740
137	270
139	450
145	530
146	130
147	340
148	180
149	420
150	200
151	120
152	90
153	240
161	320
162	560
163	2580
164	1020
165	1020
166	140
167	2670
168	380
169	84
197	46
198	9
211	91
212	91
343	73
