Mass Spectrum: L-Fucose, 4TMS derivative
Formula: C18 H44 O5 Si4
CAS: 117307-13-8
Molecular weight: 452
Origin: NIST Mass Spectrometry Data Center
m/z	RELATIVE INTENSITY
29	20
31	10
39	10
41	30
42	10
43	110
44	70
45	450
46	30
47	60
53	20
54	10
55	90
56	10
57	90
58	40
59	250
60	30
61	60
65	10
66	10
67	20
68	10
69	20
70	20
71	30
73	6846
74	621
75	721
76	40
77	30
79	10
81	20
82	10
83	110
84	10
85	90
86	10
87	40
88	10
89	20
91	10
95	10
97	10
98	10
99	60
100	10
101	130
102	40
103	250
104	30
105	30
111	40
112	10
113	50
114	10
115	430
116	120
117	360
118	40
119	80
120	10
121	10
125	10
127	40
128	10
129	380
130	911
131	601
132	100
133	741
134	100
135	70
136	10
139	10
141	30
142	20
143	390
144	60
145	60
147	2873
148	460
149	350
150	40
151	20
155	290
156	70
157	140
158	20
159	60
160	10
161	30
163	20
169	10
171	30
172	10
173	20
175	60
176	10
177	40
178	10
183	40
184	10
185	20
187	10
189	561
190	160
191	3613
192	681
193	320
194	40
195	10
201	20
204	9999
205	2272
206	1021
207	180
208	30
209	10
215	50
217	1772
218	370
219	170
220	20
221	140
222	30
223	20
229	120
230	50
231	80
232	20
233	20
234	10
243	20
244	20
245	220
246	50
247	20
257	40
258	10
259	10
265	150
266	40
267	20
271	10
273	90
274	20
275	10
289	10
290	10
291	220
292	60
293	30
294	10
303	30
304	10
305	370
306	110
307	50
308	10
318	20
319	130
320	40
321	20
333	10
347	50
348	10
349	10
393	100
394	30
395	20
396	10
