Mass Spectrum: Norpheniramine acetate
Formula: C17 H20 N2 O
CAS: 117540-10-0
Molecular weight: 268
Origin: Dr. Jiri Zamecnik, DCIEM, North York, Canada, GP Library
m/z	RELATIVE INTENSITY
51	290
58	160
63	130
65	130
77	280
78	340
79	210
89	130
91	270
93	250
103	170
104	170
106	210
115	280
117	200
118	170
139	260
140	190
141	110
167	3790
168	5240
169	9999
180	690
182	3480
183	600
194	500
195	400
196	450
225	320
268	200
