Mass Spectrum: Dexamethasone-21-acetate
Formula: C24 H31 F O6
CAS: 1177-87-3
Molecular weight: 434
Origin: Japan AIST/NIMC Database- Spectrum MS-IW-3767
m/z	RELATIVE INTENSITY
14	30
15	139
16	10
17	20
18	70
20	10
27	159
28	259
29	359
30	139
31	149
32	10
39	259
40	60
41	1079
42	379
43	5789
44	179
45	229
47	40
49	10
50	10
51	109
52	60
53	479
54	70
55	1119
56	109
57	339
58	40
59	179
60	189
61	60
62	10
63	50
64	30
65	319
66	90
67	549
68	109
69	939
70	209
71	349
72	60
73	469
74	80
75	80
76	30
77	989
78	219
79	649
80	119
81	619
82	129
83	339
84	139
85	289
86	30
87	119
88	329
89	90
90	40
91	1849
92	449
93	719
94	179
95	819
96	259
97	439
98	99
99	229
100	129
101	699
102	149
103	309
104	99
105	659
106	189
107	1169
108	469
109	1069
110	249
111	669
112	139
113	259
114	90
115	549
116	259
117	929
118	149
119	499
120	549
121	9999
122	8439
123	1479
124	379
125	539
126	139
127	399
128	359
129	389
130	319
131	579
132	229
133	869
134	1279
135	2929
136	739
137	769
138	249
139	889
140	169
141	469
142	179
143	339
144	249
145	849
146	639
147	3259
148	569
149	469
150	219
151	379
152	399
153	559
154	139
155	279
156	109
157	339
158	349
159	1499
160	1279
161	1039
162	249
163	659
164	239
165	619
166	309
167	279
168	129
169	289
170	159
171	749
172	309
173	749
174	259
175	419
176	169
177	439
178	279
179	629
180	199
181	289
182	139
183	299
184	309
185	989
186	709
187	1299
188	399
189	799
190	229
191	469
192	179
193	419
194	179
195	349
196	189
197	489
198	259
199	409
200	179
201	249
202	299
203	609
204	249
205	369
206	179
207	449
208	509
209	519
210	279
211	689
212	369
213	769
214	279
215	379
216	119
217	169
218	70
219	159
220	99
221	479
222	269
223	2439
224	739
225	1069
226	609
227	639
228	229
229	229
230	90
231	129
232	60
233	269
234	109
235	419
236	1129
237	1069
238	779
239	849
240	339
241	799
242	719
243	449
244	189
245	139
246	60
247	119
248	80
249	299
250	169
251	349
252	189
253	1039
254	729
255	909
256	539
257	469
258	169
259	139
260	99
261	179
262	189
263	189
264	99
265	419
266	379
267	549
268	289
269	279
270	109
271	129
272	60
273	159
274	239
275	389
276	179
277	799
278	249
279	259
280	249
281	329
282	329
283	319
284	349
285	399
286	169
287	80
288	30
289	80
290	119
291	109
292	70
293	439
294	239
295	1579
296	459
297	409
298	149
299	129
300	90
301	99
302	40
303	169
304	459
305	149
306	90
307	149
308	239
309	129
310	109
311	259
312	899
313	1189
314	319
315	4019
316	929
317	189
318	169
319	80
320	20
321	109
322	30
323	99
324	159
325	209
326	349
327	169
328	149
329	80
330	299
331	429
332	269
333	2169
334	519
335	109
336	259
337	119
338	179
339	129
340	159
341	109
342	209
343	90
344	70
345	60
346	229
347	129
348	30
350	10
352	10
353	40
354	649
355	289
356	229
357	99
358	40
359	40
360	40
361	30
362	199
363	50
364	109
365	30
366	20
367	10
368	60
369	20
370	30
371	10
372	80
374	1139
375	489
376	119
377	20
378	20
381	10
382	20
383	10
384	739
385	189
386	179
387	50
388	30
392	30
396	80
397	20
398	20
399	10
400	10
401	20
402	10
404	30
405	10
406	159
407	40
408	10
414	2669
415	739
416	219
417	40
434	959
435	269
436	50
