Mass Spectrum: Maltol
Formula: C6 H6 O3
CAS: 118-71-8
Molecular weight: 126
Origin: Japan AIST/NIMC Database- Spectrum MS-NW-1265
m/z	RELATIVE INTENSITY
12	20
13	60
14	269
15	829
16	10
17	10
18	30
24	20
25	139
26	939
27	1029
28	449
29	749
30	80
31	30
32	30
36	20
37	119
38	149
39	289
40	70
41	229
42	679
43	3479
44	499
45	30
48	10
49	50
50	80
51	169
52	639
53	549
54	559
55	2609
56	579
57	199
58	50
61	10
62	20
63	10
65	10
66	30
67	40
68	30
69	659
70	319
71	4439
72	199
73	30
79	70
80	219
81	90
82	30
83	40
84	40
85	10
92	10
93	40
96	20
97	1379
98	249
99	30
109	20
111	189
112	10
125	109
126	9999
127	699
128	80
