Mass Spectrum: 2-Ethylhexyl salicylate
Formula: C15 H22 O3
CAS: 118-60-5
Molecular weight: 250
Origin: Japan AIST/NIMC Database- Spectrum MS-IW-4193
m/z	RELATIVE INTENSITY
26	10
27	179
28	90
29	589
30	10
31	10
38	20
39	389
40	40
41	1399
42	299
43	2489
44	90
50	10
51	20
53	99
54	50
55	1389
56	719
57	3459
58	149
59	10
62	10
63	90
64	129
65	689
66	50
67	70
68	60
69	669
70	3049
71	2409
72	139
75	10
76	10
77	20
79	10
81	40
82	199
83	1889
84	749
85	60
91	20
92	599
93	659
94	90
95	10
97	99
98	20
109	10
111	10
112	2249
113	269
114	10
119	10
120	9999
121	3869
122	329
123	20
134	10
137	20
138	8569
139	1459
140	129
141	10
151	10
250	1169
251	199
252	20
