Mass Spectrum: Phenyl salicylate
Formula: C13 H10 O3
CAS: 118-55-8
Molecular weight: 214
Origin: Japan AIST/NIMC Database- Spectrum MS-NW- 679
m/z	RELATIVE INTENSITY
26	10
27	30
28	40
37	30
38	129
39	819
40	50
50	70
51	159
52	10
53	129
55	20
61	20
62	60
63	259
64	229
65	1289
66	129
74	20
75	30
76	10
77	60
91	10
92	289
93	939
94	279
95	20
119	10
120	239
121	9999
122	779
123	60
213	10
214	1299
215	189
216	20
