Mass Spectrum: Hydrastine
Formula: C21 H21 N O6
CAS: 118-08-1
Molecular weight: 383
Origin: H. Fales, LC, NHLBI, NIH, Bethesda, MD 20892
m/z	RELATIVE INTENSITY
42	1476
43	150
44	266
45	60
46	4
47	67
48	36
49	391
50	59
51	251
52	32
53	57
54	47
55	92
56	51
57	80
58	11
59	12
60	32
61	13
62	23
63	107
64	34
65	116
66	38
67	67
68	25
69	47
70	27
71	43
72	10
73	35
74	16
75	38
76	73
77	236
78	84
79	89
80	19
81	36
82	42
83	22
84	245
85	28
86	143
87	19
88	43
89	112
90	54
91	163
92	39
93	28
94	35
95	36
96	15
97	26
98	17
99	14
100	13
101	17
102	30
103	81
104	47
105	78
106	44
107	51
108	11
109	14
110	11
111	19
112	4
113	14
114	5
115	26
116	53
117	111
118	33
119	80
120	30
121	47
122	54
123	18
124	21
125	11
126	9
127	13
128	10
129	22
130	113
131	203
132	193
133	38
134	25
135	42
136	12
137	10
138	4
139	15
141	10
143	4
144	7
145	31
146	16
147	54
148	42
149	100
150	53
151	18
152	18
153	10
154	11
155	10
158	7
159	45
160	105
161	52
162	16
163	30
164	14
165	20
166	4
167	10
172	8
173	4
174	67
175	172
176	30
177	14
178	24
179	11
181	4
182	10
183	22
188	244
189	84
190	9999
191	1584
192	148
193	104
194	18
195	4
203	5
205	9
206	8
207	22
260	11
262	12
294	4
382	6
