Mass Spectrum: Guanosine
Formula: C10 H13 N5 O5
CAS: 118-00-3
Molecular weight: 283
Origin: R.SELF AGRICULTURAL RES., FOOD RES. INSTITUTE, NORWICH, U.K.
m/z	RELATIVE INTENSITY
27	1211
28	480
29	2105
30	421
31	1444
36	268
38	132
39	579
40	132
41	579
42	895
43	4739
44	1474
45	684
47	258
52	126
53	1132
54	1632
55	1106
56	579
57	3685
58	422
60	1262
61	579
66	110
67	100
68	632
69	895
70	211
71	895
72	474
73	1632
74	421
79	200
80	200
81	684
82	316
83	179
84	121
85	421
86	395
95	137
96	316
97	369
98	216
103	121
106	189
107	126
108	579
109	1842
110	1526
111	110
114	368
115	184
123	116
124	106
133	205
134	945
135	632
136	116
143	116
151	9999
152	1105
161	121
175	121
