Mass Spectrum: 2,6-Dimethylthiophenol
Formula: C8 H10 S
CAS: 118-72-9
Molecular weight: 138
Origin: NIST Mass Spectrometry Data Center
m/z	RELATIVE INTENSITY
15	30
26	30
27	220
28	10
29	10
32	10
33	30
34	40
35	10
37	40
38	120
39	671
40	60
41	100
45	951
46	40
47	80
49	20
50	260
51	681
52	200
53	260
54	30
55	20
57	20
58	90
59	230
60	40
61	90
62	200
63	510
64	90
65	540
66	90
67	230
68	270
69	561
70	120
71	150
72	20
73	30
74	140
75	140
76	140
77	1742
78	1281
79	1081
80	80
81	60
82	90
83	60
84	50
85	60
86	50
87	50
88	10
89	220
90	80
91	1111
92	150
93	390
94	90
95	100
96	30
97	310
98	110
99	30
100	10
101	40
102	290
103	1912
104	651
105	9999
106	1011
107	50
108	60
109	130
110	70
111	90
112	30
113	10
117	10
119	10
120	10
121	530
122	180
123	621
124	60
125	30
133	20
134	250
135	420
136	90
137	841
138	8898
139	961
140	480
141	40
