Mass Spectrum: Benzene, hexachloro-
Formula: C6 Cl6
CAS: 118-74-1
Molecular weight: 282
Origin: NIST Mass Spectrometry Data Center, 1998.
m/z	RELATIVE INTENSITY
24	10
35	280
36	40
37	100
38	10
47	590
48	120
49	200
53	10
71	1230
72	70
73	370
74	10
82	100
83	290
84	80
85	100
86	10
88	270
89	270
90	90
91	10
94	240
95	730
96	190
97	240
98	40
106	1170
107	2860
108	870
109	760
110	100
117	40
118	1030
119	80
120	670
121	40
122	110
123	140
124	230
125	150
126	50
127	10
129	10
130	360
131	30
132	230
133	20
134	40
141	800
142	4460
143	1310
144	2590
145	310
146	380
147	30
153	80
155	80
157	20
164	10
165	210
166	20
167	190
168	20
169	60
171	10
177	1250
178	90
179	1230
180	80
181	400
182	30
183	40
188	100
190	130
191	10
192	60
194	10
212	1580
213	110
214	2000
215	130
216	970
217	70
218	210
219	10
220	20
235	40
237	60
239	40
241	10
247	1800
248	130
249	2850
250	200
251	1830
252	130
253	580
254	40
255	100
282	5339
283	370
284	9999
285	670
286	7949
287	530
288	3430
289	230
290	820
291	50
292	110
