Mass Spectrum: Benzoic acid, 2-hydroxy-, phenylmethyl ester
Formula: C14 H12 O3
CAS: 118-58-1
Molecular weight: 228
Origin: NIST Mass Spectrometry Data Center, 1992
m/z	RELATIVE INTENSITY
14	4
15	7
16	6
17	19
18	92
26	32
27	133
28	73
29	48
30	2
31	12
37	58
38	252
39	1320
40	71
41	139
42	12
43	9
44	19
45	19
50	195
51	404
52	129
53	233
54	19
55	25
61	38
62	160
63	535
64	352
65	1973
66	138
67	13
68	3
69	6
73	7
74	44
75	48
76	58
77	276
78	66
79	155
80	24
81	93
82	6
85	3
86	14
87	6
89	289
91	9999
92	1157
93	253
94	24
95	2
104	5
105	36
106	10
107	61
108	22
109	25
114	11
115	7
120	142
121	336
122	30
127	4
128	4
129	2
137	4
138	4
139	4
141	2
150	8
151	5
152	14
153	11
155	3
164	3
165	15
169	2
181	13
182	5
183	4
184	4
197	3
209	2
210	28
211	6
228	1159
229	178
230	16
