Mass Spectrum: Cinchonine
Formula: C19 H22 N2 O
CAS: 118-10-5
Molecular weight: 294
Origin: Japan AIST/NIMC Database- Spectrum MS-NW-2791
m/z	RELATIVE INTENSITY
15	50
26	10
27	239
28	309
29	239
30	159
31	10
39	289
40	40
41	899
42	1149
43	189
44	259
45	10
50	50
51	159
52	70
53	449
54	229
55	1239
56	459
57	159
58	50
60	10
61	10
62	20
63	60
64	20
65	119
66	80
67	339
68	229
69	199
70	169
71	30
72	20
74	30
75	119
76	60
77	379
78	90
79	569
80	299
81	1829
82	849
83	189
84	70
85	20
86	10
87	10
88	10
89	30
90	10
91	99
92	40
93	139
94	299
95	579
96	159
97	50
98	20
99	20
100	20
101	159
102	119
103	139
104	60
105	119
106	99
107	119
108	369
109	209
110	269
111	169
112	30
113	20
114	20
115	129
116	40
117	40
118	10
119	20
120	60
121	179
122	499
123	179
124	399
125	60
126	259
127	60
128	309
129	359
130	869
131	109
132	20
133	10
134	109
135	90
136	9999
137	1149
138	1189
139	209
140	60
141	30
142	309
143	989
144	149
145	10
146	10
147	30
148	10
149	10
150	10
151	10
152	99
153	30
154	189
155	70
156	339
157	149
158	419
159	1659
160	199
161	10
164	10
165	10
166	119
167	179
168	229
169	169
170	189
171	169
172	179
173	40
178	10
179	10
180	60
181	70
182	90
183	109
184	229
185	109
186	60
187	10
189	20
191	10
192	20
193	20
194	30
195	50
196	70
197	80
198	40
199	70
200	10
201	10
204	30
205	20
206	30
207	20
208	40
209	50
210	90
211	70
212	40
213	70
214	10
217	10
218	20
219	30
220	30
221	50
222	50
223	60
224	50
225	40
226	10
227	50
228	10
233	10
234	20
235	60
236	40
237	90
238	70
239	139
240	40
241	10
247	10
248	10
249	50
250	30
251	40
252	20
253	579
254	99
255	60
256	10
261	10
263	40
264	20
265	99
266	50
267	159
268	30
269	10
272	10
273	10
274	20
275	20
276	40
277	129
278	60
279	80
280	20
281	20
291	10
292	70
293	159
294	2299
295	529
296	409
297	90
298	10
