Mass Spectrum: Benzoic acid, 3,4,5-trimethoxy-
Formula: C10 H12 O5
CAS: 118-41-2
Molecular weight: 212
Origin: AAFS Toxicology Section MS DB Committee, U. Alberta, Canada
m/z	RELATIVE INTENSITY
40	30
41	60
43	90
45	200
49	40
50	300
51	220
52	70
53	390
54	50
55	300
57	30
59	80
61	80
62	150
63	180
64	70
65	550
66	710
67	320
68	100
69	740
70	50
71	70
73	40
74	80
75	120
76	120
77	550
78	200
79	430
80	90
81	570
82	120
83	210
84	30
85	50
91	110
92	140
93	1391
94	250
95	480
96	160
97	120
98	290
99	70
102	30
103	30
104	30
105	60
106	90
107	300
108	300
109	650
110	470
111	1451
112	90
113	40
119	200
120	60
121	160
122	150
123	510
124	170
125	170
126	960
127	90
133	40
134	50
135	170
136	290
137	840
138	160
139	1341
140	100
141	3302
142	280
143	40
149	110
150	1131
152	1030
153	140
154	1881
155	160
156	30
164	50
165	150
167	250
168	50
169	1431
170	130
179	90
181	290
182	510
183	70
195	440
196	310
197	7957
198	780
199	110
212	9999
213	1201
214	160
