Mass Spectrum: Homosalate
Formula: C16 H22 O3
CAS: 118-56-9
Molecular weight: 262
Origin: NIST Mass Spectrometry Data Center, 1998.
m/z	RELATIVE INTENSITY
15	20
26	10
27	290
28	40
29	500
30	10
31	10
37	20
38	90
39	1400
40	180
41	3100
42	230
43	1130
44	60
45	30
46	10
50	60
51	130
52	60
53	860
54	130
55	3240
56	370
57	900
58	40
59	10
61	10
62	70
63	430
64	490
65	2280
66	260
67	1790
68	1600
69	7819
70	470
71	110
72	10
74	20
75	40
76	50
77	310
78	50
79	460
80	220
81	1830
82	2540
83	3120
84	210
85	30
89	10
90	10
91	280
92	1550
93	1440
94	190
95	1720
96	340
97	50
103	10
104	10
105	40
106	10
107	90
108	10
109	8299
110	750
111	30
120	7169
121	5209
122	430
123	230
124	4600
125	840
126	60
135	10
136	10
138	9999
139	2060
140	190
141	80
142	10
219	10
244	40
245	10
247	10
262	700
263	120
264	10
