Mass Spectrum: Hydroxychloroquine
Formula: C18 H26 Cl N3 O
CAS: 118-42-3
Molecular weight: 335
Origin: AAFS Toxicology Section MS DB Committee, U. Alberta, Canada
m/z	RELATIVE INTENSITY
39	110
41	740
42	810
43	400
44	360
45	500
51	70
54	110
55	260
56	790
57	290
58	1531
59	70
60	90
63	100
65	110
67	230
68	170
69	1060
70	400
71	440
72	860
73	170
74	340
75	160
76	70
77	70
80	80
81	120
82	190
83	110
84	1070
85	730
86	280
87	110
88	320
89	410
91	70
95	120
96	130
97	150
98	640
99	1231
100	650
101	210
102	8087
103	610
109	90
110	160
111	160
112	830
113	200
114	730
115	400
116	190
117	140
123	200
125	140
126	2462
127	820
128	650
129	260
130	110
135	560
136	130
137	210
138	220
139	70
140	190
141	180
142	360
143	260
144	160
147	120
149	80
150	440
151	140
152	590
153	330
154	120
155	950
156	1371
157	170
158	130
162	810
163	410
164	680
165	220
166	240
167	150
168	480
169	1151
170	940
171	130
177	230
178	440
179	2302
180	490
181	900
182	260
183	110
189	240
190	400
191	2121
192	430
193	990
194	210
195	400
196	90
198	170
202	120
203	690
204	200
205	1431
206	440
207	490
208	200
209	140
210	190
211	100
212	160
215	170
216	140
217	420
218	220
219	780
220	230
221	260
229	440
230	310
231	470
232	240
233	290
234	80
235	70
243	70
245	9999
246	1971
247	8417
248	1591
249	1731
250	330
259	80
276	250
278	120
281	10
290	210
292	100
304	3613
305	3503
306	1671
307	1231
308	240
335	180
