Mass Spectrum: 5-Chloro-2-nitrobenzotrifluoride
Formula: C7 H3 Cl F3 N O2
CAS: 118-83-2
Molecular weight: 225
Origin: Japan AIST/NIMC Database- Spectrum MS-NW-9893
m/z	RELATIVE INTENSITY
20	60
26	30
27	30
28	349
29	10
30	7049
31	259
32	10
35	20
36	129
37	269
38	259
39	70
43	20
44	20
45	10
46	179
47	40
48	20
49	159
50	739
51	269
52	30
53	10
55	30
56	80
57	239
58	10
60	80
61	279
62	359
63	469
64	60
65	50
67	99
68	189
69	1179
70	20
71	20
72	90
73	539
74	1739
75	2569
76	559
77	40
79	40
80	99
81	239
82	40
84	179
85	339
86	109
87	189
88	129
89	30
90	10
91	329
92	139
93	769
94	719
95	189
96	20
97	109
98	60
99	679
100	70
101	20
102	10
103	60
104	90
105	50
106	40
107	30
108	80
109	669
110	279
111	269
112	309
113	129
114	70
115	70
116	10
117	359
118	139
119	389
120	20
121	10
122	20
123	219
124	119
125	1179
126	119
127	10
128	60
129	1369
130	109
131	699
132	3139
133	239
134	10
135	40
137	10
138	30
139	10
140	20
141	40
142	20
143	2009
144	4129
145	339
146	20
147	639
148	159
149	219
150	50
153	99
155	30
157	30
158	30
159	669
160	159
161	229
162	50
166	50
167	3319
168	229
169	1069
170	70
173	10
175	40
176	40
177	30
178	50
179	9999
180	819
181	3219
182	259
183	10
193	10
195	5389
196	429
197	1759
198	129
199	10
206	419
207	30
208	139
209	349
210	30
211	109
212	10
225	6939
226	569
227	2239
228	179
229	10
