Mass Spectrum: Cholan-24-oic acid, 3,12-bis(acetyloxy)-, methyl ester, (3.alpha.,5.beta.,12.alpha.)-
Formula: C29 H46 O6
CAS: 1181-44-8
Molecular weight: 490
Origin: Div. of Experiment Therapeutics WRAIR, WRAMC, Washington DC 20307
m/z	RELATIVE INTENSITY
41	2294
43	9999
44	265
45	248
51	22
53	556
55	5338
56	138
57	864
59	797
61	458
65	223
67	2457
69	1426
71	412
73	882
74	917
77	613
79	1966
81	3813
83	1689
84	520
85	250
87	318
91	1490
93	2583
95	2689
96	92
97	593
98	32
99	264
100	26
101	26
103	91
105	1827
107	2573
108	744
109	1319
110	212
111	242
112	22
113	27
115	559
117	444
118	74
119	1180
120	133
121	1626
122	391
123	491
124	127
125	109
127	104
128	116
129	138
131	685
133	1033
134	208
135	764
136	147
137	222
139	72
141	250
143	352
145	1106
147	1653
149	857
150	68
151	140
152	22
154	1489
155	228
157	357
158	47
159	767
161	743
162	182
163	305
164	108
165	79
167	61
169	116
171	251
173	584
174	158
175	286
176	25
177	179
178	21
179	63
181	46
183	53
185	223
187	390
189	271
191	201
193	128
195	397
196	53
197	77
199	333
201	441
203	394
204	22
205	29
207	174
208	324
209	94
211	95
213	447
214	97
215	332
216	163
217	237
218	24
219	65
221	124
225	90
227	173
228	179
229	365
231	340
232	98
234	33
239	52
241	94
242	48
243	68
247	50
249	23
253	136
254	197
255	4608
256	968
257	127
259	22
260	109
261	317
262	29
263	70
271	22
273	169
274	91
275	67
283	201
284	104
289	91
297	174
302	22
313	81
314	139
315	1257
316	336
318	24
323	27
330	22
339	29
341	78
355	288
356	85
357	408
358	32
359	276
360	86
369	21
370	1580
371	443
372	92
373	42
388	213
389	69
430	116
