Mass Spectrum: Cholan-24-oic acid, 3,6-bis(acetyloxy)-, methyl ester, (3.alpha.,5.beta.,6.alpha.)-
Formula: C29 H46 O6
CAS: 1181-65-3
Molecular weight: 490
Origin: P.A. SZCZEPANIK, ARGONNE NATIONAL LABORATORY, USA
m/z	RELATIVE INTENSITY
100	290
101	280
102	680
103	650
104	9999
105	4220
106	6750
107	1870
108	3860
109	780
110	720
111	210
112	250
113	120
114	3700
115	710
116	3640
117	2570
119	4890
120	4440
122	1440
123	1800
124	450
125	580
127	1640
128	2470
129	1110
130	5730
131	1110
133	3940
134	1190
135	3300
136	610
137	730
138	230
139	270
141	1500
142	1020
143	3450
144	1410
145	6150
146	1740
147	5940
148	1600
149	1680
150	430
151	430
152	250
153	360
154	410
155	1410
156	720
157	2470
158	1790
159	4400
160	2570
161	2850
162	680
163	1100
164	250
165	600
166	170
167	650
168	340
169	980
170	380
171	1770
172	970
173	2040
174	1230
175	1520
176	470
177	1020
178	310
179	390
180	180
181	500
182	180
183	730
184	340
185	1640
186	870
187	810
188	250
189	870
190	310
191	330
192	220
193	560
194	300
195	980
196	400
197	1290
198	360
199	2050
200	770
201	2060
202	560
203	310
204	210
205	220
206	160
207	1100
208	1040
209	1210
210	240
211	900
212	470
213	4270
214	1230
215	1140
216	370
217	1160
219	230
220	180
221	600
223	300
224	170
226	350
227	290
229	740
231	1350
232	900
233	380
234	90
235	220
236	230
237	170
240	350
241	310
242	230
243	180
244	160
245	160
246	590
247	560
248	2990
249	930
250	670
252	640
255	3720
256	1120
257	360
262	900
263	320
264	420
267	530
269	630
270	240
271	140
274	140
275	190
277	170
278	90
281	690
282	260
283	490
284	190
286	80
287	120
289	150
290	90
292	330
293	90
294	140
295	190
299	140
301	190
303	140
305	260
307	100
308	70
310	170
314	230
315	380
316	810
319	100
321	330
322	480
325	90
329	240
330	70
335	60
336	60
341	470
342	300
344	110
349	40
351	110
355	2600
358	110
360	70
361	80
363	80
370	4130
373	50
382	100
383	50
385	60
388	40
392	90
399	70
401	120
402	40
403	60
414	70
416	30
429	100
474	40
477	60
