Mass Spectrum: Cholesteryl normal-heptylate
Formula: C34 H58 O2
CAS: 1182-07-6
Molecular weight: 498
Origin: Organic Synthesis Lab, MSU, Moscow.TRC 653
m/z	RELATIVE INTENSITY
29	300
39	40
41	781
42	50
43	2823
44	40
53	40
55	1061
56	80
57	1181
60	140
67	621
68	40
69	781
70	50
71	470
73	40
77	70
79	500
80	40
81	1531
82	100
83	440
85	230
91	550
92	130
93	841
94	190
95	1111
96	60
97	210
105	901
106	310
107	1021
108	320
109	591
110	30
111	100
113	200
117	230
118	160
119	601
120	671
121	751
122	130
123	220
129	100
130	40
131	490
132	110
133	701
134	160
135	490
136	60
137	70
143	400
144	140
145	1191
146	400
147	1641
148	320
149	310
151	40
157	200
158	200
159	591
160	420
161	480
162	90
163	170
171	90
172	20
173	200
174	60
175	110
177	30
185	100
187	50
191	20
193	40
199	130
200	50
201	90
205	150
206	120
213	530
214	120
215	80
227	30
228	100
229	60
245	70
246	80
247	991
248	180
255	721
256	120
259	70
260	851
261	230
274	40
283	40
326	110
353	1111
354	290
366	70
367	80
368	9999
369	3253
370	500
