Mass Spectrum: 2-Fluoropropene
Formula: C3 H5 F
CAS: 1184-60-7
Molecular weight: 60
m/z	RELATIVE INTENSITY
12	40
13	60
14	130
15	170
16	10
19	140
20	90
24	30
25	80
26	340
27	1361
28	70
29	30
31	701
32	130
33	1601
34	20
35	10
36	230
37	701
38	811
39	3553
40	711
41	330
42	10
43	30
44	320
45	1331
46	80
55	40
56	190
57	1371
58	380
59	9999
60	5755
61	180
