Mass Spectrum: Silane, trimethoxymethyl-
Formula: C4 H12 O3 Si
CAS: 1185-55-3
Molecular weight: 136
Origin: Japan AIST/NIMC Database- Spectrum MS-NW-4214
m/z	RELATIVE INTENSITY
14	20
15	269
27	10
28	119
29	159
30	20
31	179
32	20
42	20
43	99
44	20
45	339
46	30
47	80
58	30
59	989
60	209
61	619
62	40
63	30
67	119
74	289
75	1439
76	129
77	99
89	30
90	159
91	3919
92	299
93	149
98	10
104	90
105	1349
106	119
107	60
119	20
120	20
121	9999
122	859
123	429
124	10
135	80
136	80
137	10
