Mass Spectrum: Phosphorothioic acid, O,O,S-triethyl ester
Formula: C6 H15 O3 P S
CAS: 1186-09-0
Molecular weight: 198
Origin: Dennis Rohrbaugh, CBDCOM/ERDEC, Edgewood, MD
m/z	RELATIVE INTENSITY
27	4451
29	4725
35	2507
45	4082
60	4680
61	4670
62	9989
65	5901
75	882
81	9999
82	7476
83	5408
91	4934
93	7471
97	6968
109	7955
110	5971
111	5971
112	194
113	697
114	687
115	1295
125	2766
126	2970
137	692
138	2955
139	902
141	892
142	2003
143	697
153	1291
154	2492
169	1291
170	3972
198	4984
