Mass Spectrum: 1-Hepten-4-ol, 4-methyl-
Formula: C8 H16 O
CAS: 1186-31-8
Molecular weight: 128
Origin: NIST Mass Spectrometry Data Center, 1990.
m/z	RELATIVE INTENSITY
14	150
27	1021
28	189
29	796
31	385
39	2310
40	542
41	3607
43	9627
45	9369
46	226
51	246
53	573
54	143
55	712
56	148
57	545
58	347
59	193
65	244
66	145
67	1099
68	359
69	2734
70	292
71	1824
77	260
79	397
81	456
82	143
85	2090
87	9999
88	535
95	766
110	285
