Mass Spectrum: Pentane, 2,2,3,4-tetramethyl-
Formula: C9 H20
CAS: 1186-53-4
Molecular weight: 128
m/z	RELATIVE INTENSITY
26	30
27	1391
28	220
29	1922
30	40
38	20
39	881
40	140
41	3463
42	380
43	6316
44	210
45	10
46	10
47	10
48	10
50	10
51	40
52	20
53	230
54	60
55	1111
56	5645
57	9999
58	430
59	10
63	10
64	10
65	20
66	10
67	70
68	20
69	430
70	1391
71	1481
72	80
73	10
77	20
78	10
79	20
80	10
81	20
82	10
83	30
84	200
85	1191
86	80
87	10
91	10
93	10
95	10
97	50
98	10
99	10
112	10
113	90
114	10
128	10
