Mass Spectrum: Propanamide, N-methyl-
Formula: C4 H9 N O
CAS: 1187-58-2
Molecular weight: 87
Origin: Japan AIST/NIMC Database- Spectrum MS-NW-2881
m/z	RELATIVE INTENSITY
13	10
14	50
15	969
16	10
25	30
26	299
27	1169
28	1389
29	4399
30	1759
31	239
32	939
33	10
37	20
38	20
39	40
40	20
41	60
42	159
43	90
44	349
45	10
51	10
52	20
53	40
54	50
55	469
56	979
57	3399
58	9999
59	539
60	40
68	50
69	10
70	20
72	50
73	10
84	10
86	559
87	6539
88	329
89	20
