Mass Spectrum: S-Methyl-L-cysteine
Formula: C4 H9 N O2 S
CAS: 1187-84-4
Molecular weight: 135
Origin: Japan AIST/NIMC Database- Spectrum MS-NW-4973
m/z	RELATIVE INTENSITY
12	10
13	20
14	109
15	779
16	30
17	109
18	389
25	10
26	80
27	889
28	3159
29	259
30	1199
31	30
32	40
33	30
34	50
35	1109
36	10
37	50
38	20
39	50
40	149
41	539
42	1999
43	3609
44	899
45	1079
46	1049
47	1179
48	369
49	99
50	10
53	10
54	10
55	90
56	159
57	149
58	149
59	159
60	119
61	9999
62	7159
63	649
64	339
65	10
68	10
69	30
70	99
71	40
72	60
73	239
74	5829
75	849
76	80
77	40
85	20
87	1169
88	129
89	119
90	3769
91	179
92	169
100	30
101	20
103	109
105	20
116	10
118	389
119	30
120	20
135	3019
136	199
137	159
138	10
