Mass Spectrum: N-dl-Alanylglycine
Formula: C5 H10 N2 O3
CAS: 1188-01-8
Molecular weight: 146
Origin: Japan AIST/NIMC Database- Spectrum MS-NW- 480
m/z	RELATIVE INTENSITY
14	10
15	99
16	10
17	60
18	679
26	30
27	149
28	489
29	169
30	539
31	60
32	10
36	10
39	30
40	60
41	159
42	479
43	269
44	9999
45	299
53	10
54	20
55	109
56	199
57	139
58	30
59	10
60	40
67	30
68	20
69	60
70	30
71	30
73	40
74	40
76	20
81	30
82	30
83	40
84	30
85	369
86	30
95	20
96	20
97	30
98	30
99	20
100	10
101	30
102	10
109	10
111	20
112	10
113	30
123	10
128	60
129	10
131	10
146	10
