Mass Spectrum: Trisiloxane, 1,1,3,3,5,5-hexamethyl-
Formula: C6 H20 O2 Si3
CAS: 1189-93-1
Molecular weight: 208
Origin: RADIAN CORP
m/z	RELATIVE INTENSITY
15	60
27	30
29	70
31	140
42	40
43	350
44	80
45	930
46	60
47	120
51	20
52	40
55	30
57	100
58	140
59	1870
60	180
61	230
66	100
67	30
71	80
72	110
73	8890
74	920
75	920
76	60
77	30
80	60
81	290
85	20
86	30
87	230
88	220
89	480
91	30
96	350
101	100
102	60
103	710
104	100
105	200
115	250
116	60
117	420
118	90
119	840
120	120
121	60
131	380
132	60
133	2590
134	380
135	220
145	30
147	180
148	20
149	40
159	10
161	140
162	20
163	120
175	230
176	50
177	650
178	120
189	130
190	20
191	690
192	20
193	9999
194	2150
195	1230
196	180
197	40
205	50
207	1570
208	350
209	200
210	20
