Mass Spectrum: Phosphonofluoridic acid, ethyl-, isopropyl ester
Formula: C5 H12 F O2 P
CAS: 1189-87-3
Molecular weight: 154
Origin: VERIFIN - Methodology B1-1979
m/z	RELATIVE INTENSITY
27	300
28	200
29	400
32	50
39	400
40	60
41	600
42	400
43	800
44	60
45	80
59	200
65	100
67	200
84	600
85	400
93	100
95	200
111	300
112	300
113	9999
114	200
139	3503
140	100
153	20
