Mass Spectrum: Acetic acid, [2-[(2-propenylamino)carbonyl]phenoxy]-
Formula: C12 H13 N O4
CAS: 119-45-9
Molecular weight: 235
Origin: Japan AIST/NIMC Database- Spectrum MS-IW-5575
m/z	RELATIVE INTENSITY
14	10
17	90
18	399
26	20
27	70
28	269
29	40
30	30
31	30
37	10
38	40
39	179
40	40
41	219
42	50
43	20
44	90
45	10
50	109
51	70
52	30
53	40
54	20
55	40
56	179
57	40
58	10
59	10
62	20
63	109
64	209
65	179
66	20
67	50
74	30
75	90
76	239
77	199
78	40
79	30
80	10
81	40
82	10
83	10
87	99
88	10
90	20
91	50
92	369
93	279
94	30
95	50
102	50
103	99
104	159
105	149
106	40
107	80
108	10
109	109
115	30
116	10
117	20
118	10
119	259
120	109
121	2149
122	159
123	10
130	40
131	40
132	80
133	129
134	30
135	40
145	20
146	10
147	10
148	10
149	10
150	10
151	70
152	20
158	10
159	40
160	40
161	30
176	10
177	60
178	60
179	9999
180	999
181	119
182	10
190	50
191	20
192	10
193	30
220	20
234	20
235	759
236	99
237	20
