Mass Spectrum: Phenol, 2,2'-methylenebis[6-(1,1-dimethylethyl)-4-methyl-
Formula: C23 H32 O2
CAS: 119-47-1
Molecular weight: 340
Origin: NIST Mass Spectrometry Data Center, 1994
m/z	RELATIVE INTENSITY
12	35
15	142
16	41
27	109
28	137
29	1270
39	659
41	3656
42	150
43	541
51	204
52	85
53	469
54	85
55	671
56	85
57	2995
58	127
63	85
65	461
66	76
67	288
69	212
73	28
76	91
77	1143
78	321
79	694
80	99
81	94
83	86
84	34
89	220
91	2217
92	324
93	465
94	66
95	93
96	56
97	65
98	48
99	49
101	90
102	121
103	420
104	273
105	2066
106	342
107	453
108	387
109	200
111	106
112	103
113	54
114	48
115	958
116	410
117	767
118	488
119	1368
120	54
121	3170
122	398
123	102
125	47
127	2806
128	769
129	498
130	200
131	555
132	253
133	1874
134	475
135	720
136	138
137	694
138	59
139	65
140	47
141	1342
143	140
145	517
146	322
147	553
148	59
149	5093
150	588
151	84
152	178
153	141
154	59
155	1175
157	58
159	309
161	7585
162	1083
164	5677
165	961
166	147
167	66
169	52
170	77
173	55
175	380
177	9999
178	1516
179	239
180	74
181	110
182	52
183	36
185	50
189	107
190	72
191	129
192	76
193	71
194	43
195	110
196	38
197	57
201	45
202	105
203	91
204	45
205	69
206	48
207	57
208	52
209	107
211	47
213	46
215	69
216	48
217	52
219	48
220	41
221	49
222	46
223	62
225	44
227	182
228	368
229	88
235	55
241	31
265	100
267	89
269	413
270	80
281	83
283	406
284	1699
285	362
286	45
325	122
340	4748
341	1244
342	188
