Mass Spectrum: Benzenamine, 2-nitro-N-phenyl-
Formula: C12 H10 N2 O2
CAS: 119-75-5
Molecular weight: 214
Origin: NIST Mass Spectrometry Data Center, 1998.
m/z	RELATIVE INTENSITY
26	20
27	110
29	10
30	200
37	60
38	190
39	640
40	50
41	50
42	10
46	50
49	20
50	740
51	2140
52	480
53	150
54	30
55	40
57	40
61	60
62	220
63	840
64	520
65	480
66	160
67	20
68	20
69	200
70	220
72	20
73	30
74	290
75	310
76	360
77	2240
78	350
79	70
80	40
81	90
82	140
83	790
86	40
87	90
88	130
89	300
90	380
91	260
92	180
93	40
94	100
95	10
98	30
99	30
100	30
101	100
102	150
103	140
104	80
105	70
106	70
107	30
108	10
109	10
110	10
112	20
113	230
114	260
115	650
116	170
117	130
118	220
119	70
120	10
121	10
122	10
125	20
126	80
127	250
128	470
129	460
130	170
131	170
132	320
133	40
134	40
135	10
137	40
138	110
139	1690
140	1250
141	300
142	60
143	90
144	30
145	30
146	10
147	20
148	10
150	10
151	30
152	110
153	120
154	430
155	210
156	330
157	610
158	80
159	30
160	180
161	20
164	150
165	140
166	2810
167	9999
168	2990
169	3220
170	410
171	50
179	510
180	2910
181	1120
182	190
183	310
184	130
185	200
186	30
195	30
196	90
197	1190
198	170
199	10
212	10
214	8399
215	1200
216	110
217	10
