Mass Spectrum: Ethanone, 2-hydroxy-1,2-bis(4-methoxyphenyl)-
Formula: C16 H16 O4
CAS: 119-52-8
Molecular weight: 272
Origin: Japan AIST/NIMC Database- Spectrum MS-NW-7099
m/z	RELATIVE INTENSITY
15	30
27	30
28	20
29	40
31	20
38	70
39	189
40	50
41	50
43	10
50	119
51	189
52	40
53	60
55	20
62	40
63	239
64	369
65	219
66	299
67	20
68	10
74	30
75	40
76	109
77	1589
78	219
79	159
80	10
81	20
87	10
89	20
90	10
91	50
92	699
93	90
94	689
95	50
104	20
105	40
106	30
107	499
108	109
109	1209
110	90
115	20
119	20
120	20
121	80
122	30
127	10
133	10
135	6019
136	849
137	9999
138	879
139	90
140	10
141	20
151	10
152	30
153	10
168	10
169	10
195	10
211	10
212	10
223	10
225	10
227	40
228	10
238	30
239	20
240	10
243	10
254	20
255	30
256	50
257	10
270	20
272	319
273	60
274	10
