Mass Spectrum: Disperse Yellow 1
Formula: C12 H9 N3 O5
CAS: 119-15-3
Molecular weight: 275
Origin: NIST Mass Spectrometry Data Center, 1998.
m/z	RELATIVE INTENSITY
26	40
27	150
29	80
30	430
37	60
38	260
39	1150
40	90
41	70
42	30
43	40
46	110
50	420
51	780
52	690
53	620
54	150
55	230
61	100
62	440
63	1760
64	660
65	1350
66	230
67	60
68	50
69	80
70	40
72	40
73	30
74	510
75	690
76	460
77	1060
78	440
79	230
80	200
81	300
82	80
83	20
85	70
86	30
87	130
88	150
89	300
90	180
91	290
92	110
93	420
94	140
95	50
97	80
98	100
99	140
100	140
101	580
102	530
103	250
104	130
105	160
106	80
107	110
108	120
109	540
110	70
113	120
114	200
115	530
116	210
117	100
118	130
119	390
120	170
121	50
122	50
123	30
125	180
126	890
127	2310
128	1340
129	580
130	180
131	130
132	80
133	130
134	60
135	40
137	260
139	260
140	390
141	230
142	180
143	140
144	480
145	180
146	60
150	50
151	40
152	430
153	860
154	4100
155	1360
156	420
157	90
158	90
159	60
160	50
164	200
165	130
166	170
167	230
168	120
169	260
170	1180
171	430
172	140
176	80
180	80
181	320
182	3430
183	2590
184	690
185	80
186	50
195	1180
196	400
197	140
198	670
199	190
200	70
211	270
212	590
213	110
214	50
215	20
216	140
227	60
228	1970
229	750
230	130
241	620
242	160
243	20
244	20
245	420
246	50
258	130
259	60
274	90
275	9999
276	1440
277	200
