Mass Spectrum: Acetamide, N-(4-methoxy-2-nitrophenyl)-
Formula: C9 H10 N2 O4
CAS: 119-81-3
Molecular weight: 210
Origin: Japan AIST/NIMC Database- Spectrum MS-IW-3022
m/z	RELATIVE INTENSITY
14	70
15	389
16	10
26	80
27	90
28	139
29	80
30	119
31	149
37	50
38	109
39	279
40	80
41	159
42	189
43	3989
44	129
45	80
46	30
49	10
50	199
51	529
52	909
53	339
54	149
55	60
56	20
58	10
59	10
61	70
62	199
63	429
64	229
65	349
66	179
67	169
68	109
69	60
70	20
73	10
74	50
75	60
76	119
77	409
78	279
79	949
80	399
81	50
82	50
87	10
88	30
89	40
90	219
91	189
92	279
93	119
94	80
95	809
96	70
97	10
98	10
99	10
103	20
104	109
105	60
106	669
107	1169
108	169
109	80
110	339
111	20
118	10
119	30
120	159
121	109
122	3999
123	359
124	30
125	10
132	10
133	40
134	139
135	30
136	30
137	90
138	109
139	10
141	30
143	10
147	60
148	40
149	109
150	30
151	149
152	129
153	2869
154	209
155	20
162	60
163	50
164	559
165	60
166	10
167	40
168	9999
169	869
170	90
171	20
178	10
180	10
181	20
194	10
210	2209
211	239
212	30
