Mass Spectrum: 1,3-Propanediol, 2-amino-1-(4-nitrophenyl)-
Formula: C9 H12 N2 O4
CAS: 119-62-0
Molecular weight: 212
Origin: K. Kirk, LC, NIDDK, NIH, Bethesda, MD 20892
m/z	RELATIVE INTENSITY
42	1590
43	426
51	261
60	9999
61	264
66	86
77	538
78	437
89	175
90	81
105	358
106	618
117	535
118	79
135	70
136	848
153	544
154	132
181	694
182	291
212	89
