Mass Spectrum: Benzoin
Formula: C14 H12 O2
CAS: 119-53-9
Molecular weight: 212
Origin: NIST Mass Spectrometry Data Center, 1998.
m/z	RELATIVE INTENSITY
26	10
27	110
29	100
37	10
38	50
39	250
40	20
49	20
50	600
51	2080
52	320
53	210
54	10
55	20
61	20
62	90
63	210
64	40
65	40
66	10
69	10
73	20
74	170
75	130
76	220
77	6559
78	960
79	3890
80	260
81	10
82	10
85	10
86	20
87	30
88	10
89	150
90	80
91	20
98	10
99	10
101	10
102	10
103	10
105	9999
106	1110
107	5979
108	470
109	30
110	10
113	10
115	40
118	10
126	20
127	10
128	20
133	10
139	30
150	10
151	20
152	80
153	30
154	10
155	10
163	20
164	30
165	140
166	30
167	30
176	10
178	30
181	10
194	40
195	20
196	10
210	20
212	90
213	10
