Mass Spectrum: Bis(tridecyl) phthalate
Formula: C34 H58 O4
CAS: 119-06-2
Molecular weight: 530
Origin: RADIAN CORP
m/z	RELATIVE INTENSITY
14	30
18	80
27	190
28	940
29	710
32	160
36	250
39	220
40	40
41	2340
42	560
43	4450
44	470
49	100
51	70
53	30
54	20
55	3420
56	1170
57	6650
58	340
67	420
68	280
69	3170
70	1400
71	4370
72	220
76	190
77	290
81	390
82	280
83	1710
84	850
85	2890
86	210
95	270
96	110
97	1150
98	480
99	1650
104	270
105	100
111	630
112	290
113	1360
125	270
126	70
127	750
139	20
149	9999
150	1150
151	10
167	2750
168	330
169	170
183	350
335	170
349	600
350	20
446	20
