Mass Spectrum: 1-Dimethylamino-2-nitroethylene
Formula: C4 H8 N2 O2
CAS: 1190-92-7
Molecular weight: 116
Origin: NIST Mass Spectrometry Data Center, 1994
m/z	RELATIVE INTENSITY
13	95
15	1265
18	290
26	561
27	118
28	961
30	2506
38	203
39	496
40	647
41	1496
42	9999
43	1671
44	1025
46	434
51	176
52	491
53	243
54	1014
55	3174
56	463
57	378
58	744
68	1688
69	2412
70	602
71	710
83	440
84	227
85	432
86	313
87	1025
99	454
100	142
116	2478
117	194
