Mass Spectrum: 2-Buten-1-ol, 3-methyl-, acetate
Formula: C7 H12 O2
CAS: 1191-16-8
Molecular weight: 128
Origin: NIST Mass Spectrometry Data Center
m/z	RELATIVE INTENSITY
14	50
15	290
16	10
25	10
26	90
27	1001
28	250
29	1001
30	30
31	60
37	60
38	180
39	2122
40	881
41	5345
42	881
43	9178
44	280
45	130
49	20
50	220
51	380
52	200
53	2833
54	320
55	450
56	200
57	921
58	90
59	20
60	20
61	160
62	40
63	70
64	10
65	270
66	240
67	8107
68	9999
69	4414
70	250
71	3303
72	140
73	30
81	10
82	10
83	280
84	100
85	1401
86	2392
87	130
88	10
95	10
99	20
100	10
113	80
128	280
129	20
