Mass Spectrum: Cyclopropane, ethyl-
Formula: C5 H10
CAS: 1191-96-4
Molecular weight: 70
m/z	RELATIVE INTENSITY
12	40
13	60
14	200
15	771
16	20
24	10
25	40
26	581
27	2933
28	540
29	2022
30	40
31	90
32	40
33	20
36	30
37	300
38	621
39	3803
40	911
41	4234
42	9999
43	380
44	10
48	10
49	60
50	290
51	330
52	110
53	631
54	200
55	5025
56	230
57	10
60	10
61	50
62	60
63	70
64	10
65	50
66	20
67	100
68	10
69	100
70	2813
71	150
72	10
