Mass Spectrum: 9,12,15-Octadecatrienoic acid, ethyl ester, (Z,Z,Z)-
Formula: C20 H34 O2
CAS: 1191-41-9
Molecular weight: 306
Origin: Japan AIST/NIMC Database- Spectrum MS-IW-2592
m/z	RELATIVE INTENSITY
14	10
15	20
16	10
26	60
27	899
28	179
29	2569
30	60
31	90
32	20
34	10
37	10
38	20
39	1089
40	209
41	5909
42	499
43	2149
44	90
45	439
46	10
47	10
50	40
51	179
52	149
53	1139
54	1279
55	5569
56	389
57	849
58	60
59	179
60	499
61	299
62	20
63	60
64	30
65	699
66	1109
67	7939
68	1879
69	2649
70	349
71	429
72	30
73	599
74	80
75	30
76	10
77	1989
78	1519
79	9999
80	5599
81	6189
82	1569
83	1289
84	259
85	329
86	30
87	199
88	999
89	129
90	10
91	2699
92	739
93	6349
94	3669
95	8629
96	1409
97	899
98	229
99	209
100	20
101	1849
102	169
103	129
104	109
105	1149
106	539
107	3439
108	6579
109	2359
110	449
111	409
112	70
113	119
114	20
115	479
116	70
117	359
118	99
119	1009
120	439
121	3069
122	1949
123	859
124	159
125	199
126	30
127	99
128	60
129	319
130	70
131	399
132	99
133	589
134	289
135	2289
136	1479
137	419
138	80
139	129
140	20
141	90
142	40
143	359
144	60
145	249
146	60
147	509
148	199
149	1899
150	859
151	209
152	40
153	60
154	40
155	129
156	20
157	249
158	50
159	169
160	60
161	269
162	199
163	789
164	499
165	149
166	30
167	40
168	50
169	50
170	10
171	109
172	30
173	569
174	90
175	229
176	90
177	269
178	269
179	70
180	20
181	50
182	50
183	30
185	90
186	30
187	70
188	20
189	129
190	50
191	559
192	199
193	60
194	20
195	70
196	30
197	20
199	60
200	10
201	20
203	99
204	109
205	70
206	70
207	40
208	20
209	40
210	30
211	10
213	40
214	10
215	10
216	10
217	109
218	50
219	30
220	10
221	70
222	30
223	40
224	40
225	10
227	20
228	10
230	10
231	80
232	60
233	20
234	10
235	50
236	60
237	259
238	99
239	20
241	10
243	60
244	10
245	20
249	80
250	669
251	159
252	60
258	10
259	30
260	50
261	849
262	179
263	179
264	70
265	40
277	309
278	80
279	10
291	10
304	30
306	1569
307	339
308	50
