Mass Spectrum: 2-Hexenoic acid
Formula: C6 H10 O2
CAS: 1191-04-4
Molecular weight: 114
Origin: RADIAN CORP
m/z	RELATIVE INTENSITY
15	50
18	60
25	20
26	350
27	2840
28	700
29	3100
30	90
31	330
32	160
33	20
36	10
37	140
38	630
39	4760
40	1490
41	5180
42	5230
43	1870
44	350
45	1670
46	30
47	40
49	40
50	320
51	490
52	190
53	1320
54	440
55	4460
56	560
57	1010
58	420
59	720
60	1330
61	90
62	100
63	150
64	20
65	240
66	140
67	790
68	3620
69	1740
70	140
71	740
72	120
73	9999
74	390
75	70
76	10
77	30
79	10
81	930
82	60
83	40
84	20
85	250
86	500
87	30
95	190
96	770
97	470
98	20
99	3020
100	170
101	10
113	60
114	750
115	70
