Mass Spectrum: 1,6-Hexanedithiol
Formula: C6 H14 S2
CAS: 1191-43-1
Molecular weight: 150
Origin: Japan AIST/NIMC Database- Spectrum MS-NW-3799
m/z	RELATIVE INTENSITY
14	60
15	10
17	20
18	109
26	129
27	1809
28	219
29	1129
30	20
32	80
33	119
34	219
35	559
36	20
37	40
38	80
39	1449
40	219
41	6079
42	809
43	729
44	149
45	1369
46	859
47	5079
48	189
49	239
50	60
51	99
52	40
53	549
54	3129
55	6479
56	569
57	239
58	209
59	559
60	2689
61	2759
62	239
63	139
64	20
65	80
66	50
67	4229
68	489
69	1489
70	269
71	90
72	60
73	859
74	489
75	389
76	80
77	40
78	10
79	119
80	30
81	549
82	2699
83	2629
84	199
85	99
86	109
87	9999
88	999
89	579
90	60
91	10
93	10
95	30
96	10
97	10
99	20
101	1039
102	70
103	109
104	10
109	10
110	10
113	10
114	10
115	189
116	4179
117	629
118	239
119	30
129	20
130	10
131	10
143	10
148	80
149	10
150	719
151	60
152	70
