Mass Spectrum: Cyclobutanone
Formula: C4 H6 O
CAS: 1191-95-3
Molecular weight: 70
Origin: NIST Mass Spectrometry Data Center, 1990.
m/z	RELATIVE INTENSITY
12	43
13	118
14	470
15	210
16	5
18	2
24	26
25	130
26	714
27	1065
28	458
29	124
30	5
33	6
34	5
35	9
36	76
37	358
38	476
39	1331
40	397
41	1561
42	9999
43	525
44	49
48	17
49	80
50	143
51	56
52	16
53	60
55	46
56	3
70	2363
71	119
72	7
