Mass Spectrum: Oxirane, 3-ethyl-2,2-dimethyl-
Formula: C6 H12 O
CAS: 1192-22-9
Molecular weight: 100
Origin: SHELL RESEARCH LIMITED THORNTON RESEARCH CENTRE
m/z	RELATIVE INTENSITY
26	351
27	2007
28	612
29	2448
30	459
31	3897
37	207
38	378
39	2430
40	1269
41	7542
42	5958
43	5922
44	288
45	153
53	234
54	144
55	306
56	144
57	2700
58	6336
59	9999
60	720
67	225
69	288
70	117
71	729
72	207
85	2187
86	180
99	126
100	225
