Mass Spectrum: Cyclohexane, methylene-
Formula: C7 H12
CAS: 1192-37-6
Molecular weight: 96
Origin: Japan AIST/NIMC Database- Spectrum MS-NW-3425
m/z	RELATIVE INTENSITY
14	10
15	129
16	10
26	219
27	1739
28	299
29	799
30	20
37	119
38	309
39	3499
40	939
41	2359
42	449
43	80
44	30
45	30
46	50
47	10
49	40
50	299
51	559
52	319
53	2149
54	4699
55	4109
56	309
57	30
61	60
62	99
63	189
64	40
65	489
66	669
67	7439
68	5299
69	319
70	20
74	30
75	10
76	10
77	479
78	119
79	1029
80	189
81	9999
82	659
83	129
84	10
91	169
92	30
93	109
94	20
95	849
96	4629
97	369
98	10
