Mass Spectrum: Cyclopentane, 1,2-dimethyl-, cis-
Formula: C7 H14
CAS: 1192-18-3
Molecular weight: 98
Origin: NIST Mass Spectrometry Data Center, 1990.
m/z	RELATIVE INTENSITY
15	645
26	484
27	3238
28	1109
29	1836
38	378
39	4412
40	961
41	7857
42	3151
43	920
50	343
51	586
52	278
53	1153
54	902
55	8429
56	8998
57	1175
63	137
65	258
66	122
67	511
68	540
69	3391
70	9999
71	555
77	213
79	249
81	156
83	1625
84	119
98	1380
99	111
