Mass Spectrum: 5-Diazo-1,3-cyclopentadiene
Formula: C5 H4 N2
CAS: 1192-27-4
Molecular weight: 92
Origin: A.A.Kutin, Moscow, Russia
m/z	RELATIVE INTENSITY
26	240
28	430
31	410
32	370
37	960
38	2330
39	210
46	740
50	220
60	260
61	890
62	1350
63	8900
64	3680
92	9999
93	600
