Mass Spectrum: 1H-Pyrrole-2-carboxaldehyde, 1-methyl-
Formula: C6 H7 N O
CAS: 1192-58-1
Molecular weight: 109
Origin: Japan AIST/NIMC Database- Spectrum MS-IW-1183
m/z	RELATIVE INTENSITY
14	10
15	189
25	20
26	129
27	519
28	399
29	159
30	30
31	10
36	10
37	209
38	439
39	1989
40	209
41	239
42	509
43	50
44	119
45	20
48	10
49	99
50	369
51	499
52	479
53	3639
54	409
55	239
56	20
61	20
62	30
63	80
64	199
65	149
66	109
67	109
68	20
72	60
73	10
75	30
76	40
77	20
78	689
79	209
80	3199
81	319
82	40
87	50
91	20
92	40
93	30
94	30
106	189
107	30
108	8439
109	9999
110	719
111	40
