Mass Spectrum: 2,5-Dihydro-3-methyl-thiophene 1,1-dioxide
Formula: C5 H8 O2 S
CAS: 1193-10-8
Molecular weight: 132
Origin: Albert Lebedev, Moscow State University, Russia
m/z	RELATIVE INTENSITY
37	150
38	450
39	3530
40	2490
41	2200
42	1150
43	110
44	120
45	200
48	380
49	10
50	370
51	540
52	260
53	4530
54	180
63	120
64	690
65	330
66	210
67	4380
68	9999
69	530
70	10
132	340
133	20
134	20
