Mass Spectrum: 1,3-Cyclohexanedione, 2-methyl-
Formula: C7 H10 O2
CAS: 1193-55-1
Molecular weight: 126
Origin: Japan AIST/NIMC Database- Spectrum MS-NW-7241
m/z	RELATIVE INTENSITY
13	20
15	319
17	29
25	60
26	669
27	3409
28	3299
29	529
30	20
31	179
32	70
34	70
35	159
36	20
37	169
38	329
39	2179
40	519
41	1859
42	4489
43	1659
44	119
45	50
47	80
48	99
49	109
50	199
51	309
52	169
53	569
54	249
55	9999
56	4089
57	749
58	40
60	10
61	50
62	60
63	60
64	20
65	90
66	60
67	99
68	129
69	729
70	6579
71	809
72	60
73	30
74	30
75	10
76	20
77	109
78	30
79	139
80	109
81	70
82	30
83	3469
84	319
85	219
86	10
91	10
93	10
94	10
95	60
96	30
97	1399
98	6749
99	419
100	50
107	20
108	20
109	30
110	10
111	129
112	20
124	10
125	60
126	6859
127	599
128	50
