Mass Spectrum: 3,3-Dimethylpiperidine
Formula: C7 H15 N
CAS: 1193-12-0
Molecular weight: 113
Origin: Chuck Anderson, Aldrich Chemical Co.
m/z	RELATIVE INTENSITY
15	91
18	24
26	59
27	671
28	1032
29	1063
30	2086
31	35
32	6
38	48
39	847
40	173
41	1528
42	785
43	888
44	9999
45	277
47	30
48	15
50	30
51	67
52	39
53	189
54	118
55	609
56	1797
57	2437
58	113
65	47
66	6
67	205
68	158
69	197
70	1022
71	184
72	21
77	23
79	40
80	85
81	87
82	178
83	100
84	307
85	77
94	32
95	39
96	111
97	35
98	883
99	54
112	552
113	2375
114	200
