Mass Spectrum: Pyrimidine, 4,6-dichloro-
Formula: C4 H2 Cl2 N2
CAS: 1193-21-1
Molecular weight: 148
Origin: NIST Mass Spectrometry Data Center
m/z	RELATIVE INTENSITY
12	150
13	90
14	10
16	80
18	10
24	210
25	571
26	20
28	2372
32	480
35	971
36	310
37	500
38	861
39	520
40	40
47	761
48	90
49	300
50	871
51	4504
52	1161
53	140
60	1571
61	380
62	731
63	130
76	190
77	280
85	961
86	5595
87	520
88	1842
89	150
113	6856
114	410
115	2362
116	150
120	220
122	130
148	9999
149	731
150	6366
151	370
152	981
