Mass Spectrum: 1,3-Dioxolane, 2,2,4-trimethyl-
Formula: C6 H12 O2
CAS: 1193-11-9
Molecular weight: 116
m/z	RELATIVE INTENSITY
15	280
17	10
18	50
26	70
27	380
28	310
29	450
30	30
31	450
32	40
38	30
39	450
40	140
41	1611
42	2042
43	9999
44	270
45	410
55	60
56	20
57	360
58	931
59	1021
60	50
61	300
71	20
72	2002
73	190
74	20
75	10
83	40
85	20
86	90
91	30
92	10
97	20
101	4614
102	270
103	30
115	20
