Mass Spectrum: Methyl pyrrole-2-carboxylate
Formula: C6 H7 N O2
CAS: 1193-62-0
Molecular weight: 125
Origin: W.V. BROWN, CSIRO, BLACK MOUNTAIN, CANBERRA CITY, AUSTRALIA
m/z	RELATIVE INTENSITY
37	430
38	1266
39	3544
40	658
41	203
42	101
45	51
50	51
51	76
52	101
53	203
54	51
55	177
59	101
63	76
64	329
65	1241
66	3797
67	506
68	76
69	51
77	51
80	152
81	51
82	51
93	3797
94	9999
95	684
96	101
97	51
125	6709
126	481
127	51
