Mass Spectrum: Butanedioic acid, phenylmethyl propyl ester
Formula: C14 H18 O4
CAS: 119450-12-3
Molecular weight: 250
Origin: E. Dziwinski, Inst. Heavy Org. Synth. Blachownia, Kedzierzyn-Kozle, Poland
m/z	RELATIVE INTENSITY
39	500
41	1000
42	300
43	1500
51	500
55	700
56	1300
63	200
65	1200
74	1200
75	1100
77	600
79	600
89	500
90	800
91	9999
92	1000
101	6100
102	300
105	500
106	300
107	3900
108	1000
116	800
143	2600
144	400
162	800
190	400
191	200
222	500
250	500
