Mass Spectrum: Butanedioic acid, methyl phenylmethyl ester
Formula: C12 H14 O4
CAS: 119450-11-2
Molecular weight: 222
Origin: E. Dziwinski, Inst. Heavy Org. Synth. Blachownia, Kedzierzyn-Kozle, Poland
m/z	RELATIVE INTENSITY
39	700
41	300
50	200
51	400
55	2000
56	900
57	300
59	800
63	300
65	1400
77	700
78	600
79	700
87	400
88	700
89	500
90	700
91	9999
92	2000
107	4000
108	500
115	500
116	300
121	100
122	100
148	300
162	300
163	300
177	100
190	100
191	100
194	400
222	200
