Mass Spectrum: Butanedioic acid, pentyl phenylmethyl ester
Formula: C16 H22 O4
CAS: 119450-13-4
Molecular weight: 278
Origin: E. Dziwinski, Inst. Heavy Org. Synth. Blachownia, Kedzierzyn-Kozle, Poland
m/z	RELATIVE INTENSITY
39	700
41	1300
42	600
43	3500
51	400
55	1100
56	1300
57	200
63	200
65	1100
70	800
71	1500
73	400
74	1400
75	800
77	600
79	800
89	400
90	600
91	9999
92	1100
101	7300
102	400
105	500
107	5700
108	2000
118	300
144	600
162	1200
163	200
171	1500
172	200
190	500
191	100
250	400
278	500
