Mass Spectrum: Benzonitrile, 4-fluoro-
Formula: C7 H4 F N
CAS: 1194-02-1
Molecular weight: 121
Origin: Japan AIST/NIMC Database- Spectrum MS-NW-6601
m/z	RELATIVE INTENSITY
25	10
26	60
27	30
28	50
31	249
32	10
33	10
36	40
37	239
38	139
39	199
40	10
44	60
45	40
46	70
47	20
48	20
49	129
50	669
51	219
52	70
55	10
56	70
57	379
58	10
60	219
61	179
62	129
63	179
64	119
67	10
68	299
69	239
70	469
71	60
72	20
73	109
74	259
75	549
76	299
77	50
80	10
81	149
82	30
84	10
85	10
86	20
87	30
88	119
89	10
92	60
93	229
94	2709
95	529
96	30
98	10
99	119
100	219
101	139
102	50
105	10
106	20
118	10
119	30
120	129
121	9999
122	789
123	30
