Mass Spectrum: Butanedioic acid, nonyl phenylmethyl ester
Formula: C20 H30 O4
CAS: 119450-17-8
Molecular weight: 334
Origin: E. Dziwinski, Inst. Heavy Org. Synth. Blachownia, Kedzierzyn-Kozle, Poland
m/z	RELATIVE INTENSITY
39	1200
41	5000
42	900
43	5600
51	900
55	4200
56	5000
57	5900
63	400
69	2500
70	1300
71	3400
77	1300
79	1300
83	1300
85	2100
89	400
90	900
91	9999
92	1300
101	6300
102	400
107	3800
108	1300
119	1200
127	900
162	500
190	200
191	100
200	100
227	300
228	100
306	100
334	100
