Mass Spectrum: Butanedioic acid, decyl phenylmethyl ester
Formula: C21 H32 O4
CAS: 119450-18-9
Molecular weight: 348
Origin: E. Dziwinski, Inst. Heavy Org. Synth. Blachownia, Kedzierzyn-Kozle, Poland
m/z	RELATIVE INTENSITY
39	1300
41	4700
42	1700
43	7900
51	400
55	5000
56	3700
57	7400
58	1000
63	200
65	1400
67	700
69	2700
70	1700
71	4400
72	700
74	1000
75	1000
77	700
79	700
81	400
82	700
83	2400
84	1000
85	4000
89	300
90	400
91	9999
92	1700
97	1300
98	700
99	1000
101	7700
102	700
107	4700
108	2000
119	3000
120	200
134	400
140	400
141	2000
154	400
155	400
156	400
162	1400
180	100
190	500
191	100
214	200
241	800
242	100
320	100
348	200
