Mass Spectrum: Butanedioic acid, octyl phenylmethyl ester
Formula: C19 H28 O4
CAS: 119450-16-7
Molecular weight: 320
Origin: E. Dziwinski, Inst. Heavy Org. Synth. Blachownia, Kedzierzyn-Kozle, Poland
m/z	RELATIVE INTENSITY
39	800
41	2600
42	900
43	3500
51	400
55	2100
56	2000
57	4700
58	300
63	200
65	1000
69	1600
70	600
71	3500
73	400
74	1200
75	900
77	600
78	300
79	700
82	200
83	400
84	300
89	400
90	600
91	9999
92	1200
101	5700
102	400
105	500
107	5300
108	2400
112	500
113	1000
118	200
119	200
162	1000
163	200
186	300
190	500
191	100
213	600
214	100
292	100
320	200
