Mass Spectrum: Fenchone
Formula: C10 H16 O
CAS: 1195-79-5
Molecular weight: 152
Origin: NIST Mass Spectrometry Data Center, 1990.
m/z	RELATIVE INTENSITY
15	54
26	57
27	535
28	96
29	295
32	16
39	1302
40	302
41	2643
42	360
43	267
50	115
51	266
52	150
53	801
54	154
55	524
56	67
57	55
63	81
65	299
66	128
67	1113
68	618
69	5304
70	421
72	185
77	397
78	107
79	790
80	1640
81	9999
82	853
83	69
91	211
93	80
95	161
96	37
109	594
110	56
123	41
137	192
152	1309
153	138
