Mass Spectrum: Cyclohexene, 1-methyl-4-(1-methylethyl)-, (R)-
Formula: C10 H18
CAS: 1195-31-9
Molecular weight: 138
Origin: G.VON BUNAU MAX-PLANCK-INST., MULHEIM-RHUR, GERMANY, FRG
m/z	RELATIVE INTENSITY
27	1278
29	762
39	1253
40	344
41	2457
42	344
43	762
51	369
52	246
53	1179
54	221
55	2482
56	246
57	246
63	172
65	442
66	663
67	3784
68	6069
69	1769
70	442
77	885
78	270
79	1302
80	565
81	2875
82	1769
83	565
91	663
92	344
93	1253
94	1253
95	9999
96	2162
97	639
105	172
107	319
109	442
110	246
111	172
119	147
121	344
123	1646
124	246
136	541
137	147
138	3661
139	442
140	246
