Mass Spectrum: 2(1H)-Quinoxalinone
Formula: C8 H6 N2 O
CAS: 1196-57-2
Molecular weight: 146
Origin: Japan AIST/NIMC Database- Spectrum MS-NW-8283
m/z	RELATIVE INTENSITY
14	20
15	10
16	10
25	10
26	109
27	169
28	539
29	40
31	40
32	30
36	30
37	549
38	899
39	1009
40	239
41	479
42	40
43	20
44	169
45	309
46	20
48	10
49	90
50	829
51	499
52	899
53	80
54	40
55	10
56	20
58	40
59	629
60	40
61	299
62	659
63	2269
64	2429
65	589
66	90
67	60
68	20
73	90
74	229
75	279
76	519
77	119
78	169
79	20
80	10
86	30
87	70
88	129
89	119
90	1379
91	4629
92	459
93	20
96	20
99	10
100	10
101	10
102	40
103	40
104	20
105	20
108	10
116	30
117	429
118	9999
119	899
120	40
131	30
145	99
146	8719
147	859
148	80
