Mass Spectrum: Benzo[b]thiophene, 2-ethyl-
Formula: C10 H10 S
CAS: 1196-81-2
Molecular weight: 162
m/z	RELATIVE INTENSITY
74	310
75	180
76	210
77	230
89	400
90	310
102	170
103	230
108	210
115	370
121	100
128	250
135	310
136	90
147	5715
148	801
149	150
161	410
162	9999
163	841
164	180
