Mass Spectrum: Cyclohexanone, 5-methyl-2-(1-methylethyl)-, (2R-cis)-
Formula: C10 H18 O
CAS: 1196-31-2
Molecular weight: 154
Origin: G. VON BUNAU MAX-PLANCK-INST., MULHEIM-RUHR, GERMANY FRG
m/z	RELATIVE INTENSITY
15	332
27	2907
28	897
29	2110
39	2990
40	714
41	7193
42	1811
43	3804
44	199
51	282
53	963
54	399
55	5681
56	3306
57	797
58	266
65	282
67	814
68	615
69	7608
70	3322
71	615
77	266
79	432
81	615
82	548
83	2076
84	1495
85	282
93	349
94	266
95	1661
96	316
97	2259
98	947
109	332
110	897
111	2276
112	9999
113	880
121	532
125	648
139	3339
140	399
154	2309
155	332
