Mass Spectrum: Benzenemethanol, .alpha.,.alpha.,4-trimethyl-
Formula: C10 H14 O
CAS: 1197-01-9
Molecular weight: 150
Origin: N.W. DAVIES, UNIVERSITY OF TASMANIA, TASMANIA, AUSTRALIA
m/z	RELATIVE INTENSITY
27	230
29	110
31	100
39	640
41	350
43	9999
44	240
50	160
51	430
52	110
53	130
57	170
59	240
63	360
64	200
65	800
66	100
67	310
73	100
74	150
77	370
78	110
79	100
89	240
91	1670
92	530
93	140
105	250
107	150
115	680
116	230
117	1320
118	140
119	260
131	270
132	1430
133	290
135	5310
136	510
150	410
