Mass Spectrum: Phenol, 3,5-diethyl-
Formula: C10 H14 O
CAS: 1197-34-8
Molecular weight: 150
Origin: D.HENNEBERG, MAX-PLANCK INSTITUTE, MULHEIM, WEST GERMANY
m/z	RELATIVE INTENSITY
26	342
27	399
28	466
29	488
39	427
40	88
41	527
43	88
44	27
50	79
51	216
52	124
53	403
54	33
55	47
56	25
63	79
65	583
66	120
67	253
69	48
77	1629
78	309
79	862
80	88
81	72
89	72
90	49
91	2602
92	348
93	627
94	216
95	140
98	68
101	38
102	83
103	986
104	120
105	603
106	90
107	925
108	136
109	48
115	468
116	151
117	174
118	74
119	166
120	440
121	7693
122	1269
123	122
128	31
131	94
132	61
133	529
134	125
135	9999
136	920
137	64
147	46
148	94
149	386
150	8374
151	921
152	70
