Mass Spectrum: 3,4-Dihydroxyacetophenone
Formula: C8 H8 O3
CAS: 1197-09-7
Molecular weight: 152
Origin: NIST Mass Spectrometry Data Center, 1994
m/z	RELATIVE INTENSITY
4	19
14	109
15	530
16	35
18	58
19	32
25	37
26	211
27	892
28	283
29	383
30	31
31	67
32	4
36	39
37	256
38	390
39	709
40	218
41	119
42	370
43	1960
44	63
47	25
48	44
49	250
50	1037
51	1706
52	1181
53	1907
54	431
55	1346
56	47
60	50
61	256
62	706
63	1072
64	247
65	173
66	189
67	183
68	333
71	36
73	17
74	68
75	67
76	19
77	364
78	71
79	283
80	331
81	2375
82	183
85	33
90	3
91	219
92	46
93	2
94	39
95	129
107	247
109	4546
110	396
119	32
123	284
137	9999
138	832
139	111
152	5130
153	456
154	53
