Mass Spectrum: 1,4-Methanonaphthalen-9-ol, 1,2,3,4-tetrahydro-, stereoisomer
Formula: C11 H12 O
CAS: 1198-20-5
Molecular weight: 160
m/z	RELATIVE INTENSITY
51	701
52	200
53	300
55	100
56	200
57	200
58	200
62	200
63	601
64	300
65	500
66	100
70	400
71	400
74	300
75	400
76	300
77	1401
78	500
79	300
89	400
91	2803
92	300
101	200
102	400
103	801
104	901
105	300
115	2602
116	1501
117	801
118	200
126	200
127	2002
128	4604
129	9609
130	1802
131	9999
132	3003
133	200
141	1301
142	1301
143	300
144	200
145	400
159	100
160	2302
161	300
