Mass Spectrum: Quinoline, 2,4-dimethyl-
Formula: C11 H11 N
CAS: 1198-37-4
Molecular weight: 157
Origin: Japan AIST/NIMC Database- Spectrum MS-NW-3093
m/z	RELATIVE INTENSITY
15	10
26	20
27	80
28	40
37	20
38	60
39	339
40	30
41	40
42	40
44	10
50	159
51	319
52	80
53	40
54	10
57	70
58	10
61	30
62	119
63	329
64	129
65	219
66	40
70	30
71	10
73	10
74	99
75	209
76	149
77	329
78	179
79	30
85	10
86	30
87	60
88	70
89	329
90	70
91	80
92	10
93	10
98	10
99	20
100	20
101	139
102	99
103	80
104	40
113	80
114	119
115	1139
116	479
117	139
118	179
119	10
126	20
127	169
128	349
129	409
130	329
131	60
132	20
139	10
140	239
141	129
142	719
143	70
144	10
152	10
153	20
154	159
155	99
156	1509
157	9999
158	1269
159	70
