Mass Spectrum: Benzene, 1,3-dichloro-2,4,5,6-tetrafluoro-
Formula: C6 Cl2 F4
CAS: 1198-61-4
Molecular weight: 218
m/z	RELATIVE INTENSITY
31	300
73	300
79	1001
85	300
90	200
93	300
98	1001
109	1401
110	701
111	400
114	500
116	1001
129	200
133	3103
135	1001
148	701
149	400
151	200
164	200
183	3803
185	801
187	500
189	200
199	200
218	9999
219	701
220	6206
221	300
222	1001
