Mass Spectrum: Butanamide, N-cyclohexyl-
Formula: C10 H19 N O
CAS: 1199-87-7
Molecular weight: 169
Origin: Japan AIST/NIMC Database- Spectrum MS-IW- 426
m/z	RELATIVE INTENSITY
15	20
17	30
18	199
27	239
28	199
29	129
30	159
39	159
40	20
41	639
42	129
43	1519
44	149
46	10
51	10
53	70
54	159
55	699
56	3959
57	249
58	40
59	50
60	599
61	10
65	10
66	10
67	429
68	50
69	80
70	689
71	819
72	169
73	30
77	20
79	50
80	10
81	149
82	379
83	549
84	80
85	20
86	30
87	20
88	9999
89	499
90	30
96	30
97	50
98	419
99	739
100	80
101	20
112	40
113	20
114	10
126	349
127	50
128	20
140	60
141	679
142	60
154	149
155	10
168	20
169	3089
170	529
171	40
