Mass Spectrum: 2,5-Dimethoxyethylbenzene
Formula: C10 H14 O2
CAS: 1199-08-2
Molecular weight: 166
Origin: Dr. Jiri Zamecnik, DCIEM, North York, Canada, GP Library
m/z	RELATIVE INTENSITY
39	1450
51	940
53	900
63	540
65	1580
77	2480
78	910
79	1420
91	3990
92	570
103	770
107	450
108	1770
119	1680
121	1990
123	1350
133	300
135	860
136	1870
151	9999
152	1090
166	9240
167	1120
