Mass Spectrum: 2-Imidazolidinone
Formula: C3 H6 N2 O
CAS: 120-93-4
Molecular weight: 86
Origin: Japan AIST/NIMC Database- Spectrum MS-NW- 489
m/z	RELATIVE INTENSITY
14	50
15	469
16	10
18	20
26	50
27	239
28	2209
29	1469
30	6209
31	99
38	40
39	60
40	219
41	319
42	1619
43	169
44	189
53	30
54	30
55	30
56	199
57	159
58	439
84	159
85	1239
86	9999
87	439
88	30
