Mass Spectrum: 2,4,5-Trioxoimidazolidine
Formula: C3 H2 N2 O3
CAS: 120-89-8
Molecular weight: 114
Origin: Japan AIST/NIMC Database- Spectrum MS-NW-1175
m/z	RELATIVE INTENSITY
12	70
13	50
14	80
15	179
16	99
26	119
27	419
28	529
29	619
30	109
31	10
35	10
36	50
38	30
39	10
40	30
41	109
42	1089
43	9999
44	6719
45	119
46	10
52	10
53	10
54	99
55	40
56	40
57	50
67	20
68	10
69	40
70	779
71	409
72	10
73	10
84	10
85	20
86	3029
87	90
88	10
97	20
98	10
114	3199
115	139
116	20
