Mass Spectrum: Benzyl Benzoate
Formula: C14 H12 O2
CAS: 120-51-4
Molecular weight: 212
Origin: NIST Mass Spectrometry Data Center, 1990.
m/z	RELATIVE INTENSITY
18	71
27	148
29	69
38	121
39	507
40	80
41	108
49	75
50	505
51	1718
52	207
62	158
63	403
64	105
65	1164
66	123
74	149
75	128
77	3254
78	330
79	504
80	71
89	546
90	722
91	4617
92	393
105	9999
106	921
107	564
108	54
152	76
153	77
165	156
166	90
167	637
168	120
194	899
195	150
212	1732
213	270
214	18
