Mass Spectrum: 9H-Purine
Formula: C5 H4 N4
CAS: 120-73-0
Molecular weight: 120
m/z	RELATIVE INTENSITY
16	1238
38	743
39	990
40	495
41	396
42	198
43	297
64	148
65	594
66	2970
67	396
68	148
69	148
71	148
93	1980
94	248
95	198
96	148
119	346
120	9999
121	693
