Mass Spectrum: Dichlorphenamide
Formula: C6 H6 Cl2 N2 O4 S2
CAS: 120-97-8
Molecular weight: 304
Origin: Patti Price, Georgia Bureau of Investigation, Decatur, Georgia
m/z	RELATIVE INTENSITY
41	480
42	270
43	630
44	430
45	570
46	1211
47	510
48	5484
49	580
50	900
51	290
52	420
53	280
54	320
55	440
56	140
57	400
60	270
61	1010
62	1801
63	1351
64	8087
65	1070
66	430
67	190
68	110
69	860
70	140
71	370
72	430
73	2712
74	7767
75	1251
76	430
77	200
78	320
79	630
80	4383
81	530
82	430
83	440
84	2262
85	770
86	850
87	430
88	510
89	640
90	760
91	210
92	130
93	560
94	320
95	290
96	680
97	3453
98	800
99	1381
100	310
101	110
103	410
104	220
105	800
106	400
107	830
108	3343
109	8707
110	1621
111	2992
112	880
113	1191
114	830
115	550
116	340
117	180
118	420
119	210
120	430
121	420
122	230
123	360
124	1941
125	2051
126	1030
127	890
128	220
129	1331
130	240
131	860
132	610
133	2592
134	540
135	1621
136	220
137	310
139	430
140	1481
141	2031
142	910
143	4614
144	4694
145	2942
146	2582
147	1301
148	1961
149	1191
150	950
151	870
152	280
153	390
154	290
155	170
156	330
157	180
158	700
159	3052
160	4564
161	2792
162	2542
163	1251
164	570
165	360
166	110
167	120
171	120
173	180
174	600
175	1111
176	6305
177	6335
178	4434
179	4253
180	1101
181	760
182	120
188	110
189	1111
190	180
191	630
192	170
193	140
204	130
205	2111
206	370
207	1371
208	420
209	390
210	220
211	130
221	430
223	2692
224	4994
225	2612
226	3563
227	980
228	700
229	150
230	550
232	200
240	3513
241	1221
242	2592
243	890
244	610
245	180
269	1261
270	200
271	660
272	130
288	2091
289	180
290	1551
291	120
292	350
304	9999
305	850
306	7807
307	730
308	1661
309	130
310	120
