Mass Spectrum: Ethanedithioamide, N,N'-dimethyl-
Formula: C4 H8 N2 S2
CAS: 120-79-6
Molecular weight: 148
Origin: CARL DJERASSI DEPT OF CHEM STANFORD UNIV STANFORD CALIF 94305
m/z	RELATIVE INTENSITY
41	891
42	3960
43	198
44	495
45	1980
46	396
47	1287
48	99
49	99
51	99
52	99
53	198
54	99
55	99
56	99
57	198
58	198
59	891
60	1485
61	99
62	99
64	198
66	99
67	198
69	297
70	693
71	495
72	990
73	891
74	9999
75	2772
76	792
77	198
78	99
79	99
83	99
84	198
85	198
86	396
88	693
89	99
90	198
101	99
106	99
107	99
115	99
118	99
119	396
121	99
133	99
147	99
148	4950
149	396
150	495
