Mass Spectrum: Benzothiazole, 2,2'-dithiobis-
Formula: C14 H8 N2 S4
CAS: 120-78-5
Molecular weight: 332
Origin: Chemical Sci. & Tec. Lab., NIST, Gaithersburg, MD 20899
m/z	RELATIVE INTENSITY
41	103
42	48
43	91
44	77
45	1213
46	18
47	275
48	109
49	1405
50	393
51	959
52	170
54	38
55	82
56	34
57	264
58	484
59	47
60	27
61	73
62	249
63	1301
64	601
65	79
66	12
67	41
68	9
69	2175
70	454
71	290
72	107
73	14
74	139
75	398
76	279
77	81
78	422
79	36
81	317
82	961
83	264
84	1284
85	78
86	677
87	12
88	172
89	28
90	662
91	128
92	20
93	175
94	166
95	594
96	386
97	113
98	37
99	19
100	10
101	10
102	1838
103	166
105	47
106	94
107	256
108	6345
109	577
110	324
111	65
114	9
120	77
121	226
122	3102
123	307
124	151
125	41
126	24
127	11
133	548
134	317
135	130
136	39
137	9
138	23
139	657
140	377
141	97
142	35
151	8
153	10
154	99
164	11
165	248
166	8940
167	1349
168	895
169	120
170	35
171	11
180	49
182	9
197	57
198	207
199	23
200	19
209	10
210	9
223	8
224	1735
225	256
226	96
235	9
241	66
242	387
243	67
244	44
255	28
256	907
257	148
258	94
267	736
268	2416
269	464
270	251
271	42
272	20
274	574
275	91
276	79
299	510
300	150
301	92
302	18
331	43
332	9999
333	1851
334	1042
335	329
336	149
