Mass Spectrum: Sydnone, 3-phenyl-
Formula: C8 H6 N2 O2
CAS: 120-06-9
Molecular weight: 162
Origin: Japan AIST/NIMC Database- Spectrum MS-IW-6074
m/z	RELATIVE INTENSITY
13	20
26	60
27	209
28	279
29	20
30	99
32	30
36	10
37	169
38	349
39	329
40	30
41	50
44	129
48	10
49	119
50	1549
51	3399
52	979
53	10
60	10
61	70
62	119
63	229
64	219
65	60
66	10
73	99
74	479
75	359
76	719
77	9609
78	689
79	20
87	10
88	10
89	20
90	10
91	70
92	10
93	50
99	10
102	10
103	239
104	9999
105	859
106	30
132	1009
133	80
162	3019
163	359
164	30
