Mass Spectrum: Pyrrolidine, 1-methyl-
Formula: C5 H11 N
CAS: 120-94-5
Molecular weight: 85
Origin: Japan AIST/NIMC Database- Spectrum MS-NW-3530
m/z	RELATIVE INTENSITY
13	10
14	70
15	1279
16	20
25	10
26	209
27	859
28	299
29	359
30	419
31	10
36	10
37	50
38	99
39	669
40	189
41	1069
42	9999
43	939
44	369
45	10
49	10
50	50
51	50
52	60
53	109
54	239
55	659
56	329
57	8969
58	419
59	10
65	20
66	20
67	189
68	149
69	99
70	149
71	20
80	90
81	90
82	939
83	199
84	9719
85	5579
86	339
