Mass Spectrum: Acetic acid, (2-naphthalenyloxy)-
Formula: C12 H10 O3
CAS: 120-23-0
Molecular weight: 202
Origin: RADIAN CORP
m/z	RELATIVE INTENSITY
28	140
29	100
31	220
32	70
39	280
42	70
44	80
45	270
50	290
51	420
58	30
62	330
63	1020
65	360
73	160
74	420
75	620
76	300
77	970
78	20
86	170
87	300
88	250
89	660
98	70
99	20
100	20
101	520
102	130
113	360
114	580
115	9999
116	1210
125	120
126	1350
127	5420
128	1300
129	1270
130	120
142	20
143	1980
144	2690
145	440
155	40
157	1270
158	160
202	9560
203	1360
204	120
