Mass Spectrum: Phenol, 3-(ethylamino)-4-methyl-
Formula: C9 H13 N O
CAS: 120-37-6
Molecular weight: 151
Origin: NIST Mass Spectrometry Data Center, 1998.
m/z	RELATIVE INTENSITY
15	10
26	30
27	190
29	130
30	70
37	10
38	40
39	290
40	80
41	170
42	160
43	60
44	120
49	10
50	150
51	430
52	300
53	380
54	120
55	210
56	30
58	140
61	20
62	50
63	150
64	60
65	300
66	220
67	280
68	370
69	30
70	10
75	90
77	1190
78	290
79	370
80	110
81	130
82	30
83	10
87	10
89	50
90	40
91	230
92	90
93	260
94	300
95	110
96	20
102	20
103	30
104	80
105	180
106	240
107	850
108	720
109	200
110	10
115	10
116	150
117	110
118	70
119	20
120	140
121	80
122	1660
123	170
124	10
130	10
131	10
132	20
133	100
134	560
135	230
136	9999
137	1000
138	60
148	30
149	20
150	640
151	4810
152	520
153	30
