Mass Spectrum: Acetamide, N-(2-methylphenyl)-
Formula: C9 H11 N O
CAS: 120-66-1
Molecular weight: 149
Origin: NIST Mass Spectrometry Data Center
m/z	RELATIVE INTENSITY
15	40
26	10
27	80
29	10
30	50
37	20
38	70
39	340
40	40
41	80
42	120
43	1381
44	30
49	10
50	230
51	530
52	390
53	260
54	70
61	20
62	80
63	270
64	120
65	340
66	80
67	40
73	10
74	60
75	60
76	110
77	1611
78	651
79	741
80	230
81	40
86	10
87	10
89	320
90	280
91	450
92	60
93	20
102	20
103	30
104	410
105	120
106	8578
107	9999
108	931
109	30
117	20
118	30
119	10
120	50
130	20
131	10
132	50
133	40
134	130
135	10
149	5315
150	591
151	40
