Mass Spectrum: 1-Piperazinecarboxylic acid, ethyl ester
Formula: C7 H14 N2 O2
CAS: 120-43-4
Molecular weight: 158
Origin: Japan AIST/NIMC Database- Spectrum MS-NW-5492
m/z	RELATIVE INTENSITY
14	30
15	409
25	10
26	189
27	1089
28	1779
29	3509
30	1319
31	50
32	10
39	20
40	60
41	359
42	1899
43	1019
44	9999
45	309
52	20
53	30
54	259
55	1479
56	6619
57	2259
58	499
59	60
60	30
62	30
67	10
68	179
69	2239
70	619
71	159
72	1529
73	80
74	209
75	119
76	109
80	30
81	40
82	40
83	379
84	189
85	1199
86	139
87	30
88	269
89	20
90	179
91	10
97	10
98	10
99	20
100	199
101	70
102	119
103	70
104	60
109	10
111	70
112	20
113	1119
114	109
115	539
116	4069
117	259
118	30
128	109
129	229
130	20
143	40
156	50
157	40
158	1989
159	189
160	20
