Mass Spectrum: Dichlorprop
Formula: C9 H8 Cl2 O3
CAS: 120-36-5
Molecular weight: 234
Origin: Japan AIST/NIMC Database- Spectrum MS-NW-9301
m/z	RELATIVE INTENSITY
15	20
18	20
26	30
27	179
28	70
29	99
31	10
36	30
37	20
38	30
39	30
43	139
44	10
45	229
49	20
50	60
51	20
53	30
55	229
56	20
60	10
61	60
62	129
63	549
64	40
65	10
71	10
72	50
73	289
74	189
75	249
76	20
83	60
84	50
85	80
86	10
87	20
89	30
90	10
91	60
92	10
94	50
95	30
96	10
97	90
98	619
99	269
100	219
101	80
107	50
108	10
109	479
110	90
111	199
112	30
113	20
117	10
118	10
119	10
125	259
126	499
127	169
128	229
129	30
130	20
133	439
134	50
135	289
136	40
137	40
143	10
144	10
145	319
146	70
147	209
148	40
149	40
153	60
154	229
155	50
156	70
157	10
159	20
161	449
162	9999
163	999
164	6399
165	519
166	1049
167	70
171	10
173	10
175	30
177	20
188	10
189	1369
190	129
191	879
192	80
193	139
194	10
199	10
234	3509
235	359
236	2269
237	229
238	379
239	30
