Mass Spectrum: Benzaldehyde, 3,4-dimethoxy-
Formula: C9 H10 O3
CAS: 120-14-9
Molecular weight: 166
Origin: NIST Mass Spectrometry Data Center
m/z	RELATIVE INTENSITY
14	50
15	571
16	10
18	20
25	10
26	90
27	80
28	100
29	641
30	40
31	100
32	10
37	110
38	240
39	410
40	40
41	591
42	40
43	60
44	10
45	30
49	80
50	741
51	1551
52	801
53	430
54	50
55	150
56	10
57	10
59	20
60	10
61	170
62	460
63	931
64	270
65	1001
66	240
67	611
68	40
69	80
73	50
74	270
75	230
76	410
77	2282
78	300
79	1942
80	711
81	80
83	20
85	10
86	10
89	10
90	10
91	250
92	410
93	180
94	280
95	3493
96	230
97	20
103	40
104	130
105	430
106	100
107	460
108	260
109	270
110	20
119	691
120	190
121	330
122	440
123	330
124	30
127	10
128	10
133	30
134	10
135	90
136	80
137	420
138	100
139	10
149	170
150	90
151	1201
152	110
153	10
163	10
165	6386
166	9999
167	1001
168	100
169	10
