Mass Spectrum: Benzene, (4-bromobutoxy)-
Formula: C10 H13 Br O
CAS: 1200-03-9
Molecular weight: 228
Origin: Chuck Anderson, Aldrich Chemical Co.
m/z	RELATIVE INTENSITY
15	10
25	8
26	89
27	970
28	222
29	1073
30	29
31	14
36	7
37	49
38	215
39	1698
40	247
41	418
42	47
43	40
44	5
45	2
47	1
49	11
50	201
51	643
52	70
53	232
54	55
55	3276
56	147
57	8
58	2
60	3
61	21
62	65
63	235
64	119
65	1079
66	849
67	54
68	17
69	4
71	5
72	2
73	10
74	69
75	59
76	65
77	1268
78	122
79	191
80	22
81	13
82	10
83	1
88	1
89	11
90	5
91	270
92	63
93	92
94	9999
95	715
96	44
97	2
102	3
103	16
104	8
105	28
106	22
107	582
108	52
109	171
110	7
115	10
116	3
117	8
118	3
119	46
120	104
121	25
122	3
124	1
128	1
129	1
131	6
132	6
133	18
135	3980
136	148
137	3810
138	151
139	6
145	2
146	3
147	9
148	14
149	26
150	7
155	3
156	1
157	5
159	1
184	3
185	6
187	4
199	1
201	1
228	515
229	55
230	515
231	54
232	5
