Mass Spectrum: Ethanone, 1-(2,5-dimethoxyphenyl)-
Formula: C10 H12 O3
CAS: 1201-38-3
Molecular weight: 180
Origin: NIST Mass Spectrometry Data Center
m/z	RELATIVE INTENSITY
14	60
15	681
16	10
18	20
25	10
26	80
27	70
28	90
29	150
30	30
31	30
33	10
37	50
38	120
39	330
40	40
41	120
42	140
43	1732
44	40
45	20
49	30
50	330
51	771
52	240
53	741
54	130
55	80
56	10
57	10
59	20
60	10
61	110
62	380
63	971
64	510
65	450
66	280
67	60
68	30
69	50
73	30
74	210
75	170
76	300
77	1872
78	430
79	1611
80	160
81	50
82	100
85	10
86	20
87	20
88	10
89	60
90	60
91	300
92	891
93	190
94	520
95	180
96	10
98	10
102	10
103	30
104	30
105	450
106	170
107	2222
108	250
109	761
110	60
111	10
118	10
119	100
120	40
121	130
122	1531
123	290
124	20
128	10
131	30
132	10
133	270
134	290
135	450
136	70
137	931
138	90
139	10
147	60
148	30
149	90
150	1261
151	250
152	30
161	270
162	140
163	430
165	9999
166	1001
167	110
168	10
180	4864
181	540
182	40
