Mass Spectrum: Dichlorine heptoxide
Formula: Cl2 O7
CAS: 12015-53-1
Molecular weight: 182
Origin: I.P.FISHER ROCKET PROPULSION ESTAB., WESTCOTT, BUCKS., UK
m/z	RELATIVE INTENSITY
32	27
35	108
37	34
51	901
52	45
53	288
54	14
67	3120
69	1040
70	99
72	54
74	11
83	9999
85	3340
99	67
101	23
182	67
184	45
186	9
