Mass Spectrum: N,N-di-n-Butylheptafluorobutyramide
Formula: C12 H18 F7 N O
CAS: 120219-46-7
Molecular weight: 325
Origin: Zaikin V.G., TIPS RAS, Moscow, Russia
m/z	RELATIVE INTENSITY
28	50
29	130
36	50
41	240
42	30
45	30
55	130
56	50
57	721
69	90
79	60
100	80
114	80
119	40
150	50
156	841
157	70
169	260
214	60
222	50
226	941
227	110
228	170
240	9999
241	891
242	30
268	40
270	190
282	1381
283	160
296	110
