Mass Spectrum: N-Acetyltyramine
Formula: C10 H13 N O2
CAS: 1202-66-0
Molecular weight: 179
Origin: B.R. PETTIT, QUEEN CHARLOTTE'S MAT. HOSP., LONDON, U.K.
m/z	RELATIVE INTENSITY
89	60
90	50
91	530
92	90
93	40
94	120
95	40
96	30
97	60
98	30
103	60
105	60
106	70
107	4260
108	660
109	60
111	30
118	30
119	330
120	9999
121	1160
122	80
134	40
135	80
136	80
168	50
179	190
180	40
