Mass Spectrum: 2,2'-Dipyridylamine
Formula: C10 H9 N3
CAS: 1202-34-2
Molecular weight: 171
Origin: NIST Mass Spectrometry Data Center, 1990.
m/z	RELATIVE INTENSITY
26	89
27	216
28	172
37	137
38	419
39	769
40	280
41	204
49	74
50	529
51	2065
52	1224
53	178
62	55
63	153
64	289
65	296
66	332
67	855
68	50
75	125
76	190
78	3027
79	1034
80	89
86	491
89	126
90	134
91	63
92	152
93	103
94	58
103	57
104	50
105	142
115	46
116	215
117	149
118	138
119	308
120	51
142	156
143	361
144	177
155	49
168	81
170	9999
171	4201
172	419
