Mass Spectrum: Methanimidamide, N'-(3-methoxyphenyl)-N,N-dimethyl-
Formula: C10 H14 N2 O
CAS: 1202-42-2
Molecular weight: 178
Origin: H.F.GRUTZMACHER HAMBURG UNIVERSITY, HAMBURG, F.R.G
m/z	RELATIVE INTENSITY
30	170
39	80
42	470
43	140
44	1700
45	450
50	60
51	80
57	150
58	90
63	210
64	280
65	130
76	80
77	630
78	140
79	60
89	320
90	50
91	50
92	480
93	80
94	80
103	70
104	100
106	90
107	1030
108	210
109	140
119	60
121	140
122	350
132	60
133	80
134	720
135	280
136	1470
137	160
146	60
147	140
148	140
149	70
150	1180
151	130
162	230
163	1600
164	200
175	50
177	4020
178	9999
179	1200
180	100
