Mass Spectrum: N,N-di-(n-Undecyl)heptafluorobutanamide
Formula: C26 H46 F7 N O
CAS: 120219-49-0
Molecular weight: 521
Origin: Zaikin V.G., TIPS RAS, Moscow, Russia
m/z	RELATIVE INTENSITY
28	60
29	160
30	30
41	510
42	110
43	1712
44	210
54	50
55	1291
56	310
57	2192
58	100
67	130
68	130
69	1722
70	380
71	1241
72	80
81	150
82	130
83	2252
84	350
85	621
86	40
95	150
96	80
97	2712
98	300
99	80
109	80
110	30
111	881
112	150
113	50
123	30
125	80
126	80
140	40
153	230
154	70
168	30
169	120
171	30
173	30
182	110
184	490
185	60
198	360
199	40
200	30
210	50
212	1832
213	190
214	140
222	70
226	220
227	160
228	611
240	7407
241	731
242	90
254	80
268	280
282	150
296	80
310	130
322	70
324	240
338	30
350	30
352	9999
353	2352
354	260
366	160
368	1271
369	150
380	4774
381	751
382	80
394	170
408	310
409	30
502	40
520	40
