Mass Spectrum: 1H-Indene, 2,3-dihydro-1,1,2,3,3-pentamethyl-
Formula: C14 H20
CAS: 1203-17-4
Molecular weight: 188
Origin: R.A.GILHOOLEY ET AL. LAB. OF THE GOVERNMENT CHEMIST CORNWALL HOUSE, STAMFORD ST., LONDON
m/z	RELATIVE INTENSITY
39	540
40	160
41	810
42	70
43	950
50	100
51	390
52	90
53	220
55	160
57	1480
58	130
63	210
64	220
65	330
67	70
69	70
70	70
71	140
75	90
76	160
77	520
78	250
79	210
86	70
89	90
91	910
92	80
102	110
103	200
105	250
115	950
116	300
117	940
118	90
119	70
127	350
128	1310
129	980
130	270
131	4910
132	500
139	70
141	680
142	570
143	690
144	260
145	430
152	70
153	60
155	70
156	70
157	290
158	270
159	70
172	90
173	9999
174	1420
175	100
188	1580
189	240
