Mass Spectrum: 2-Amino-N-t-butylbenzamide
Formula: C11 H16 N2 O
CAS: 1203-89-0
Molecular weight: 192
Origin: NIST Mass Spectrometry Data Center, 1994
m/z	RELATIVE INTENSITY
14	72
15	493
18	102
26	84
27	559
28	525
29	1041
30	164
37	77
38	346
39	1937
40	310
41	1916
42	1615
43	138
44	102
45	23
46	36
50	137
51	211
52	521
53	205
54	175
55	158
56	178
57	863
58	689
59	41
61	36
62	176
63	611
64	777
65	3711
66	578
67	43
72	37
74	76
75	87
76	104
77	76
78	49
79	54
80	196
81	143
87	22
89	241
90	225
91	847
92	4075
93	340
94	26
102	27
104	18
105	30
106	49
107	253
108	29
119	9999
120	8298
121	647
122	36
136	2643
137	265
160	85
161	138
162	23
177	248
178	23
192	3221
193	417
194	25
