Mass Spectrum: 5-Isobenzofurancarbonyl chloride, 1,3-dihydro-1,3-dioxo-
Formula: C9 H3 Cl O4
CAS: 1204-28-0
Molecular weight: 210
Origin: RADIAN CORP
m/z	RELATIVE INTENSITY
36	50
37	140
38	90
49	170
50	300
52	320
53	350
61	80
62	100
63	90
66	360
73	760
74	4850
75	5550
76	370
77	120
86	50
101	90
102	110
103	5000
104	390
110	650
111	20
112	200
138	1010
139	70
140	310
147	70
166	2020
167	160
168	660
169	20
175	9999
176	960
177	110
