Mass Spectrum: 2H,5H-Pyrano[4,3-b]pyran-2,5-dione, 4,7-dimethyl-
Formula: C10 H8 O4
CAS: 1204-38-2
Molecular weight: 192
Origin: F.G.JIMENZ INSTITUTO DE QUIMICA, CUIDAD UNIV., PISO, MEXICO.
m/z	RELATIVE INTENSITY
39	2300
43	5100
50	1500
51	2100
52	4700
53	1800
63	800
65	1600
66	700
67	1200
68	900
69	2500
77	600
79	600
80	2300
84	700
93	1700
108	1900
109	1200
122	1200
124	1400
135	900
149	5300
164	9999
165	1000
177	500
192	7600
193	900
