Mass Spectrum: Methanimidamide, N,N-dimethyl-N'-(4-nitrophenyl)-
Formula: C9 H11 N3 O2
CAS: 1205-59-0
Molecular weight: 193
Origin: H.F.GRUTZMACHER HAMBURG UNIVERSITY, HAMBURG, F.R.G
m/z	RELATIVE INTENSITY
27	50
28	220
30	710
39	120
41	100
42	1405
43	180
44	4175
45	580
46	50
50	520
51	220
52	70
56	60
57	540
62	50
63	190
64	160
65	130
66	60
75	480
76	1060
77	390
78	130
79	90
81	160
90	195
91	140
92	200
93	90
94	50
102	50
103	835
104	300
105	440
106	330
107	70
117	70
118	100
119	220
120	90
121	100
122	220
131	430
132	810
133	130
145	80
146	1190
147	405
148	70
149	860
150	100
151	1530
152	140
162	60
163	100
164	90
165	910
166	100
177	140
178	2810
179	300
191	60
192	4180
193	9999
194	1140
195	110
