Mass Spectrum: Hippuric acid, methyl ester
Formula: C10 H11 N O3
CAS: 1205-08-9
Molecular weight: 193
Origin: NIST Mass Spectrometry Data Center
m/z	RELATIVE INTENSITY
14	10
15	110
26	10
27	60
28	140
29	110
30	40
31	30
33	20
37	10
38	40
39	90
40	10
41	10
42	50
43	30
44	40
45	60
49	30
50	621
51	1952
52	150
53	40
54	10
55	10
56	130
57	30
59	180
60	10
61	10
62	30
63	40
64	20
65	30
66	10
67	10
73	30
74	200
75	180
76	370
77	5195
78	430
79	30
88	30
89	10
90	10
91	40
92	10
103	50
105	9999
106	1021
107	70
116	10
117	40
118	10
119	10
132	30
134	2512
135	240
136	20
148	10
161	941
162	230
163	20
175	30
176	30
193	921
194	110
195	10
