Mass Spectrum: 1,3-Benzodioxole-5-propanal, .alpha.-methyl-
Formula: C11 H12 O3
CAS: 1205-17-0
Molecular weight: 192
Origin: W.Jennings, T.Shibamoto
m/z	RELATIVE INTENSITY
43	190
51	70
55	190
65	70
77	1391
78	190
79	681
91	190
95	70
103	280
104	190
105	791
106	70
107	70
119	70
121	390
122	1291
123	70
131	190
133	280
134	70
135	9999
136	1111
137	70
140	70
147	70
148	70
149	480
163	190
164	2913
165	280
192	2392
193	190
