Mass Spectrum: 1,4-Benzenediol, diacetate
Formula: C10 H10 O4
CAS: 1205-91-0
Molecular weight: 194
Origin: NIST Mass Spectrometry Data Center
m/z	RELATIVE INTENSITY
14	10
15	80
26	60
27	50
28	20
29	10
37	10
38	40
39	80
40	10
41	20
42	130
43	2132
44	50
45	10
50	40
51	50
52	80
53	230
54	250
55	90
56	10
61	10
62	40
63	120
64	60
65	80
66	10
69	10
74	10
75	10
77	10
79	10
80	10
81	410
82	230
83	10
92	10
93	60
94	10
95	10
107	20
108	10
109	210
110	9999
111	801
112	70
121	10
135	60
136	10
151	20
152	1882
153	160
154	20
194	240
195	30
