Mass Spectrum: 2-Cyclohexen-1-ol, 2-methyl-5-(1-methylethenyl)-, acetate, cis-
Formula: C12 H18 O2
CAS: 1205-42-1
Molecular weight: 194
Origin: NIST Mass Spectrometry Data Center, 1998.
m/z	RELATIVE INTENSITY
14	10
15	170
26	30
27	680
29	560
30	20
31	30
37	10
38	90
39	2240
40	410
41	2970
42	380
43	7889
44	230
45	130
50	190
51	780
52	380
53	1790
54	420
55	2420
56	490
57	150
58	80
59	70
60	30
61	100
62	70
63	300
64	90
65	1150
66	400
67	1310
68	530
69	720
70	50
71	150
72	80
73	10
74	30
75	50
76	50
77	2840
78	790
79	2640
80	1120
81	1080
82	740
83	990
84	8169
85	450
86	40
87	20
89	130
91	6499
92	3440
93	3750
94	660
95	710
96	640
97	390
98	40
101	10
102	70
103	440
104	230
105	3270
106	1410
107	1900
108	1700
109	9769
110	930
111	140
112	10
113	20
114	10
115	400
116	110
117	960
118	200
119	9999
120	1060
121	160
122	100
123	480
124	270
125	60
126	290
127	30
128	30
129	20
131	70
132	70
133	430
134	3060
135	600
136	70
137	810
138	90
150	190
151	960
152	7319
153	940
154	70
194	50
