Mass Spectrum: 10H-Phenothiazine, 5-oxide
Formula: C12 H9 N O S
CAS: 1207-71-2
Molecular weight: 215
Origin: N.Klyuev, Institute of Ecology & Evolution, RAS, Moscow
m/z	RELATIVE INTENSITY
50	430
51	811
52	330
53	130
63	981
64	380
65	761
75	350
76	360
77	921
78	350
89	490
90	180
91	150
93	340
94	100
108	561
109	460
110	100
126	350
127	1201
128	831
138	290
139	2162
140	2092
141	370
145	140
153	510
154	3303
155	641
159	140
160	350
164	460
165	370
166	3924
167	9999
168	1571
169	190
171	791
172	270
185	220
186	8247
187	2903
188	671
197	691
198	2682
199	8578
200	1481
201	460
215	5175
216	741
217	300
