Mass Spectrum: Dibenzothiophene, 4,6-dimethyl-
Formula: C14 H12 S
CAS: 1207-12-1
Molecular weight: 212
Origin: Organic Synthesis Lab, MSU, Moscow.TRC 343
m/z	RELATIVE INTENSITY
45	30
50	20
51	20
62	30
63	70
64	20
65	20
69	90
70	20
71	20
74	60
75	80
76	110
77	90
78	30
79	180
80	50
81	30
82	90
86	80
87	70
88	50
89	100
90	20
91	130
92	611
93	140
94	20
95	40
100	20
101	40
102	40
103	50
104	450
105	1501
106	550
108	20
109	20
110	30
111	30
113	60
114	50
115	130
116	20
117	30
121	40
122	20
123	10
125	20
126	90
127	110
128	60
130	20
132	30
133	10
134	30
135	20
137	50
138	50
139	280
140	40
141	50
145	50
146	10
147	40
149	150
150	180
151	250
152	731
153	170
154	20
158	50
159	10
161	20
162	50
163	240
164	190
165	721
166	150
167	70
168	20
169	70
170	80
171	260
172	40
173	10
174	20
175	20
176	210
177	140
178	801
179	350
180	50
181	10
182	30
183	60
184	280
185	170
186	30
195	510
196	190
197	1882
198	370
199	100
206	10
207	50
208	510
209	380
211	4734
212	9999
213	1672
214	490
