Mass Spectrum: 2,8-Dimethyldibenzo(b,d)thiophene
Formula: C14 H12 S
CAS: 1207-15-4
Molecular weight: 212
Origin: M. OEHME, NORW. INST. AIR RES., LILLESTROM, NORWAY
m/z	RELATIVE INTENSITY
50	180
51	320
52	150
54	140
55	120
58	90
59	100
61	90
62	110
63	240
65	110
66	80
67	90
69	250
70	140
71	100
73	80
74	110
75	180
76	180
77	90
78	100
79	500
81	100
82	170
83	110
86	200
87	130
88	150
89	140
91	310
92	1460
94	70
95	90
98	310
101	90
102	80
103	160
104	1090
105	3630
106	1150
109	80
113	120
114	110
115	230
126	150
127	140
128	110
138	90
139	340
145	80
150	200
151	340
152	840
153	200
158	90
162	60
163	260
164	200
165	710
166	200
167	80
169	70
170	80
171	270
172	60
176	230
177	110
178	790
179	400
180	60
183	70
184	350
185	160
195	570
196	240
197	1710
198	270
199	120
207	60
208	710
209	470
210	360
211	5030
212	9999
213	1740
214	570
215	70
