Mass Spectrum: Cyclopentadienylmolybdenumtricarbonyl bromide
Formula: C8 H5 Br Mo O3
CAS: 12079-79-7
Molecular weight: 326
Origin: Institute of Organic Chemistry, Novosibirsk, USSR 1988
m/z	RELATIVE INTENSITY
77	396
78	528
79	1322
80	4232
81	1719
82	3438
83	330
92	859
93	131
94	594
95	951
96	938
97	594
98	1375
100	528
104	396
105	594
106	528
107	793
108	1189
109	965
110	1070
111	925
112	3703
113	396
117	264
118	528
119	925
120	1256
121	2645
122	1322
123	660
127	396
128	264
129	1388
130	2182
131	2049
132	3041
133	4761
134	4959
135	5290
136	4496
137	2909
138	1480
139	819
153	197
154	131
155	422
156	436
157	3015
158	1295
159	2380
160	3570
161	4232
162	2869
163	4787
164	1335
165	1851
166	502
171	290
173	409
174	369
175	449
176	449
177	660
178	197
179	660
181	197
184	264
185	925
186	528
187	766
188	1322
189	1573
190	1229
191	1600
192	793
193	647
194	330
208	264
209	290
210	1348
211	634
212	2115
213	2129
214	2816
215	2697
216	3769
217	1917
218	2777
219	1084
220	1163
221	502
222	660
223	330
225	436
226	475
227	330
228	528
236	3703
237	502
238	5819
239	4391
240	6507
241	6745
242	9999
243	3174
244	8266
245	1189
246	2777
247	925
248	502
249	396
250	197
264	1256
265	197
266	2049
267	1560
268	2314
269	2248
270	3637
271	1084
272	2883
273	330
274	859
275	131
292	1256
293	171
294	1864
295	1361
296	2115
297	2049
298	3174
299	1057
300	2737
301	396
302	965
303	264
304	330
317	197
318	264
319	264
320	634
321	396
322	700
323	660
324	674
325	634
326	859
327	396
328	925
329	264
330	568
331	65
