Mass Spectrum: 9H-Fluorene, 2-ethyl-
Formula: C15 H14
CAS: 1207-20-1
Molecular weight: 194
Origin: D.HOFFMANN AMERICAN HEALTH FOUNDATION, NEW YORK, N.Y., USA
m/z	RELATIVE INTENSITY
51	300
63	600
76	1300
89	2100
115	400
139	500
152	1000
164	1100
165	4050
166	700
179	9999
180	1700
194	8400
