Mass Spectrum: Rhenium, tricarbonyl(.eta.<5>-2,4-cyclopentadien-1-yl)-
Formula: C8 H5 O3 Re
CAS: 12079-73-1
Molecular weight: 336
Origin: R.B.KING UNIVERSITY OF GEORGIA, ATHENS, GEORGIA, USA
m/z	RELATIVE INTENSITY
187	800
199	400
200	1200
212	400
224	2000
225	1200
226	1450
250	1850
252	5000
280	9999
308	2000
336	5550
