Mass Spectrum: (Cyclocta-1,5-diene)platinum(II)chloride
Formula: C8 H12 Cl2 Pt
CAS: 12080-32-9
Molecular weight: 373
Origin: Japan AIST/NIMC Database- Spectrum MS-IW-1341
m/z	RELATIVE INTENSITY
15	20
26	90
27	999
28	359
29	179
35	349
36	2869
37	129
38	1019
39	3619
40	299
41	1829
42	90
43	30
44	30
45	20
49	40
50	469
51	1029
52	559
53	1309
54	9389
55	599
56	20
57	30
61	40
62	119
63	319
64	50
65	1429
66	2359
67	9999
68	639
69	30
71	10
73	20
74	129
75	90
76	90
77	2459
78	1719
79	5819
80	6759
81	509
82	20
83	10
85	10
86	10
87	10
88	10
89	80
90	10
91	2159
92	239
93	2099
94	169
95	10
97	10
98	30
99	10
101	20
102	189
103	459
104	299
105	809
106	279
107	299
108	1079
109	109
110	10
115	10
135	10
147	10
148	169
149	379
150	289
151	109
152	10
167	10
168	10
194	70
195	90
196	70
197	10
198	20
206	20
207	40
208	40
209	20
210	10
211	10
219	30
220	219
221	349
222	269
223	109
224	50
225	30
229	20
230	30
231	159
232	269
233	389
234	289
235	209
236	70
237	50
242	10
243	99
244	249
245	429
246	489
247	459
248	309
249	179
250	70
251	30
255	50
256	80
257	90
258	109
259	209
260	209
261	139
262	50
263	30
264	10
265	10
266	10
267	50
268	80
269	199
270	509
271	729
272	1089
273	989
274	709
275	249
276	159
277	60
278	10
279	10
281	10
282	20
283	119
284	239
285	269
286	169
287	80
288	30
289	10
293	20
294	50
295	519
296	1579
297	2359
298	3219
299	3249
300	4159
301	4789
302	3949
303	1909
304	579
305	449
306	40
307	10
308	30
309	20
310	20
311	10
312	10
332	60
333	70
334	169
335	139
336	1329
337	3029
338	3309
339	2459
340	1329
341	879
342	159
343	129
344	10
370	70
371	10
372	2929
373	3249
374	4369
375	2309
376	2559
377	539
378	689
379	60
380	70
