Mass Spectrum: Rhodium, bis(.eta.2-ethene)(2,4-pentanedionato-O,O')-
Formula: C9 H15 O2 Rh
CAS: 12082-47-2
Molecular weight: 258
Origin: D.HENNEBERG, MAX-PLANCK INSTITUTE, MULHEIM, WEST GERMANY
m/z	RELATIVE INTENSITY
26	3316
27	3343
28	5525
29	266
30	12
31	292
32	4
37	15
38	38
39	251
40	91
41	238
42	204
43	3464
44	64
45	45
50	13
51	25
52	18
53	43
54	16
55	140
56	17
57	27
58	119
59	82
60	6
63	4
65	8
66	9
67	30
68	12
69	54
70	29
71	84
72	95
73	8
74	33
77	14
78	33
79	6
81	12
82	29
84	29
85	759
86	33
91	14
92	4
98	7
100	455
101	22
103	1330
104	77
105	9
107	6
108	4
115	112
116	108
117	235
118	450
119	13
120	12
121	8
122	28
123	14
128	21
129	1232
130	1587
131	2425
132	537
133	28
134	8
139	7
140	46
141	42
142	855
143	372
144	4108
145	327
146	4125
147	128
148	29
149	8
150	46
151	16
152	8
153	17
154	50
155	240
156	166
157	572
158	453
159	656
160	265
161	25
162	6
167	7
168	19
169	10
170	116
171	69
172	4775
173	467
174	2087
175	155
176	12
178	40
179	10
180	7
181	7
182	5
183	11
184	24
185	120
186	211
187	168
188	24
193	4
198	7
199	19
200	50
201	90
202	9999
203	589
204	3
205	50
206	10
207	8
211	5
212	7
214	8
215	28
228	10
229	16
230	7565
231	571
232	12
237	5
239	51
240	7
242	5
243	8
254	60
255	11
256	12
257	10
258	5572
259	588
260	24
261	4
