Mass Spectrum: Iron,methyldicarbonyl-.pi.-cyclopentadienyl
Formula: C8 H8 Fe O2
CAS: 12080-06-7
Molecular weight: 192
Origin: Institute of Organic Chemistry, Novosibirsk, USSR 1988
m/z	RELATIVE INTENSITY
54	299
56	4499
57	399
65	699
66	550
67	45
70	199
71	399
80	99
81	699
82	299
83	199
84	199
120	199
121	9999
122	999
132	299
133	99
136	2099
137	299
147	99
149	1399
150	149
160	99
162	699
163	49
164	3599
165	399
175	29
177	499
178	49
190	99
192	1899
193	199
