Mass Spectrum: Rhodium, di-.mu.-bromobis[(1,2,5,6-.eta.)-1,5-cyclooctadiene]di-
Formula: C16 H24 Br2 Rh2
CAS: 12092-45-4
Molecular weight: 580
Origin: D.HENNEBERG, MAX-PLANCK INSTITUTE, MULHEIM, WEST GERMANY
m/z	RELATIVE INTENSITY
27	1505
28	501
29	202
30	5
35	157
36	105
37	49
38	176
39	2922
40	296
41	1487
42	72
44	7
46	3
49	21
50	294
51	622
52	347
53	822
54	5893
55	331
56	18
60	4
61	19
62	59
63	161
64	34
65	528
66	986
67	4918
68	330
73	7
74	45
75	37
76	26
77	863
78	476
79	9999
80	2498
81	207
82	374
86	14
87	4
89	31
90	13
91	654
92	235
93	1009
94	79
95	10
98	6
101	4
102	17
103	58
104	21
105	99
106	57
107	117
108	570
109	96
110	87
112	6
114	33
115	7
116	4
117	11
118	6
119	11
120	5
121	5
122	7
124	31
128	3
129	7
130	6
131	7
133	9
134	3
135	13
136	1
138	2
141	4
142	12
143	23
144	5
145	29
147	18
148	7
149	5
151	1
153	8
154	13
155	15
156	17
157	32
158	8
159	5
161	6
162	6
163	2
165	1
168	62
169	18
170	3
171	4
173	6
174	5
175	4
176	5
178	9
180	25
181	85
182	50
183	10
184	3
185	3
187	3
188	4
191	1
192	5
193	4
194	9
195	5
197	9
203	3
204	14
205	76
206	32
207	57
208	32
209	42
210	29
211	30
212	4
215	4
218	61
219	7
221	3
222	117
224	279
225	9
226	287
227	18
228	143
229	10
230	50
231	16
232	77
233	8
243	8
244	11
245	19
246	8
247	4
255	7
256	17
257	19
258	38
259	8
268	3
269	11
270	15
271	9
272	5
273	6
279	3
280	6
281	18
282	98
283	36
284	50
285	21
286	4
287	19
288	7
289	17
290	14
291	13
292	5
294	6
295	8
296	8
297	7
298	3
299	5
304	4
305	8
306	30
307	88
308	319
309	66
310	398
311	43
312	13
319	4
320	6
322	3
324	4
331	3
332	7
333	6
334	12
335	7
336	20
337	7
338	5
339	4
344	4
345	5
346	6
347	7
348	10
349	15
350	26
351	12
352	19
353	4
356	3
358	5
359	3
360	5
361	4
362	14
363	18
364	21
365	16
366	12
368	3
370	3
372	19
373	9
374	10
375	5
376	9
377	4
378	7
380	3
381	3
382	5
383	3
384	5
385	8
386	42
387	45
388	59
389	56
390	215
391	48
392	213
393	26
394	18
397	3
399	3
400	3
401	3
402	5
404	7
405	5
406	12
407	6
408	14
409	10
410	74
411	26
412	152
413	40
414	122
415	34
416	282
417	55
418	104
419	19
420	45
421	10
428	4
429	6
432	8
433	5
470	5
494	32
495	15
496	115
497	36
498	271
499	58
500	212
501	42
502	32
503	6
538	3
550	10
551	4
552	23
553	4
554	12
555	3
578	14
580	270
581	52
582	506
583	91
584	250
585	47
586	5
