Mass Spectrum: 2-Naphthalenemethanol, 1,2,3,4,4a,5,6,7-octahydro-.alpha.,.alpha.,4a,8-tetramethyl-, (2R-cis)-
Formula: C15 H26 O
CAS: 1209-71-8
Molecular weight: 222
Origin: N.W. Davies, Centr. Sci. Lab., Univ. Tasmania, Hobart, Australia
m/z	RELATIVE INTENSITY
22	10
26	10
27	650
28	10
29	10
30	10
31	460
32	10
33	10
34	30
36	80
38	130
39	680
40	10
41	2730
42	290
43	1690
44	250
45	10
46	10
50	10
51	110
52	50
53	590
54	10
55	2050
56	230
57	410
58	60
59	4990
60	160
61	100
63	60
64	140
65	720
66	150
67	1370
68	110
69	940
70	30
71	100
72	30
73	80
75	210
76	130
77	890
78	270
79	1670
80	130
81	2960
82	170
83	470
84	10
85	10
86	60
87	120
88	140
89	110
90	70
91	2480
92	400
93	2480
94	230
95	2210
96	1020
97	230
98	10
102	70
103	140
104	130
105	3210
106	460
107	2590
108	700
109	1250
110	170
111	10
114	30
115	290
116	90
117	330
118	10
119	1480
120	450
121	1170
122	700
123	660
124	50
125	90
126	10
127	100
128	160
129	40
130	100
131	300
132	120
133	4510
134	940
135	840
136	180
137	130
138	10
141	10
142	90
143	30
144	70
145	360
146	240
147	1570
148	840
149	1450
150	320
151	70
159	90
160	110
161	6120
162	1310
163	1330
164	310
165	30
173	50
175	710
176	260
187	90
188	80
189	9999
190	1500
191	140
192	40
193	130
202	80
203	70
204	6880
205	1120
206	50
207	70
208	10
216	90
222	520
223	130
