Mass Spectrum: Cyclonite
Formula: C3 H6 N6 O6
CAS: 121-82-4
Molecular weight: 222
Origin: N.D.Kagramanov, Moscow, Russia
m/z	RELATIVE INTENSITY
29	4414
30	6686
31	120
32	200
34	20
38	40
39	60
40	300
41	1571
42	9368
43	520
44	881
46	9999
47	70
48	160
51	10
53	290
54	641
55	1061
56	2893
57	360
58	210
59	40
60	180
66	10
67	20
68	290
69	90
71	1892
72	180
73	781
74	611
75	4504
76	150
77	30
78	10
80	631
81	911
82	871
83	540
84	50
85	100
87	30
91	10
95	20
96	10
98	601
99	30
100	20
101	320
102	661
104	190
105	20
107	10
109	10
111	10
112	100
113	10
118	20
120	2793
121	70
122	20
123	10
127	130
128	2462
129	130
130	90
131	40
132	150
133	10
135	10
145	40
147	40
148	530
149	100
150	10
158	30
159	40
167	20
174	20
175	10
194	10
205	140
206	10
207	10
221	10
