Mass Spectrum: Ethanol, 2,2'-[(1-methylethyl)imino]bis-
Formula: C7 H17 N O2
CAS: 121-93-7
Molecular weight: 147
Origin: RADIAN CORP
m/z	RELATIVE INTENSITY
15	230
18	160
19	170
26	30
27	1180
28	1370
29	760
30	2450
31	710
32	110
39	400
40	80
41	1670
42	2100
43	2470
44	1150
45	1670
46	20
54	200
55	190
56	6380
57	430
58	770
59	50
60	110
68	80
69	20
70	1220
71	130
72	820
73	100
74	9999
75	380
76	10
84	170
85	40
86	320
88	510
100	120
102	290
104	60
114	120
116	5850
117	410
132	530
133	30
146	30
147	90
