Mass Spectrum: 3-Nitrobenzenesulfonamide
Formula: C6 H6 N2 O4 S
CAS: 121-52-8
Molecular weight: 202
Origin: Japan AIST/NIMC Database- Spectrum MS-IW-3799
m/z	RELATIVE INTENSITY
16	50
17	10
26	30
27	90
28	289
29	30
30	629
31	20
32	60
37	139
38	319
39	729
40	40
41	70
42	30
43	10
44	99
45	129
46	149
47	40
48	359
49	90
50	3339
51	629
52	299
53	289
54	90
55	80
56	10
57	20
58	40
60	10
61	109
62	239
63	909
64	2089
65	1979
66	259
67	50
68	20
69	209
70	159
71	20
72	10
73	179
74	1389
75	6729
76	3979
77	449
78	80
79	119
80	589
81	429
82	70
83	80
84	30
85	20
86	50
87	20
88	20
89	10
90	379
91	249
92	3729
93	549
94	50
95	149
96	139
97	30
105	20
106	70
107	279
108	1579
109	929
110	159
111	60
112	20
121	30
122	3629
123	349
124	119
125	10
135	10
137	10
138	3119
139	3269
140	249
141	40
154	10
156	2889
157	229
158	139
159	10
170	149
171	10
172	60
186	2539
187	199
188	139
189	10
202	9999
203	839
204	549
205	40
