Mass Spectrum: Vanillic acid
Formula: C8 H8 O4
CAS: 121-34-6
Molecular weight: 168
Origin: Japan AIST/NIMC Database- Spectrum MS-NW-2148
m/z	RELATIVE INTENSITY
12	20
13	10
14	70
15	409
16	20
17	30
18	109
25	40
26	179
27	389
28	329
29	319
30	30
31	159
32	10
36	20
37	159
38	259
39	589
40	109
41	649
42	70
43	179
44	199
45	229
46	10
48	10
49	99
50	549
51	1109
52	1089
53	519
54	99
55	369
56	20
57	10
59	10
60	20
61	109
62	239
63	459
64	159
65	429
66	109
67	199
68	139
69	279
70	20
71	219
73	10
74	40
75	40
76	20
77	289
78	70
79	609
80	309
81	359
82	30
83	40
84	20
90	10
91	99
92	119
93	139
94	90
95	139
96	99
97	2759
98	159
99	10
105	10
106	20
107	259
108	419
109	189
110	80
111	90
112	20
119	50
120	60
121	139
122	90
123	549
124	169
125	2279
126	149
127	10
135	30
136	70
137	90
138	30
139	30
140	20
149	40
151	1429
152	159
153	5599
154	549
155	70
165	20
166	10
167	70
168	9999
169	889
170	129
