Mass Spectrum: Benzenamine, 2-chloro-5-(trifluoromethyl)-
Formula: C7 H5 Cl F3 N
CAS: 121-50-6
Molecular weight: 195
Origin: Japan AIST/NIMC Database- Spectrum MS-NW-8897
m/z	RELATIVE INTENSITY
20	10
27	10
28	70
31	30
36	30
37	70
38	149
39	149
40	30
41	109
42	10
44	40
45	50
46	20
47	10
49	30
50	60
51	60
52	269
53	30
54	40
55	10
56	20
57	109
60	20
61	99
62	219
63	599
64	179
65	149
66	50
67	10
68	10
69	109
70	109
71	10
72	70
73	129
74	80
75	209
76	30
77	10
79	70
80	719
81	90
82	50
83	129
84	20
85	10
86	20
87	40
88	239
89	129
90	339
91	119
92	10
93	30
94	20
95	60
96	20
97	189
98	60
99	199
100	50
101	70
102	20
106	10
107	20
108	40
109	129
110	70
111	40
112	70
113	469
114	149
115	20
117	70
118	20
119	30
120	239
121	20
122	20
123	10
124	20
125	70
126	40
127	20
128	10
129	20
130	10
131	80
132	609
133	269
134	20
135	10
136	10
138	70
139	149
140	919
141	109
142	30
143	50
144	10
145	709
146	50
147	299
148	1049
149	99
150	329
151	20
154	20
155	20
156	50
157	10
158	139
159	129
160	1319
161	269
162	10
166	10
167	129
168	40
169	40
170	10
174	149
175	379
176	1319
177	229
178	419
179	90
180	20
181	20
194	229
195	9999
196	889
197	3249
198	259
199	10
