Mass Spectrum: Boric acid, trimethyl ester
Formula: C3 H9 B O3
CAS: 121-43-7
Molecular weight: 104
Origin: R.W. KISER KANSAS STATE UNIV., MANHATTAN, KANSAS, USA
m/z	RELATIVE INTENSITY
10	11
11	47
15	4750
29	2570
30	260
31	1090
41	190
42	840
43	2510
45	310
56	240
57	980
58	360
59	1140
71	440
72	4320
73	9999
88	130
89	530
102	80
103	1210
104	3600
105	120
