Mass Spectrum: 3,5-Dinitrobenzamide
Formula: C7 H5 N3 O5
CAS: 121-81-3
Molecular weight: 211
Origin: NIST Mass Spectrometry Data Center
m/z	RELATIVE INTENSITY
14	280
15	240
16	300
18	10
28	250
29	90
30	1591
37	290
38	601
39	270
41	210
44	3033
46	300
50	1401
51	420
52	500
53	250
61	410
62	721
63	1081
64	591
65	250
73	540
74	2803
75	5975
76	1251
77	250
78	180
79	280
80	210
90	290
91	771
92	310
101	160
102	450
103	1031
107	310
117	160
118	691
119	941
120	420
121	130
133	140
135	230
148	691
149	3193
150	330
163	140
165	2122
166	190
181	70
193	230
195	9999
196	811
211	7877
212	931
