Mass Spectrum: Trimethyl phosphite
Formula: C3 H9 O3 P
CAS: 121-45-9
Molecular weight: 124
Origin: Japan AIST/NIMC Database- Spectrum MS-NW- 817
m/z	RELATIVE INTENSITY
15	869
27	10
28	159
29	459
30	70
31	389
32	20
33	70
45	709
46	20
47	2339
48	239
49	159
50	10
61	50
62	619
63	4659
64	60
65	50
77	309
78	70
79	2109
80	419
81	10
92	90
93	9999
94	2799
95	219
96	10
109	5729
110	439
111	50
124	3939
125	139
126	20
