Mass Spectrum: Benzenamine, 2-chloro-4-nitro-
Formula: C6 H5 Cl N2 O2
CAS: 121-87-9
Molecular weight: 172
Origin: Japan AIST/NIMC Database- Spectrum MS-NW-3782
m/z	RELATIVE INTENSITY
14	30
15	20
16	20
17	10
18	20
24	20
25	50
26	109
27	139
28	269
29	70
30	819
31	10
35	30
36	119
37	399
38	549
39	1019
40	189
41	749
42	129
43	30
44	149
45	80
46	90
47	60
48	50
49	179
50	299
51	639
52	1779
53	249
54	139
55	30
56	10
57	10
60	90
61	509
62	1009
63	3529
64	959
65	709
66	189
67	30
68	10
69	10
70	10
71	30
72	139
73	929
74	259
75	459
76	129
77	159
78	449
79	209
80	229
81	30
84	50
85	40
86	99
87	259
88	189
89	399
90	9009
91	1589
92	119
93	20
94	10
95	10
96	50
97	169
98	189
99	2899
100	339
101	899
102	109
103	20
104	10
105	179
106	289
107	479
108	50
109	20
110	10
111	10
112	10
113	30
114	1249
115	99
116	429
117	30
118	10
119	20
120	20
121	30
122	169
123	20
124	40
125	289
126	3679
127	359
128	1189
129	99
134	10
135	10
136	30
137	70
138	10
139	10
140	40
141	30
142	5829
143	459
144	1959
145	159
146	10
149	10
154	10
156	379
157	30
158	139
159	10
170	10
171	20
172	9999
173	779
174	3309
175	269
176	30
