Mass Spectrum: Benzenamine, N,N-dimethyl-
Formula: C8 H11 N
CAS: 121-69-7
Molecular weight: 121
Origin: NIST Mass Spectrometry Data Center, 1990.
m/z	RELATIVE INTENSITY
12	6
13	9
14	57
15	596
16	13
18	89
25	10
26	92
27	299
28	232
29	44
30	46
36	11
37	105
38	251
39	784
40	124
41	201
42	1050
43	109
44	263
45	9
46	7
47	5
48	10
49	77
50	758
51	1633
52	489
53	130
54	66
55	27
58	76
60	442
62	139
63	420
64	246
65	360
66	110
67	26
68	36
69	9
73	58
74	242
75	168
76	240
77	2506
78	659
79	619
80	91
81	7
85	5
86	7
87	13
88	20
89	33
90	110
91	596
92	293
93	255
94	142
95	14
99	5
100	4
101	7
103	459
104	1453
105	1369
106	322
107	48
118	570
120	9999
121	6846
122	561
123	18
