Mass Spectrum: Ethanone, 1-(3-hydroxyphenyl)-
Formula: C8 H8 O2
CAS: 121-71-1
Molecular weight: 136
Origin: NIST Mass Spectrometry Data Center, 1994
m/z	RELATIVE INTENSITY
12	10
13	29
14	235
15	810
16	9
17	6
18	5
25	27
26	156
27	298
29	294
30	21
31	48
37	290
38	807
39	2660
40	142
41	75
42	367
43	2606
44	62
45	21
46	129
49	115
50	520
51	461
52	155
53	588
54	53
55	127
61	292
62	563
63	1263
64	664
65	3279
66	480
67	60
68	17
73	81
74	251
75	141
76	75
77	396
78	93
79	93
80	13
81	17
85	21
86	29
87	16
89	42
90	29
91	67
92	13
93	5444
94	486
95	39
105	15
107	116
108	14
118	12
119	53
121	9999
122	778
123	70
136	6166
137	545
138	21
