Mass Spectrum: Cyclopentadienylirondicarbonylchloride
Formula: C7 H5 Cl Fe O2
CAS: 12107-04-9
Molecular weight: 212
Origin: Institute of Organic Chemistry, Novosibirsk, USSR 1988
m/z	RELATIVE INTENSITY
54	99
56	499
65	399
66	299
91	249
93	399
94	299
95	299
120	1899
121	4099
122	199
128	99
129	149
130	449
132	149
149	299
154	1049
155	299
156	9999
157	1899
158	4099
159	399
175	99
177	599
182	299
184	4799
185	499
186	4499
187	699
210	299
212	3199
213	399
214	999
215	149
