Mass Spectrum: Cyclopentadienylmanganesedicarbonyltriphenylphosphine
Formula: C25 H20 Mn O2 P
CAS: 12100-41-3
Molecular weight: 438
Origin: Institute of Organic Chemistry, Novosibirsk, USSR 1988
m/z	RELATIVE INTENSITY
55	2899
56	199
65	99
66	99
77	299
107	299
108	899
109	99
120	4499
121	149
132	399
152	399
183	3899
184	599
185	899
186	99
196	599
238	299
261	399
262	999
263	139
316	199
382	9999
383	2499
384	199
438	499
439	69
