Mass Spectrum: Dibenzosuberone
Formula: C15 H12 O
CAS: 1210-35-1
Molecular weight: 208
Origin: Japan AIST/NIMC Database- Spectrum MS-NW-5881
m/z	RELATIVE INTENSITY
14	10
15	10
18	10
26	10
27	109
28	30
29	10
37	20
38	80
39	419
40	60
41	40
44	10
49	10
50	289
51	549
52	99
53	30
55	20
59	10
61	50
62	189
63	629
64	209
65	159
67	10
69	50
70	10
73	20
74	199
75	289
76	969
77	629
78	159
79	20
81	50
82	219
83	30
85	20
86	90
87	139
88	339
89	1599
90	619
91	269
92	30
93	10
94	50
95	30
96	30
97	10
98	60
99	60
100	20
101	80
102	209
103	339
104	119
105	139
106	10
109	10
110	30
111	30
113	50
114	30
115	239
116	40
117	10
118	80
119	20
120	10
122	20
123	10
124	10
125	30
126	129
127	99
128	119
129	30
130	189
131	239
132	30
133	10
134	10
135	20
136	20
137	30
138	20
139	229
140	30
141	40
142	10
148	20
149	30
150	159
151	439
152	839
153	199
154	30
155	10
156	10
157	10
158	10
159	20
162	10
163	129
164	119
165	2299
166	359
167	30
168	10
169	10
172	10
174	30
175	70
176	579
177	539
178	3329
179	4769
180	4929
181	749
182	70
183	10
185	10
187	20
188	10
189	70
190	40
191	149
192	40
193	539
194	109
195	10
205	70
206	159
207	3259
208	9999
209	1619
210	139
211	10
