Mass Spectrum: Manganese, tricarbonyl[(1,2,3,4,5-.eta.)-1-methyl-2,4-cyclopentadien-1-yl]-
Formula: C9 H7 Mn O3
CAS: 12108-13-3
Molecular weight: 218
Origin: ETHYL CORPORATION, FERNDALE, MICHIGAN
m/z	RELATIVE INTENSITY
27	330
28	440
29	110
39	350
41	110
51	190
53	180
55	9999
56	4230
67	330
77	930
78	230
79	3850
80	1210
81	500
93	200
134	8340
162	1860
190	230
218	1040
