Mass Spectrum: 9-Anthracenecarbonitrile
Formula: C15 H9 N
CAS: 1210-12-4
Molecular weight: 203
Origin: NIST Mass Spectrometry Data Center, 1990.
m/z	RELATIVE INTENSITY
27	33
38	45
39	150
49	30
50	171
51	153
52	49
61	95
62	180
63	224
74	379
75	671
76	163
77	64
85	58
86	156
87	718
88	1313
98	183
99	183
100	110
101	797
109	43
110	48
111	96
112	55
122	60
123	81
124	111
125	75
126	115
135	33
137	54
138	35
148	48
149	233
150	476
151	241
152	139
153	69
162	42
163	46
164	59
173	91
174	482
175	742
176	930
177	505
178	73
199	80
201	849
202	1160
203	9999
204	1654
205	118
