Mass Spectrum: Bis(cyclopentadienyl)hafnium dichloride
Formula: C10 H10 Cl2 Hf
CAS: 12116-66-4
Molecular weight: 380
Origin: Japan AIST/NIMC Database- Spectrum MS-IW- 247
m/z	RELATIVE INTENSITY
26	10
27	10
36	90
37	10
38	60
39	399
40	30
50	10
51	20
62	30
63	70
64	30
65	609
66	90
77	10
126	10
127	30
128	30
132	10
139	40
140	60
141	70
143	10
144	20
145	20
146	10
151	10
152	30
153	50
154	30
155	10
156	10
157	20
158	30
159	20
162	10
163	10
164	20
165	20
166	10
169	10
170	139
171	219
172	279
173	70
186	10
188	20
189	50
190	99
191	50
192	20
199	30
200	10
201	30
202	10
203	20
205	10
212	10
213	20
214	20
215	50
216	20
217	30
225	319
226	90
227	319
228	80
229	219
230	30
231	99
233	20
236	20
237	60
238	90
239	99
240	90
241	60
242	20
246	10
247	50
248	99
249	129
250	289
251	239
252	289
253	249
254	139
255	119
256	40
257	30
258	10
259	30
260	20
261	60
262	90
263	139
264	99
265	139
266	40
267	40
271	30
272	119
273	229
274	229
275	429
276	199
277	329
278	139
279	169
280	99
281	50
282	30
283	30
284	70
285	299
286	689
287	1099
288	989
289	1659
290	699
291	909
292	299
293	219
294	129
295	30
296	70
297	40
298	40
299	60
300	40
301	70
302	50
303	70
304	40
305	60
306	10
307	20
308	10
309	50
310	30
311	1009
312	3419
313	5769
314	4989
315	9999
316	2649
317	5029
318	609
319	839
320	60
321	30
322	10
323	10
324	20
325	40
326	20
327	30
328	10
329	10
336	10
337	30
338	60
339	109
340	90
341	259
342	389
343	619
344	409
345	789
346	159
347	199
348	20
349	10
350	10
351	20
352	10
353	10
359	10
361	10
374	20
375	20
376	589
377	2029
378	3469
379	3049
380	5819
381	1759
382	2809
383	449
384	409
385	40
