Mass Spectrum: 4-Biphenylamine, 4'-nitro-
Formula: C12 H10 N2 O2
CAS: 1211-40-1
Molecular weight: 214
Origin: A.A.Kutin, Moscow, Russia
m/z	RELATIVE INTENSITY
33	166
34	9
36	14
38	107
39	595
40	367
41	166
42	96
43	57
44	47
45	3
46	54
48	4
50	126
51	598
52	197
53	97
54	88
55	52
56	110
57	79
58	15
61	38
62	195
63	466
64	211
65	325
66	89
67	25
69	94
70	259
71	176
73	5
74	248
75	222
76	160
77	243
78	115
79	16
80	22
84	1276
85	178
86	81
87	159
88	149
89	393
90	166
91	143
92	63
93	5
95	16
97	4
98	71
99	61
100	39
101	87
102	226
103	66
104	38
106	5
107	19
109	4
110	31
112	32
113	102
114	196
115	953
116	197
117	360
118	44
119	9
121	9
123	10
125	27
126	114
127	196
128	373
130	303
131	20
137	30
138	118
139	1203
140	753
141	838
142	127
143	24
149	11
150	107
151	683
152	1101
153	262
154	155
156	1071
157	115
158	2
164	75
166	1089
167	4401
168	3164
169	340
170	39
171	14
172	5
174	2
179	5
181	30
182	26
184	1612
185	143
186	10
196	19
198	62
199	5
214	9999
215	1254
216	80
