Mass Spectrum: Methyl jasmonate
Formula: C13 H20 O3
CAS: 1211-29-6
Molecular weight: 224
Origin: N.W. Davies, Centr. Sci. Lab., Univ. Tasmania, Hobart, Australia
m/z	RELATIVE INTENSITY
24	60
26	360
27	1430
29	880
31	650
33	60
34	80
39	1280
40	1180
41	5340
42	830
43	1150
44	270
45	90
50	60
51	440
52	300
53	1710
54	620
55	2940
56	500
57	340
58	90
59	1590
60	300
61	50
63	290
64	230
65	790
66	680
67	3300
68	1100
69	1470
70	170
71	60
73	10
74	620
75	700
76	230
77	950
78	470
79	2740
80	770
81	1810
82	2450
83	9999
84	540
85	450
86	170
90	50
91	1510
92	340
93	2830
94	1060
95	3180
96	1210
97	550
99	190
100	100
103	100
105	640
106	380
107	970
108	1140
109	2800
110	280
111	360
113	190
115	50
117	600
119	160
120	200
121	1220
122	260
123	720
124	550
125	200
127	90
131	270
132	830
133	810
134	190
135	1060
136	300
137	290
138	130
139	60
141	140
145	190
146	330
147	280
148	90
149	620
150	1110
151	4560
152	650
153	150
154	160
155	430
156	2000
157	220
159	40
162	70
163	240
164	90
165	100
167	280
168	40
169	120
177	480
179	140
181	100
191	80
192	100
193	1330
194	200
195	400
200	40
206	580
207	80
224	2340
225	570
