Mass Spectrum: Titanium, dicarbonylbis(.eta.5-2,4-cyclopentadien-1-yl)-
Formula: C12 H10 O2 Ti
CAS: 12129-51-0
Molecular weight: 234
Origin: D.HENNEBERG, MAX-PLANCK INSTITUTE, MULHEIM, WEST GERMANY
m/z	RELATIVE INTENSITY
26	113
27	226
28	3571
29	140
30	10
31	40
32	1
36	3
37	31
38	63
39	374
40	147
41	434
42	965
43	164
44	41
45	10
46	80
47	75
48	686
49	76
50	50
51	24
52	6
53	7
57	4
59	6
60	11
61	55
62	28
63	67
64	15
65	105
66	126
67	6
69	5
71	255
72	307
73	869
74	167
75	246
76	40
77	27
78	13
79	6
82	15
83	51
84	132
85	579
86	677
87	1170
88	258
89	758
90	169
91	7
92	5
93	2
94	5
95	15
96	41
97	108
98	227
99	159
100	44
101	16
102	11
103	28
104	6
105	3
106	7
107	8
108	16
109	65
110	87
111	488
112	562
113	3155
114	448
115	257
116	13
117	12
119	2
120	4
121	34
122	40
123	97
124	164
125	136
126	116
127	31
128	34
129	34
130	44
131	14
132	24
133	6
134	7
135	10
136	44
137	53
138	147
139	24
140	16
141	12
142	4
144	3
146	4
147	10
148	29
149	80
150	380
151	254
152	895
153	158
154	78
155	7
161	8
162	3
163	8
164	3
165	5
166	7
167	5
168	5
169	4
172	8
173	16
174	56
175	70
176	1166
177	1176
178	9999
179	1783
180	859
181	79
182	9
184	4
185	5
186	48
187	9
188	4
189	6
190	7
191	6
192	34
193	8
194	37
195	9
196	4
198	4
199	2
204	34
205	41
206	282
207	64
208	26
209	3
211	2
212	3
214	7
216	4
217	1
232	30
233	34
234	294
235	53
236	26
237	5
