Mass Spectrum: Tungsten, tricarbonyl[(1,2,3,4,5,6-.eta.<6>)-1,3,5-cycloheptatriene]-
Formula: C10 H8 O3 W
CAS: 12128-81-3
Molecular weight: 360
Origin: R.B.KING UNIVERSITY OF GEORGIA, ATHENS, GEORGIA, USA
m/z	RELATIVE INTENSITY
39	1610
50	508
51	762
52	466
63	805
75	2161
78	1610
91	9999
92	4576
184	55
197	84
209	169
222	974
234	127
248	889
260	127
274	2500
276	4237
304	762
332	550
360	1525
