Mass Spectrum: Tungsten, tricarbonyl[(1,2,3,4,5,6-.eta.)-1,3,5-trimethylbenzene]-
Formula: C12 H12 O3 W
CAS: 12129-69-0
Molecular weight: 388
Origin: R.B.KING UNIVERSITY OF GEORGIA, ATHENS, GEORGIA, USA
m/z	RELATIVE INTENSITY
39	1285
41	1285
50	401
51	883
53	602
55	682
63	401
65	602
67	401
69	401
77	1485
78	602
79	1084
91	1164
105	9999
119	1767
120	6104
130	200
136	481
142	281
143	281
148	481
149	1646
150	883
151	883
165	481
166	281
180	281
194	281
210	200
222	481
234	401
247	682
260	481
274	1084
300	2369
302	1767
304	4016
332	4417
360	1847
388	2530
