Mass Spectrum: Molybdenum,tricarbonyl[(1,2,3,4,5,6-.eta.)-1,3,5-cycloheptatriene]-
Formula: C10 H8 Mo O3
CAS: 12125-77-8
Molecular weight: 274
Origin: Japan AIST/NIMC Database- Spectrum MS-IW-2034
m/z	RELATIVE INTENSITY
27	20
28	499
37	10
38	20
39	129
40	10
41	20
45	10
50	30
51	50
52	169
53	20
57	10
61	10
62	30
63	70
64	10
65	209
66	20
77	30
78	70
79	10
80	20
81	30
82	10
86	10
89	50
90	20
91	1499
92	829
93	289
94	389
95	549
96	389
97	209
98	529
99	10
100	209
104	70
105	129
106	199
107	199
108	359
109	419
110	349
111	299
112	219
113	99
114	70
116	10
117	70
118	60
119	60
120	249
121	209
122	269
123	379
124	189
125	90
126	90
127	10
128	40
129	209
130	649
131	339
132	689
133	1059
134	1139
135	1039
136	1289
137	539
138	519
139	139
140	40
141	20
142	40
143	40
144	399
145	119
146	99
147	109
148	90
149	70
150	50
151	30
152	20
153	40
154	80
155	189
156	579
157	479
158	779
159	999
160	1179
161	1139
162	1259
163	689
164	679
165	189
166	129
167	10
168	40
169	10
170	40
171	50
172	129
173	60
174	70
175	20
176	40
177	10
178	10
179	10
180	279
181	139
182	2259
183	859
184	6699
185	3239
186	6509
187	7819
188	9999
189	4619
190	9989
191	979
192	3389
193	249
194	10
200	50
201	10
211	10
212	809
213	70
214	529
215	929
216	1009
217	629
218	1379
219	129
220	549
221	50
228	149
229	30
240	859
241	90
242	539
243	989
244	1069
245	659
246	1479
247	149
248	579
249	60
266	10
268	2149
269	229
270	1359
271	2429
272	2689
273	1679
274	3669
275	419
276	1459
277	159
278	20
