Mass Spectrum: Tungsten, tricarbonyl(.eta.5-2,4-cyclopentadien-1-yl)hydro-
Formula: C8 H6 O3 W
CAS: 12128-26-6
Molecular weight: 334
Origin: R.B.KING UNIVERSITY OF GEORGIA, ATHENS, GEORGIA, USA
m/z	RELATIVE INTENSITY
39	300
40	200
65	400
66	700
125	3000
139	400
153	400
167	150
184	200
186	700
197	200
209	300
221	2300
222	2800
249	2800
250	9999
277	1400
278	2600
305	1900
306	4600
334	4300
