Mass Spectrum: Benzyladenine
Formula: C12 H11 N5
CAS: 1214-39-7
Molecular weight: 225
Origin: NIST Mass Spectrometry Data Center, 2010
m/z	RELATIVE INTENSITY
15	10
26	20
27	100
28	941
29	40
30	150
37	20
38	130
39	540
40	160
41	160
42	30
43	70
44	10
45	20
46	10
49	10
50	190
51	500
52	180
53	330
54	140
55	40
56	10
57	10
60	10
61	20
62	90
63	390
64	170
65	2002
66	841
67	370
68	100
69	10
70	20
71	10
72	10
73	20
74	60
75	70
76	100
77	811
78	210
79	1091
80	210
81	40
82	10
85	40
86	20
87	20
88	30
89	510
90	220
91	4004
92	861
93	1361
94	470
95	50
96	10
98	100
100	10
101	30
102	50
103	70
104	380
105	250
106	8127
107	681
108	120
109	190
110	10
111	200
112	220
114	30
115	50
116	150
117	90
118	30
119	1161
120	1682
121	791
122	60
123	10
125	20
126	10
127	40
128	90
129	60
130	20
131	30
132	10
133	10
134	20
135	70
136	10
140	10
141	40
142	140
143	100
144	20
145	10
146	100
147	50
148	1021
149	90
150	10
153	40
154	60
155	70
156	50
157	10
158	10
160	10
167	10
168	30
169	140
170	130
171	30
172	10
173	10
179	10
180	50
181	30
182	50
183	20
184	10
195	80
196	70
197	390
198	130
199	20
207	50
208	130
209	440
210	100
211	10
212	10
224	4524
225	9999
226	1381
227	80
