Mass Spectrum: E-1-Methoxy-3-hexene
Formula: C7 H14 O
CAS: 121441-40-5
Molecular weight: 114
Origin: R.D.Bowen ET AL, Org. Mass Spectrom., 26,421(1991)
m/z	RELATIVE INTENSITY
39	901
40	200
41	2102
42	300
43	2502
45	9999
46	200
53	400
54	200
55	400
56	100
57	100
58	1001
59	500
67	1001
68	500
69	500
71	400
81	100
82	2502
83	200
85	50
