Mass Spectrum: Propane, 1-(ethynylsulfinyl)-
Formula: C5 H8 O S
CAS: 121564-27-0
Molecular weight: 116
Origin: F. TURECEK,HEYROVSKY INST PHYS CHEM & ELECTROCHEM,PRAGUE,CZECH
m/z	RELATIVE INTENSITY
14	170
15	570
25	220
26	750
27	7220
29	620
31	220
33	100
34	160
37	310
38	570
39	3940
40	570
41	9680
42	1250
43	9999
44	520
45	1710
46	630
47	600
48	490
51	110
53	100
55	240
56	160
57	1110
58	1080
59	280
60	190
63	180
65	150
67	650
68	220
69	120
70	170
71	310
73	700
74	3430
75	330
76	330
85	230
99	230
100	410
101	110
115	50
116	150
117	70
