Mass Spectrum: 5-(.beta.-Bromoallyl)-5-(1-methylbutyl)barbituric acid
Formula: C12 H17 Br N2 O3
CAS: 1216-40-6
Molecular weight: 316
Origin: Finnigan MAT: Toxicological Library (LIBR-TX)
m/z	RELATIVE INTENSITY
71	104
77	161
79	171
80	115
95	182
96	141
106	176
121	178
122	202
123	175
124	1044
155	129
165	130
166	235
167	9999
168	906
169	146
237	2671
238	375
317	99
