Mass Spectrum: Adamantane-1-carboxamide, N-(4-bromophenyl)-
Formula: C17 H20 Br N O
CAS: 121768-29-4
Molecular weight: 333
Origin: Zaikin V.G., TIPS RAS, Moscow, Russia
m/z	RELATIVE INTENSITY
28	10
29	30
39	80
41	190
43	30
53	80
55	170
63	50
64	40
65	120
66	30
67	300
69	70
77	270
78	70
79	801
80	70
81	230
90	30
91	410
92	150
93	741
94	60
105	80
107	340
108	30
119	30
135	9999
136	971
137	40
163	140
169	40
170	70
171	150
172	80
173	140
248	110
250	120
254	30
305	40
307	40
333	1001
334	190
335	1001
336	180
