Mass Spectrum: 9,10-Anthracenedicarbonitrile
Formula: C16 H8 N2
CAS: 1217-45-4
Molecular weight: 228
Origin: Japan AIST/NIMC Database- Spectrum MS-NW-7043
m/z	RELATIVE INTENSITY
26	10
27	20
37	10
38	20
39	70
41	10
43	20
49	10
50	70
51	80
52	20
55	20
56	20
57	30
61	50
62	90
63	90
64	30
69	10
71	20
73	30
74	149
75	129
76	70
77	30
83	20
85	30
86	80
87	359
88	70
89	20
93	10
94	10
97	10
98	109
99	99
100	339
101	129
102	10
109	10
110	40
111	60
112	40
113	50
114	409
115	10
121	10
122	30
123	70
124	80
125	40
126	30
127	20
134	10
135	20
136	10
137	10
138	10
139	10
147	20
148	40
149	70
150	109
151	80
152	30
153	20
160	10
161	10
162	20
163	10
164	20
165	10
172	20
173	70
174	239
175	309
176	119
177	90
178	50
179	10
186	10
188	30
189	30
190	10
198	20
199	229
200	429
201	709
202	259
203	189
204	30
212	10
213	10
224	20
225	30
226	229
227	519
228	9999
229	1799
230	189
231	20
