Mass Spectrum: 1,1'-Dibenzoylferrocene
Formula: C24 H18 Fe O2
CAS: 12180-80-2
Molecular weight: 394
Origin: Japan AIST/NIMC Database- Spectrum MS-NW-8241
m/z	RELATIVE INTENSITY
27	10
28	30
39	60
41	10
43	20
50	20
51	119
52	10
54	40
55	10
56	719
57	30
63	50
64	30
65	60
69	20
71	10
73	10
75	10
76	10
77	619
78	50
81	109
82	10
83	10
89	60
91	30
92	40
93	30
94	119
95	30
97	10
102	30
103	20
105	459
106	50
107	60
113	20
114	30
115	479
116	50
118	20
119	40
120	80
121	99
122	20
126	10
127	30
128	50
129	20
131	109
132	60
133	1379
134	129
135	10
138	10
139	199
140	149
141	919
142	139
143	10
144	20
145	10
150	10
151	20
152	109
153	50
154	10
155	10
157	50
158	20
159	10
165	50
166	20
168	30
169	30
170	159
171	80
172	30
176	10
177	10
178	60
179	50
180	10
181	10
182	10
183	20
184	10
185	10
189	40
190	30
191	20
192	10
194	30
195	80
196	339
197	859
198	149
199	10
201	10
202	199
203	239
204	139
205	70
206	10
208	10
209	10
210	10
212	10
213	20
214	10
215	139
216	70
217	40
218	10
221	10
222	10
223	50
224	20
225	459
226	80
227	10
228	10
233	10
234	20
235	30
236	10
240	10
244	10
258	60
259	60
260	549
261	529
262	99
263	10
270	10
271	40
272	10
273	259
274	60
275	10
276	10
277	10
278	20
279	10
280	10
287	40
288	50
289	549
290	269
291	60
292	20
301	40
302	10
317	50
318	10
335	10
336	50
337	80
338	119
339	30
347	20
348	10
363	10
364	20
365	80
366	129
367	30
392	649
393	199
394	9999
395	2839
396	469
397	50
