Mass Spectrum: Cobalt, [(1,2,5,6-.eta.)-1,5-cyclooctadiene](.eta.5-2,4-cyclopentadien-1-yl)-
Formula: C13 H17 Co
CAS: 12184-35-9
Molecular weight: 232
Origin: D.HENNEBERG, MAX-PLANCK INSTITUTE, MULHEIM, WEST GERMANY
m/z	RELATIVE INTENSITY
27	233
28	1076
29	80
37	16
38	47
39	659
40	171
41	357
42	27
43	36
44	70
49	7
50	46
51	71
52	57
53	182
54	843
55	76
56	20
57	95
59	2419
60	55
62	19
63	64
64	21
65	359
66	481
67	837
68	52
69	24
70	10
71	68
73	20
74	42
77	284
78	131
79	731
80	431
81	64
82	17
83	18
84	71
85	213
86	271
87	30
89	13
91	361
92	43
93	211
94	19
95	27
97	75
98	678
99	247
100	84
101	55
102	27
103	121
104	30
105	464
106	57
107	39
108	128
109	13
110	49
111	188
112	329
113	608
114	263
115	47
116	21
121	21
122	15
123	44
124	9999
125	1033
126	68
127	18
128	17
129	20
135	13
136	340
137	2090
138	1655
139	123
140	49
141	14
148	39
149	46
150	272
151	360
152	73
160	15
161	101
162	626
163	496
164	1981
165	661
166	118
167	18
174	87
175	61
176	67
177	30
178	730
179	83
180	6
186	35
187	38
188	46
189	896
190	121
191	80
192	15
200	14
201	23
202	7874
203	1412
204	139
205	8
211	6
213	12
215	176
216	110
217	202
218	25
225	7
226	43
227	128
228	480
229	709
230	1498
231	378
232	4939
233	582
234	47
