Mass Spectrum: 7,14-Methano-2H,6H-dipyrido[1,2-a:1',2'-e][1,5]diazocin-6-one, dodecahydro-, [7R-(7.alpha.,7a.alpha.,14.alpha.,14a.alpha.)]-
Formula: C15 H24 N2 O
CAS: 1218-51-5
Molecular weight: 248
Origin: SAS 0028
m/z	RELATIVE INTENSITY
39	921
40	200
41	3003
42	1421
43	370
44	420
51	100
52	120
53	1001
54	1261
55	2702
56	1001
57	160
59	100
65	280
66	200
67	1101
68	1161
69	801
70	480
77	420
78	230
79	591
80	1231
81	741
82	1301
83	1752
84	3573
85	150
91	250
92	140
93	400
94	761
95	480
96	4504
97	5305
98	4404
99	400
105	100
106	400
107	240
108	731
109	851
110	2422
111	951
112	450
118	100
120	300
121	220
122	1391
123	2312
124	1712
125	180
132	100
133	100
134	1451
135	851
136	9999
137	4654
138	2532
139	280
148	320
149	1181
150	691
151	380
152	290
153	400
162	270
163	300
164	671
165	350
166	290
167	100
176	100
177	230
178	170
190	100
191	1061
192	1021
193	300
205	611
206	200
207	200
215	100
218	100
219	901
220	4504
221	761
233	100
245	270
246	651
247	4604
248	7006
249	1181
250	90
