Mass Spectrum: Chromium, hexacarbonylbis(.eta.5-2,4-cyclopentadien-1-yl)di-, (Cr-Cr)
Formula: C16 H10 Cr2 O6
CAS: 12194-12-6
Molecular weight: 402
Origin: R.B.KING UNIVERSITY OF GEORGIA, ATHENS, GEORGIA, USA
m/z	RELATIVE INTENSITY
52	9999
80	772
91	1136
117	4545
145	1181
146	772
173	1045
174	272
182	45
201	500
202	454
208	45
234	45
290	45
318	45
346	45
374	45
402	45
