Mass Spectrum: (.eta.5-cyclopentadienyl)dicarbonylrhodium
Formula: C7 H5 O2 Rh
CAS: 12192-97-1
Molecular weight: 224
Origin: Institute of Organic Chemistry, Novosibirsk, USSR 1988
m/z	RELATIVE INTENSITY
65	149
66	199
103	2529
104	49
112	499
115	1299
116	199
128	99
129	99
131	549
132	49
140	899
141	499
142	2949
143	99
164	199
165	49
166	149
167	149
168	9999
169	599
195	49
196	3199
197	199
224	2219
225	209
