Mass Spectrum: Iron, tricarbonylchloro(.eta.3-2-propenyl)-
Formula: C6 H5 Cl Fe O3
CAS: 12192-47-1
Molecular weight: 216
Origin: A.E. HILL, VICTORIA COLLEGE, JERSEY
m/z	RELATIVE INTENSITY
56	9100
67	4100
69	8800
71	2200
84	2200
91	3800
95	4100
96	6500
97	9999
119	1100
125	2400
132	600
138	1000
147	200
153	4300
160	4800
166	500
181	1800
188	2000
194	100
216	30
