Mass Spectrum: Iron, bromotricarbonyl(.eta.3-2-propenyl)-
Formula: C6 H5 Br Fe O3
CAS: 12192-46-0
Molecular weight: 260
Origin: A.E. HILL, VICTORIA COLLEGE, JERSEY
m/z	RELATIVE INTENSITY
56	9999
68	600
69	600
70	800
71	1500
81	700
82	600
84	2700
93	700
94	800
95	2800
96	6000
97	5500
112	500
125	3700
134	100
135	4900
138	200
153	1100
162	30
163	1200
166	100
176	2400
181	400
191	200
194	30
204	2000
232	800
260	100
