Mass Spectrum: Benzene, 1,2-dimethoxy-4-(2-nitro-1-propenyl)-
Formula: C11 H13 N O4
CAS: 122-47-4
Molecular weight: 223
Origin: NIST Mass Spectrometry Data Center, 1994
m/z	RELATIVE INTENSITY
15	3006
16	85
18	147
26	162
27	599
28	520
29	398
30	884
31	167
32	73
37	95
38	438
39	2002
40	260
41	723
42	225
43	580
44	74
45	287
47	53
50	1132
51	2453
52	645
53	969
54	159
55	705
56	62
57	124
58	53
59	336
61	175
62	894
63	2427
64	999
65	2950
66	411
67	328
68	168
69	440
73	69
74	474
75	969
76	1093
77	3496
78	1035
79	2274
80	420
81	252
82	221
83	351
84	53
85	136
86	139
87	262
88	53
89	2125
90	1538
91	4368
92	1422
93	650
94	331
95	1111
96	166
97	123
98	83
99	114
101	236
102	988
103	3160
104	906
105	2195
106	867
107	1272
108	631
109	264
110	246
111	721
112	134
113	186
114	83
115	2871
116	851
117	677
118	941
119	2572
120	793
121	1004
122	425
123	801
124	321
125	510
126	194
127	94
128	94
129	203
130	488
131	4183
132	1072
133	2163
134	954
135	715
136	821
137	359
138	1286
139	1235
140	500
141	105
143	74
144	112
145	553
146	3299
147	1860
148	673
149	384
150	561
151	514
152	327
153	261
154	100
159	67
161	3228
162	1729
163	659
164	428
165	1312
166	1241
167	264
176	6833
177	1602
178	600
179	96
180	265
190	135
191	192
192	1748
193	421
194	62
206	296
207	108
208	263
223	9999
224	1238
225	159
