Mass Spectrum: 2-Butanone, 4-(4-hydroxy-3-methoxyphenyl)-
Formula: C11 H14 O3
CAS: 122-48-5
Molecular weight: 194
Origin: W. KELLY UNILEVER RESEARCH COLWORTH/WELWYN, BEDFORD U.K.
m/z	RELATIVE INTENSITY
39	550
41	150
42	60
43	3100
50	110
51	510
52	310
53	300
55	330
63	200
64	70
65	500
66	200
77	670
78	190
79	350
80	110
81	100
90	40
91	1300
92	120
93	40
94	420
105	220
106	100
107	390
108	120
109	160
119	1500
120	210
122	650
123	100
124	610
133	120
135	250
136	200
137	9999
138	1000
147	100
150	100
151	1600
152	150
161	80
163	50
179	240
194	4600
195	430
