Mass Spectrum: Benzenemethanol, 4-methoxy-, formate
Formula: C9 H10 O3
CAS: 122-91-8
Molecular weight: 166
Origin: RADIAN CORP
m/z	RELATIVE INTENSITY
51	70
52	120
61	10
66	110
67	30
77	560
78	830
79	130
89	390
90	200
91	810
94	350
105	160
106	230
109	310
119	180
120	1350
121	9999
122	980
123	50
138	170
156	100
158	20
166	3140
167	320
168	20
