Mass Spectrum: Propane, 1,1,3,3-tetraethoxy-
Formula: C11 H24 O4
CAS: 122-31-6
Molecular weight: 220
Origin: Japan AIST/NIMC Database- Spectrum MS-NW-2712
m/z	RELATIVE INTENSITY
14	20
15	119
17	10
18	30
25	10
26	109
27	599
28	199
29	1269
30	30
31	539
32	20
39	10
41	40
42	60
43	469
44	439
45	1119
46	80
47	3809
48	40
49	10
54	20
55	50
56	50
57	209
58	109
59	60
60	10
61	50
71	549
72	189
73	559
74	40
75	4199
76	149
77	20
83	10
85	139
86	139
87	20
89	229
90	10
99	20
100	20
101	239
102	30
103	9999
104	549
105	50
117	239
118	10
129	299
130	80
131	10
145	459
146	40
174	50
175	10
