Mass Spectrum: 2-Propanol, 1,1',1''-nitrilotris-
Formula: C9 H21 N O3
CAS: 122-20-3
Molecular weight: 191
Origin: Japan AIST/NIMC Database- Spectrum MS-NW-3712
m/z	RELATIVE INTENSITY
15	309
17	10
18	20
26	30
27	259
28	139
29	219
30	459
31	1159
32	20
36	10
37	10
38	20
39	229
40	50
41	1419
42	1979
43	709
44	889
45	479
46	10
52	10
53	20
54	40
55	109
56	239
57	329
58	339
59	1849
60	70
67	20
68	90
69	50
70	3969
71	309
72	209
73	10
74	20
79	10
80	10
81	30
82	40
83	20
84	90
85	40
86	139
87	20
88	1859
89	129
90	10
92	10
94	20
95	10
96	40
97	30
98	989
99	70
100	229
101	30
102	509
103	30
108	10
110	60
111	10
112	50
113	20
114	129
115	10
116	149
117	10
118	10
126	20
127	10
128	209
129	20
130	199
131	20
132	50
134	10
140	30
142	10
144	70
145	10
146	9999
147	869
148	70
154	30
155	20
156	10
158	149
159	20
160	30
172	40
174	40
176	229
177	20
190	40
191	30
