Mass Spectrum: Diphenylamine
Formula: C12 H11 N
CAS: 122-39-4
Molecular weight: 169
Origin: NIST Mass Spectrometry Data Center, 1990.
m/z	RELATIVE INTENSITY
27	138
28	210
32	59
37	70
38	273
39	895
40	141
41	82
50	710
51	2151
52	434
53	49
57	41
59	121
61	73
62	229
63	703
64	490
65	1106
66	932
67	68
70	159
71	266
72	297
73	44
74	263
75	233
76	330
77	1636
78	294
84	1732
87	70
88	86
89	311
90	155
91	219
92	160
93	107
101	65
102	111
103	99
104	188
113	107
114	120
115	686
116	150
117	91
126	46
127	137
128	201
129	73
130	69
139	447
140	364
141	584
142	279
143	182
152	37
153	60
154	286
166	718
167	3770
168	6825
169	9999
170	1210
171	85
