Mass Spectrum: Benzenepropanol, propanoate
Formula: C12 H16 O2
CAS: 122-74-7
Molecular weight: 192
Origin: W.Jennings, T.Shibamoto
m/z	RELATIVE INTENSITY
27	280
28	190
29	5935
30	70
31	190
39	70
41	591
43	70
57	7597
58	190
65	591
70	70
77	70
78	711
79	70
90	190
91	6326
92	991
103	480
104	190
105	390
113	190
115	480
116	4194
117	8998
118	9999
119	1992
139	70
