Mass Spectrum: m-Cresyl acetate
Formula: C9 H10 O2
CAS: 122-46-3
Molecular weight: 150
Origin: Japan AIST/NIMC Database- Spectrum MS-NW-3371
m/z	RELATIVE INTENSITY
13	10
14	40
15	209
26	30
27	199
28	20
29	20
37	40
38	99
39	419
40	50
41	50
42	80
43	1679
44	40
45	20
49	20
50	169
51	329
52	189
53	249
54	20
55	40
60	20
61	30
62	60
63	169
64	70
65	169
66	40
67	20
68	20
69	10
73	10
74	40
75	20
76	20
77	839
78	259
79	769
80	349
81	40
86	10
87	10
89	70
90	439
91	299
92	30
93	10
94	10
105	20
106	60
107	3319
108	9999
109	779
110	50
121	10
135	10
150	1279
151	129
152	10
