Mass Spectrum: Simazine
Formula: C7 H12 Cl N5
CAS: 122-34-9
Molecular weight: 201
Origin: ACCUSTANDARD Chemicals / NIST MS Data Center.
m/z	RELATIVE INTENSITY
13	31
14	144
15	614
17	33
18	283
25	42
26	349
27	2596
28	1879
29	2925
30	830
32	256
35	42
36	63
37	22
38	58
39	126
40	347
41	620
42	1784
43	4729
44	7954
45	248
49	49
51	27
52	71
53	742
54	383
55	2467
56	240
57	57
58	30
62	1035
63	54
64	335
65	24
66	91
67	681
68	4863
69	1729
70	570
71	2621
72	132
73	19
74	22
75	30
76	37
77	33
78	175
79	226
80	362
81	352
82	170
83	253
84	72
85	19
86	1789
87	980
88	146
89	387
90	296
91	1655
92	30
93	1916
94	681
95	521
96	2855
97	361
98	39
101	28
102	64
104	1160
105	404
106	413
107	206
108	37
109	123
110	666
111	114
112	27
115	53
116	211
117	694
118	106
119	254
120	38
121	164
122	673
123	1325
124	104
127	16
128	45
129	383
130	466
131	539
132	1450
133	192
134	455
135	57
136	244
137	352
138	2664
139	188
141	46
143	729
144	249
145	1451
146	153
147	455
148	47
150	156
155	68
156	92
158	2490
159	518
160	812
161	137
164	116
165	61
166	357
167	38
170	114
172	2164
173	4689
174	1049
175	1518
176	120
184	116
186	6243
187	617
188	2021
189	181
198	149
200	1879
201	9999
202	1523
203	3284
204	309
