Mass Spectrum: Acetic acid, phenyl ester
Formula: C8 H8 O2
CAS: 122-79-2
Molecular weight: 136
Origin: Chuck Anderson, Aldrich Chemical Co.
m/z	RELATIVE INTENSITY
12	1
13	7
14	38
15	221
16	3
24	1
25	7
26	52
27	104
28	45
29	32
30	1
31	25
32	11
36	6
37	110
38	367
39	1490
40	253
41	45
42	141
43	2838
44	66
45	9
46	1
47	2
48	2
49	27
50	250
51	413
52	40
53	67
54	13
55	209
56	7
57	1
60	7
61	57
62	136
63	359
64	125
65	1009
66	1341
67	74
68	23
69	2
73	18
74	73
75	35
76	34
77	284
78	39
79	33
80	2
81	1
89	2
90	1
91	4
92	15
93	169
94	9999
95	598
96	37
97	2
105	4
107	7
108	1
120	1
121	3
136	1822
137	159
138	15
139	1
