Mass Spectrum: Acetamide, N-(4-aminophenyl)-
Formula: C8 H10 N2 O
CAS: 122-80-5
Molecular weight: 150
Origin: Japan AIST/NIMC Database- Spectrum MS-NW-1717
m/z	RELATIVE INTENSITY
14	50
15	299
17	10
18	30
26	60
27	199
28	379
29	50
30	60
37	30
38	90
39	279
40	80
41	179
42	139
43	1209
44	50
49	10
50	80
51	209
52	749
53	1059
54	379
55	99
56	30
57	30
60	10
61	30
62	80
63	179
64	109
65	229
66	90
67	119
68	30
69	20
71	10
74	10
75	20
76	30
77	60
78	159
79	319
80	2369
81	899
82	80
83	10
89	10
90	109
91	149
92	80
93	50
94	20
95	10
97	10
104	10
105	199
106	249
107	3519
108	9999
109	909
110	40
119	30
120	10
121	50
132	20
134	99
135	20
149	60
150	6179
151	589
152	40
