Mass Spectrum: Benzoyl chloride, 4-chloro-
Formula: C7 H4 Cl2 O
CAS: 122-01-0
Molecular weight: 174
Origin: NIST Mass Spectrometry Data Center
m/z	RELATIVE INTENSITY
12	40
13	10
18	10
24	20
25	110
26	180
27	60
28	30
29	10
35	340
36	300
37	1221
38	1501
39	140
43	30
44	20
47	110
48	130
49	711
50	3433
51	831
52	130
53	150
56	440
57	140
60	180
61	430
62	230
63	270
65	40
68	10
70	661
71	230
72	160
73	881
74	2222
75	4064
76	921
77	120
79	10
81	10
84	270
85	470
86	140
87	190
88	10
95	10
96	10
97	20
104	110
105	10
108	30
109	70
111	5205
112	410
113	1601
114	100
123	10
127	10
139	9999
140	851
141	3253
142	230
143	10
145	10
146	20
148	10
174	641
175	50
176	420
177	30
178	70
