Mass Spectrum: Ethanol, 2-(phenylamino)-
Formula: C8 H11 N O
CAS: 122-98-5
Molecular weight: 137
Origin: RADIAN CORP
m/z	RELATIVE INTENSITY
15	10
18	10
26	20
27	90
28	40
29	130
30	110
31	200
37	30
38	100
39	360
40	50
41	70
42	70
43	70
44	50
45	40
49	20
50	410
51	1280
52	290
53	90
54	30
56	20
59	20
61	20
62	90
63	260
64	160
65	570
66	200
67	30
74	160
75	130
76	180
77	3730
78	730
79	1520
80	130
86	20
88	20
89	60
90	40
91	1050
92	160
93	210
94	20
103	20
104	610
105	310
106	9999
107	830
108	30
117	90
118	150
119	50
120	250
121	20
133	20
137	1570
138	140
