Mass Spectrum: Ethyl orthoformate
Formula: C7 H16 O3
CAS: 122-51-0
Molecular weight: 148
Origin: Japan AIST/NIMC Database- Spectrum MS-NW- 511
m/z	RELATIVE INTENSITY
14	20
15	139
17	10
18	30
19	10
25	10
26	149
27	1059
28	609
29	2389
30	90
31	1069
32	20
39	20
41	40
42	40
43	279
44	80
45	1039
46	70
47	9999
48	119
49	50
56	10
57	10
59	80
60	20
63	259
73	40
74	70
75	4379
76	149
77	30
78	40
91	80
102	30
103	5639
104	299
105	40
119	30
147	99
