Mass Spectrum: Carbamic acid, phenyl-, 1-methylethyl ester
Formula: C10 H13 N O2
CAS: 122-42-9
Molecular weight: 179
Origin: NIST Mass Spectrometry Data Center, 1995
m/z	RELATIVE INTENSITY
12	21
14	14
15	340
16	7
18	19
19	185
25	38
26	281
27	2297
28	279
37	348
38	807
39	2996
40	580
41	3813
42	38
43	9999
44	530
45	2028
46	81
48	11
49	59
50	435
51	932
52	413
53	88
54	78
55	13
57	17
59	513
60	40
61	112
62	259
63	834
64	1388
65	2595
66	1293
67	142
68	10
73	23
74	102
75	78
76	126
77	1186
78	113
79	50
80	45
82	23
86	13
87	18
88	31
89	28
91	1638
92	1358
93	9651
94	734
95	18
103	42
104	35
106	87
107	16
108	21
117	20
119	1985
120	2733
121	240
122	14
134	29
137	3330
138	283
139	25
146	9
164	29
176	9
177	18
179	2972
180	360
181	31
