Mass Spectrum: Iron, tetra-.mu.3-carbonyltetrakis(.eta.5-2,4-cyclopentadien-1-yl)tetra-, tetrahedro
Formula: C24 H20 Fe4 O4
CAS: 12203-87-1
Molecular weight: 596
Origin: R.B.KING UNIVERSITY OF GEORGIA, ATHENS, GEORGIA, USA
m/z	RELATIVE INTENSITY
37	200
38	390
39	2700
40	300
50	84
51	120
56	7900
63	370
65	890
66	580
76	120
81	1000
82	240
84	230
93	390
94	900
95	1500
102	82
103	95
105	93
106	56
107	58
112	180
115	84
121	9999
122	200
128	310
129	310
130	110
133	77
134	140
137	93
149	660
150	100
177	660
186	9999
200	70
215	45
240	84
241	130
242	250
270	170
296	120
298	220
307	400
326	37
363	610
370	74
375	13
391	67
419	350
482	20
484	56
496	1
512	2
540	4
552	4
568	3
596	130
