Mass Spectrum: Butanedioic acid, butyl phenylmethyl ester
Formula: C15 H20 O4
CAS: 1223-37-6
Molecular weight: 264
Origin: E. Dziwinski, Inst. Heavy Org. Synth. Blachownia, Kedzierzyn-Kozle, Poland
m/z	RELATIVE INTENSITY
39	700
41	1500
42	200
43	2000
51	600
55	900
56	2300
57	2000
63	200
65	1300
73	600
74	1500
75	900
77	600
79	900
89	500
90	800
91	9999
92	1200
101	7300
102	500
105	600
107	4700
108	1500
130	900
157	1600
158	200
162	1000
190	300
191	100
236	200
264	300
