Mass Spectrum: Cyclopropanecarboxamide, N-n-hexyl
Formula: C10 H19 N O
CAS: 122348-70-3
Molecular weight: 169
Origin: Vladimir Zaikin, TIPS RAS, Moscow, Russia
m/z	RELATIVE INTENSITY
30	1481
31	90
35	50
36	90
37	480
38	990
39	7486
40	1281
41	9999
42	1551
43	2302
44	710
45	200
50	90
51	180
52	100
53	300
54	280
55	1080
56	650
57	300
58	250
59	100
60	20
63	50
65	50
66	50
67	110
68	650
69	8517
70	600
71	100
72	110
80	50
81	30
82	100
83	100
84	600
85	200
86	420
96	80
97	110
98	2802
99	2302
100	300
101	50
112	950
113	290
124	50
125	30
126	1401
127	170
128	70
140	700
141	80
154	150
168	80
169	450
170	280
