Mass Spectrum: Methanethione, bis[4-(dimethylamino)phenyl]-
Formula: C17 H20 N2 S
CAS: 1226-46-6
Molecular weight: 284
Origin: CARL DJERASSI DEPT OF CHEM STANFORD UNIV STANFORD CALIF 94305
m/z	RELATIVE INTENSITY
41	294
42	490
43	392
44	98
45	98
55	294
56	98
57	294
65	98
67	98
69	196
71	98
76	98
77	294
78	98
79	98
81	98
91	98
104	196
105	196
119	392
120	686
121	490
125	98
126	98
133	196
134	294
139	196
141	490
142	882
148	1471
149	686
150	196
151	196
152	294
153	196
163	196
164	2549
165	588
166	294
184	196
193	294
196	294
197	294
198	196
207	294
208	392
209	294
210	196
224	490
225	196
235	1078
236	686
237	196
239	294
240	2059
241	490
242	196
251	6275
252	1275
253	392
254	294
267	1863
268	686
269	392
283	1667
284	9999
285	2059
286	686
