Mass Spectrum: 2,7-Dihydroxynaphthalene, 2TMS derivative
Formula: C16 H24 O2 Si2
CAS: 1226-72-8
Molecular weight: 304
Origin: CARL DJERASSI DEPT OF CHEM STANFORD UNIV STANFORD CALIF 94305
m/z	RELATIVE INTENSITY
43	198
44	198
45	594
47	99
59	99
73	3762
74	297
75	396
77	198
94	198
100	198
108	198
109	99
114	99
115	99
122	99
125	198
128	198
129	99
130	198
137	1485
138	99
139	198
140	99
141	198
143	198
145	99
147	198
157	99
159	99
161	99
167	99
169	99
173	198
183	99
184	99
185	198
186	99
187	99
188	99
199	198
200	198
201	99
203	99
213	99
215	198
216	99
217	990
218	198
219	99
229	396
230	198
231	297
232	990
233	495
234	99
273	297
287	198
289	6000
290	1683
291	693
292	198
304	9999
305	2970
306	1188
307	297
