Mass Spectrum: N,N'-Bis-(4-methoxyphenyl)urea
Formula: C15 H16 N2 O3
CAS: 1227-44-7
Molecular weight: 272
Origin: Humboldt-Universitat zu Berlin, Department of Chemistry, Analytical Group
m/z	RELATIVE INTENSITY
12	12
13	8
14	32
15	369
16	23
17	58
18	176
25	7
26	103
27	214
28	266
29	115
30	32
31	20
32	7
35	5
36	5
37	33
38	149
39	417
40	54
41	672
42	68
43	59
44	43
45	20
46	5
47	6
48	4
49	9
50	174
51	510
52	1092
53	955
54	156
55	94
56	19
57	23
58	11
60	7
61	22
62	76
63	378
64	438
65	467
66	94
67	138
68	41
69	27
70	11
71	11
73	9
74	28
75	34
76	99
77	321
78	421
79	361
80	1245
81	192
82	21
83	12
84	7
85	10
86	6
87	6
88	8
89	13
90	119
91	134
92	351
93	74
94	101
95	841
96	81
97	13
98	5
99	5
102	8
103	9
104	12
105	19
106	505
107	195
108	9999
109	720
110	44
111	9
112	5
113	7
114	5
115	10
116	5
117	9
118	15
119	27
120	29
121	103
122	2146
123	9008
124	767
125	50
126	7
127	12
128	10
129	7
130	6
133	24
134	744
135	93
136	68
140	7
141	5
142	6
143	5
147	7
149	643
150	92
151	13
154	5
155	6
163	26
164	11
168	5
169	7
170	5
171	13
172	5
182	3
184	5
185	5
197	6
198	5
212	5
213	4
214	7
225	5
227	4
228	3
239	5
240	11
241	7
254	5
255	4
256	5
272	3491
273	649
274	75
275	7
