Mass Spectrum: 1H-Naphtho[2,1-b]pyran, 3-ethenyldodecahydro-3,4a,7,7,10a-pentamethyl-, [3S-(3.alpha.,4a.alpha.,6a.beta.,10a.alpha.,10b.beta.)]-
Formula: C20 H34 O
CAS: 1227-93-6
Molecular weight: 290
m/z	RELATIVE INTENSITY
18	143
27	326
28	41
29	388
39	449
40	122
41	2020
42	184
43	2408
44	122
51	41
52	20
53	796
54	122
55	2408
56	265
57	326
58	122
65	245
66	122
67	1796
68	1020
69	204
70	184
71	551
77	673
78	122
79	1163
80	286
81	2653
82	898
83	735
84	41
85	82
91	939
92	163
93	1163
94	347
95	1735
96	408
97	367
99	61
102	41
103	41
105	673
106	163
107	1082
108	306
109	1592
110	163
111	449
113	143
115	61
117	163
119	694
120	204
121	918
122	592
123	1408
124	245
125	510
126	20
127	20
128	20
129	41
131	122
133	653
134	245
135	735
136	531
137	2041
138	224
139	204
145	224
146	163
147	469
148	224
149	816
150	224
151	612
152	82
153	82
159	143
161	571
162	102
163	571
164	163
165	163
173	184
174	20
175	449
176	61
177	2122
178	224
179	184
187	306
188	41
189	571
190	163
191	1939
192	2918
193	551
201	306
202	20
203	265
204	122
205	408
206	61
207	286
215	143
216	20
217	82
219	82
220	326
221	82
229	41
230	163
231	41
245	612
246	82
247	61
257	7673
258	1326
259	102
263	143
272	245
273	122
274	41
275	9999
276	469
277	122
