Mass Spectrum: 2H-Pyran-2-one, tetrahydro-6-tridecyl-
Formula: C18 H34 O2
CAS: 1227-51-6
Molecular weight: 282
m/z	RELATIVE INTENSITY
15	70
26	60
27	591
28	370
29	1882
30	60
31	30
39	550
40	160
41	4324
42	3123
43	5315
44	390
45	90
50	30
51	60
52	30
53	240
54	661
55	5755
56	1942
57	3143
58	240
59	80
60	260
61	30
65	60
66	70
67	1021
68	1191
69	3263
70	4324
71	3873
72	270
73	731
74	40
75	10
77	40
78	60
79	190
80	160
81	771
82	1281
83	3283
84	1601
85	901
86	340
87	330
88	30
91	120
92	30
93	90
94	160
95	841
96	1381
97	3153
98	1381
99	9999
100	911
101	440
102	60
105	40
106	30
107	100
108	160
109	420
110	731
111	1501
112	741
113	260
114	2062
115	540
116	90
118	30
119	160
120	50
121	100
122	110
123	460
124	440
125	701
126	390
127	430
128	250
129	150
130	40
133	180
134	571
135	190
136	90
137	380
138	420
139	250
140	320
141	190
142	180
143	90
144	40
145	10
147	220
148	210
149	130
150	50
151	410
152	310
153	240
154	130
155	140
156	60
157	80
158	20
161	100
162	60
163	50
164	60
165	300
166	250
167	120
168	280
169	230
170	30
171	40
172	20
173	10
175	60
176	20
177	30
178	20
179	160
180	340
181	100
182	90
183	80
184	40
185	30
186	50
189	30
191	50
192	20
193	130
194	130
195	90
196	40
197	80
198	30
199	40
200	60
203	40
207	160
208	110
209	60
210	160
211	280
212	40
213	30
214	30
215	30
217	30
220	941
221	380
222	450
223	110
224	10
225	20
226	30
227	10
230	10
235	90
236	100
237	20
239	70
240	30
245	10
246	220
247	60
253	80
254	50
263	30
264	1912
265	360
266	40
267	40
280	20
281	90
282	500
283	110
