Mass Spectrum: Ferrocene, 1,2-dichloro-
Formula: C10 H8 Cl2 Fe
CAS: 12287-95-5
Molecular weight: 254
m/z	RELATIVE INTENSITY
39	701
45	1001
62	400
63	1101
65	400
75	200
77	200
78	200
81	300
90	801
91	400
92	200
94	200
101	300
102	1001
121	701
126	601
127	2102
128	7807
129	801
133	300
135	300
182	1401
189	100
191	100
218	200
252	601
254	9999
255	1201
256	6206
257	801
258	1001
259	100
