Mass Spectrum: 7-Tetradecanol, TMS derivative
Formula: C17 H38 O Si
CAS: 122825-88-1
Molecular weight: 286
Origin: V.G.Zaikin, TIPS, Russian Acad. Sci.
m/z	RELATIVE INTENSITY
57	1601
59	1000
61	1101
73	8507
74	1000
75	7106
76	600
83	2602
97	1601
101	1101
103	2802
113	500
117	800
129	1000
145	1201
187	9999
188	1000
189	600
201	8407
202	900
203	600
271	800
272	190
273	50
