Mass Spectrum: Androstane-3,17-dione, (5.beta.)-
Formula: C19 H28 O2
CAS: 1229-12-5
Molecular weight: 288
Origin: D.HENNEBERG, MAX-PLANCK INSTITUTE, MULHEIM, WEST GERMANY
m/z	RELATIVE INTENSITY
27	1562
28	497
29	1996
30	47
31	41
33	4
37	20
38	21
39	1737
40	269
41	6122
42	703
43	1093
44	18
45	27
46	4
47	9
50	48
51	283
52	237
53	2501
54	657
55	5569
56	394
57	374
58	36
59	45
60	30
61	36
62	11
63	72
64	7
65	955
66	487
67	5099
68	1605
69	1236
70	134
71	201
72	114
73	34
74	105
75	70
76	27
77	2354
78	575
79	4113
80	839
81	3858
82	934
83	614
84	95
85	102
86	20
87	34
88	110
89	58
90	45
91	3300
92	739
93	3440
94	952
95	2290
96	459
97	1519
98	187
99	80
100	10
101	10
102	16
103	270
104	218
105	2693
106	1063
107	2418
108	1661
109	2293
110	1349
111	648
112	76
113	28
114	20
115	309
116	144
117	565
118	588
119	1568
120	1090
121	1925
122	2372
123	1341
124	1998
125	345
126	34
127	69
128	200
129	305
130	153
131	836
132	577
133	1094
134	740
135	968
136	458
137	455
138	158
139	23
140	13
141	101
142	83
143	422
144	269
145	923
146	486
147	1442
148	495
149	756
150	251
151	308
152	93
153	47
154	22
155	84
156	70
157	489
158	755
159	1038
160	1105
161	1750
162	2318
163	672
164	315
165	403
166	114
167	53
168	30
169	99
170	80
171	411
172	861
173	970
174	2115
175	1627
176	880
177	365
178	160
179	170
180	41
181	33
182	36
183	158
184	92
185	319
186	259
187	850
188	363
189	451
190	401
191	214
192	287
193	59
194	25
195	77
196	51
197	218
198	298
199	2047
200	1030
201	495
202	211
203	286
204	127
205	44
207	74
209	48
211	603
212	337
213	773
214	518
215	450
216	575
217	2094
218	1306
219	256
220	68
221	27
223	27
224	20
225	42
226	148
227	209
228	150
229	1325
230	511
231	788
232	656
233	203
234	42
235	13
236	20
237	508
238	130
239	46
241	103
242	93
243	50
244	3596
245	870
246	360
247	70
248	27
249	3
251	17
252	104
253	93
255	1773
256	414
257	64
258	41
259	140
260	136
261	29
262	14
263	7
264	17
266	13
267	5
268	18
269	39
270	667
271	160
272	74
273	1179
274	304
275	37
279	4
281	6
282	6
284	8
286	21
287	31
288	9999
289	2074
290	287
291	44
