Mass Spectrum: Tuaminoheptane
Formula: C7 H17 N
CAS: 123-82-0
Molecular weight: 115
Origin: NIST Mass Spectrometry Data Center, 1990.
m/z	RELATIVE INTENSITY
13	8
14	4
15	166
16	4
17	39
18	7
21	7
26	80
27	634
28	348
29	492
30	882
31	19
37	10
39	377
40	119
41	697
42	730
43	10
44	9999
45	277
50	9
51	26
52	18
53	43
54	52
55	317
56	167
57	127
58	73
59	11
63	9
65	8
67	9
68	18
69	37
70	51
83	30
100	311
101	22
114	51
115	35
