Mass Spectrum: 1,2-Ethanediol, dipropanoate
Formula: C8 H14 O4
CAS: 123-80-8
Molecular weight: 174
Origin: J.Little, Eastman Chem. Comp., Kingsport
m/z	RELATIVE INTENSITY
14	20
15	130
17	10
19	10
20	10
26	220
27	1211
28	601
29	3934
30	90
31	170
39	20
41	20
42	120
43	160
44	80
45	100
53	10
54	10
55	190
56	350
57	9999
58	450
59	40
73	20
74	20
75	70
87	320
88	50
89	90
99	50
100	490
101	270
102	10
114	330
115	280
116	10
131	70
144	40
