Mass Spectrum: Acetic acid, butyl ester
Formula: C6 H12 O2
CAS: 123-86-4
Molecular weight: 116
Origin: NIST Mass Spectrometry Data Center
m/z	RELATIVE INTENSITY
14	120
15	751
16	10
18	20
19	10
25	10
26	190
27	1251
28	601
29	1291
30	70
31	200
37	30
38	80
39	841
40	160
41	1892
42	611
43	9999
44	320
45	120
50	30
51	40
52	10
53	70
54	40
55	721
56	3713
57	420
58	170
59	10
60	40
61	1461
62	30
63	10
70	10
71	200
72	50
73	1812
74	70
75	10
83	10
86	90
87	170
88	20
98	10
101	30
115	10
