Mass Spectrum: Acetamide, 2-(2-hydroxyethoxy)-
Formula: C4 H9 N O3
CAS: 123-85-3
Molecular weight: 119
Origin: K. Kirk, LBC, NIDDK, NIH, Bethesda, MD 20892
m/z	RELATIVE INTENSITY
42	3452
43	3998
44	4654
45	9999
46	416
47	580
48	37
49	15
50	17
51	33
52	20
53	18
54	13
55	62
56	38
57	178
58	2390
59	3637
60	2452
61	291
62	31
63	19
64	7
65	24
66	10
67	21
68	21
69	46
70	30
71	80
72	81
73	3141
74	286
75	3106
76	1696
77	145
78	209
79	26
80	14
81	18
82	19
83	25
84	103
85	20
86	16
87	13
88	417
89	651
90	92
91	17
92	3
93	8
94	9
95	19
96	12
97	22
98	34
99	8
100	12
101	473
102	390
103	53
104	10
105	22
106	19
107	38
108	9
109	13
110	2
111	3
112	2
113	14
114	6
115	13
116	12
117	5
118	60
119	1708
120	151
121	76
122	27
