Mass Spectrum: .beta.-Myrcene
Formula: C10 H16
CAS: 123-35-3
Molecular weight: 136
m/z	RELATIVE INTENSITY
12	10
13	10
14	40
15	280
26	190
27	2803
28	360
29	821
30	20
32	10
37	50
38	200
39	2993
40	550
41	9999
42	460
43	490
44	20
49	10
50	220
51	581
52	310
53	1411
54	170
55	681
56	60
57	30
58	20
59	10
61	10
62	60
63	150
64	40
65	420
66	190
67	1101
68	571
69	7967
70	450
71	10
74	20
75	20
76	10
77	1101
78	190
79	1381
80	621
81	260
82	180
83	30
88	10
89	20
90	10
91	951
92	661
93	8558
94	931
95	180
96	80
97	120
98	10
103	40
104	20
105	180
106	50
107	340
108	80
109	20
115	20
117	20
119	50
120	20
121	550
122	60
123	10
134	10
135	10
136	410
137	50
138	10
140	10
