Mass Spectrum: Oxacycloheptadec-8-en-2-one, (8Z)-
Formula: C16 H28 O2
CAS: 123-69-3
Molecular weight: 252
Origin: NIST Mass Spectrometry Data Center, 1998.
m/z	RELATIVE INTENSITY
15	20
26	40
27	770
29	1430
30	40
31	120
37	10
38	30
39	1930
40	410
41	7889
42	1590
43	1610
44	110
45	210
46	10
47	10
48	10
50	30
51	160
52	140
53	1700
54	4610
55	8789
56	1050
57	710
58	90
59	110
60	260
61	40
62	10
63	30
64	10
65	610
66	810
67	9999
68	4920
69	3090
70	480
71	460
72	30
73	420
74	40
75	40
76	10
77	570
78	190
79	2220
80	1610
81	9229
82	9489
83	2480
84	710
85	330
86	50
87	170
88	20
89	40
90	20
91	460
92	130
93	1190
94	1430
95	5499
96	6889
97	1790
98	760
99	190
100	90
101	190
102	20
103	20
104	60
105	180
106	110
107	740
108	950
109	3460
110	1710
111	630
112	240
113	170
114	110
115	90
116	20
117	60
118	40
119	180
120	150
121	810
122	890
123	1310
124	670
125	200
126	280
127	200
128	40
129	50
130	10
131	110
132	40
133	150
134	140
135	700
136	710
137	570
138	280
139	170
140	230
141	70
142	10
143	20
145	60
146	30
147	110
148	60
149	350
150	330
151	200
152	160
153	200
154	110
155	30
156	10
157	10
159	60
160	20
161	40
162	10
163	130
164	120
165	110
166	50
167	110
168	100
169	20
170	10
171	20
173	70
174	20
175	20
177	70
178	60
179	30
180	10
181	50
182	60
183	10
184	10
185	10
187	60
188	10
190	10
191	40
192	50
193	20
195	110
196	120
197	20
205	20
206	30
207	10
208	10
209	60
210	50
211	10
216	10
223	30
224	100
225	20
234	210
235	40
252	550
253	100
254	10
