Mass Spectrum: Hexanoic acid, 2-propenyl ester
Formula: C9 H16 O2
CAS: 123-68-2
Molecular weight: 156
Origin: Japan AIST/NIMC Database- Spectrum MS-NW- 159
m/z	RELATIVE INTENSITY
14	20
15	219
17	30
18	119
26	229
27	2369
28	749
29	2419
30	70
31	159
32	90
37	60
38	189
39	3129
40	529
41	8759
42	1059
43	9769
44	319
45	229
50	30
51	70
52	20
53	209
54	749
55	2359
56	759
57	1029
58	699
59	109
60	219
61	70
63	10
65	40
67	149
68	90
69	2339
70	279
71	6109
72	349
73	629
74	30
75	30
77	60
79	30
80	50
81	199
82	349
83	99
84	10
85	159
87	70
89	80
91	50
92	10
94	20
95	90
96	70
97	679
98	129
99	9999
100	2989
101	229
102	50
104	20
109	10
110	10
111	20
113	1059
114	109
115	70
116	20
117	229
118	20
127	339
128	40
129	20
141	20
156	30
