Mass Spectrum: Pentanal, 2-methyl-
Formula: C6 H12 O
CAS: 123-15-9
Molecular weight: 100
Origin: NIST Mass Spectrometry Data Center, 1990.
m/z	RELATIVE INTENSITY
14	190
15	300
26	446
27	3286
28	955
29	3527
30	242
31	209
32	41
38	315
39	2799
40	555
41	4348
42	955
43	9999
44	409
53	380
55	1236
56	225
57	1806
58	7962
59	275
70	148
71	1183
100	210
