Mass Spectrum: Azelaic acid
Formula: C9 H16 O4
CAS: 123-99-9
Molecular weight: 188
Origin: NIST Mass Spectrometry Data Center, 1990.
m/z	RELATIVE INTENSITY
18	206
26	603
27	3666
28	1259
29	3323
30	206
31	1165
32	100
39	3278
40	784
41	7437
42	2821
43	3415
44	708
45	4931
53	1067
54	1096
55	9999
56	1371
57	759
58	708
59	876
60	6318
61	402
67	1353
68	1276
69	4021
70	810
71	420
72	402
73	3252
74	474
79	488
81	1105
82	1375
83	5514
84	4178
85	530
86	420
87	1031
95	446
96	1371
97	1421
98	1987
99	556
100	446
101	478
110	638
111	3147
114	796
124	2883
129	586
137	471
152	4188
153	441
