Mass Spectrum: Pyrazine, 2,5-dimethyl-
Formula: C6 H8 N2
CAS: 123-32-0
Molecular weight: 108
Origin: Japan AIST/NIMC Database- Spectrum MS-NW-2688
m/z	RELATIVE INTENSITY
14	20
15	219
25	40
26	249
27	429
28	329
29	10
36	10
37	219
38	599
39	3129
40	2629
41	399
42	9999
43	269
44	10
49	10
50	60
51	209
52	399
53	159
54	139
55	40
62	10
63	40
64	129
65	50
66	209
67	149
68	20
75	20
76	20
77	10
78	40
79	40
80	339
81	1479
82	99
93	50
105	10
106	20
107	269
108	9269
109	689
110	20
