Mass Spectrum: Hexanal, 2-ethyl-
Formula: C8 H16 O
CAS: 123-05-7
Molecular weight: 128
Origin: NIST Mass Spectrometry Data Center, 1998.
m/z	RELATIVE INTENSITY
15	30
26	80
27	1110
28	30
29	1610
30	30
31	60
37	20
38	70
39	1370
40	190
41	3740
42	560
43	3340
44	240
45	40
50	70
51	140
52	50
53	400
54	410
55	1500
56	420
57	9999
58	530
59	40
62	10
63	30
65	70
66	20
67	220
68	110
69	260
70	140
71	580
72	8539
73	410
74	30
77	40
78	10
79	50
80	10
81	120
82	280
83	60
84	20
85	260
86	30
91	10
93	10
95	90
96	10
97	30
98	20
99	70
100	110
101	10
109	10
110	40
111	10
128	120
129	20
