Mass Spectrum: Hexanoic acid, ethyl ester
Formula: C8 H16 O2
CAS: 123-66-0
Molecular weight: 144
m/z	RELATIVE INTENSITY
2	50
12	20
13	50
14	240
15	1201
16	50
17	10
18	10
19	80
24	10
25	30
26	781
27	6876
28	1872
29	9849
30	350
31	380
32	20
33	10
34	10
37	60
38	20
39	2322
40	460
41	4304
42	3503
43	8598
44	410
45	2302
46	60
47	60
48	30
49	10
50	50
51	140
52	50
53	300
54	130
55	2342
56	571
57	520
58	50
59	160
60	4504
61	2472
62	90
63	30
65	30
66	30
67	90
68	90
69	851
70	2222
71	2682
72	180
73	2742
74	480
75	100
76	10
77	10
78	20
79	10
80	40
81	60
82	20
83	150
84	20
85	50
86	30
87	731
88	9999
89	581
90	60
91	10
92	10
95	10
96	10
97	190
98	140
99	5395
100	390
101	2622
102	350
103	30
104	10
105	10
113	10
114	30
115	841
116	90
117	480
118	30
119	10
127	30
129	40
143	20
144	150
145	30
