Mass Spectrum: 1,2-Ethanediamine, N'-ethyl-N,N-dimethyl-
Formula: C6 H16 N2
CAS: 123-83-1
Molecular weight: 116
Origin: Japan AIST/NIMC Database- Spectrum MS-IW-4035
m/z	RELATIVE INTENSITY
15	90
27	109
28	229
29	209
30	1149
31	10
39	10
41	80
42	589
43	219
44	429
45	50
46	10
50	30
54	30
55	20
56	319
57	259
58	9999
59	3019
60	109
68	10
69	20
70	60
71	99
72	299
73	40
83	10
85	20
86	20
99	10
113	20
116	369
117	30
