Mass Spectrum: Heptane, 3-(chloromethyl)-
Formula: C8 H17 Cl
CAS: 123-04-6
Molecular weight: 148
Origin: CONTINENTAL OIL CO., PONCA CITY, OKLA, USA
m/z	RELATIVE INTENSITY
15	344
16	18
17	9
25	8
26	232
27	2855
28	584
29	2927
30	73
33	64
35	28
36	111
37	43
38	126
39	1543
40	248
41	3889
42	744
43	3000
44	104
45	7
46	4
47	8
48	9
49	218
50	74
51	225
52	67
53	447
54	209
55	2823
56	896
57	9999
58	447
59	10
61	22
62	55
63	162
64	23
65	92
66	22
67	135
68	55
69	413
70	526
71	153
72	9
74	5
75	77
76	19
77	122
78	18
79	45
80	6
81	28
82	32
83	460
84	70
85	12
89	14
90	23
91	72
92	14
93	20
95	6
97	24
98	460
99	1633
100	126
101	7
104	5
105	20
107	6
111	8
112	64
113	9
118	6
119	203
120	18
121	67
122	8
131	1
147	3
148	4
150	1
