Mass Spectrum: Hexanedioic acid, dioctyl ester
Formula: C22 H42 O4
CAS: 123-79-5
Molecular weight: 370
m/z	RELATIVE INTENSITY
15	100
16	40
17	10
25	10
26	80
27	1191
28	851
29	2462
30	90
31	160
32	80
33	10
36	10
37	30
38	40
39	711
40	180
41	4114
42	1051
43	4374
44	280
45	140
46	10
47	10
48	10
49	10
50	50
51	60
52	40
53	290
54	310
55	5635
56	2112
57	7497
58	370
59	380
60	90
61	110
62	50
63	50
65	50
66	40
67	280
68	330
69	1171
70	4654
71	3833
72	270
73	230
74	50
75	20
76	40
77	50
78	40
79	70
80	50
81	140
82	320
83	2002
84	1331
85	260
86	50
87	691
88	40
89	10
91	20
93	20
96	200
97	230
98	90
99	110
100	611
101	981
102	290
103	50
104	50
105	30
107	10
108	10
109	20
110	80
111	941
112	3313
113	160
114	170
115	30
116	10
121	10
122	10
123	10
124	10
125	30
126	50
127	130
128	510
129	9999
130	721
131	100
132	10
135	10
137	10
138	10
139	10
140	10
141	20
142	250
143	80
144	20
145	30
146	260
147	1381
148	110
149	260
150	30
151	10
152	10
153	10
154	20
155	20
156	10
157	90
158	20
159	10
160	110
161	10
162	10
163	10
165	10
167	20
168	10
169	10
170	10
171	10
172	20
173	10
177	10
182	10
183	20
184	10
185	30
186	10
193	10
197	10
199	140
200	20
201	10
203	10
205	10
210	10
211	20
212	200
213	30
214	60
215	10
218	10
223	20
225	30
228	10
241	1091
242	170
243	20
258	70
259	540
260	80
261	10
269	10
272	20
279	30
284	20
307	10
313	40
327	10
341	20
370	10
