Mass Spectrum: 4-Nonanol, 2,6,8-trimethyl-
Formula: C12 H26 O
CAS: 123-17-1
Molecular weight: 186
Origin: NIST Mass Spectrometry Data Center, 1990.
m/z	RELATIVE INTENSITY
14	133
27	792
29	787
31	114
39	1034
41	3968
42	694
43	4942
44	766
45	1282
51	102
53	497
55	2889
56	1638
57	2729
58	370
59	110
65	153
66	73
67	696
68	73
69	9999
70	1433
71	718
77	120
79	124
81	185
82	350
83	2842
84	1572
85	1501
86	343
87	1729
88	107
95	145
97	456
98	327
99	131
109	125
110	279
111	1897
112	530
125	104
129	1071
130	100
168	301
