Mass Spectrum: 3-Heptene, 2,2,4,6,6-pentamethyl-
Formula: C12 H24
CAS: 123-48-8
Molecular weight: 168
Origin: NIST Mass Spectrometry Data Center, 1990.
m/z	RELATIVE INTENSITY
15	98
27	701
28	500
29	1595
32	82
39	1404
41	4838
42	270
43	644
44	65
51	186
52	106
53	709
54	65
55	2805
56	65
57	9999
58	465
65	224
66	100
67	709
68	100
69	2945
70	284
71	68
77	337
78	70
79	461
80	76
81	691
82	68
83	1857
84	150
91	209
93	121
95	237
97	9445
98	722
109	133
111	287
112	2245
113	203
153	140
168	1482
169	202
