Mass Spectrum: Propanoic acid, 3,3'-thiobis-, didodecyl ester
Formula: C30 H58 O4 S
CAS: 123-28-4
Molecular weight: 514
Origin: Japan AIST/NIMC Database- Spectrum MS-NW-5893
m/z	RELATIVE INTENSITY
15	40
18	10
25	20
26	179
27	2159
28	1009
29	3079
30	70
31	169
32	40
33	40
34	90
35	90
37	10
38	20
39	769
40	179
41	5819
42	1529
43	9999
44	339
45	169
46	119
47	149
48	10
49	10
50	10
51	30
52	20
53	309
54	649
55	6869
56	2989
57	8259
58	369
59	169
60	499
61	849
62	50
63	70
65	50
66	80
67	819
68	1149
69	4419
70	2469
71	3589
72	219
73	2389
74	509
75	279
76	20
77	70
78	10
79	90
80	50
81	559
82	1369
83	3189
84	1619
85	1889
86	119
87	339
88	839
89	1939
90	119
91	109
92	10
93	40
94	40
95	379
96	719
97	2269
98	999
99	459
100	90
101	99
102	99
103	80
104	109
105	1069
106	1419
107	799
108	90
109	259
110	429
111	1219
112	559
113	509
114	599
115	359
116	159
117	159
118	20
119	559
120	60
121	60
122	40
123	149
124	229
125	499
126	299
127	519
128	159
129	99
130	70
131	30
132	1739
133	549
134	349
135	139
136	40
137	90
138	139
139	199
140	509
141	119
142	789
143	2759
144	289
145	159
146	30
147	30
148	10
149	10
150	20
151	40
152	40
153	30
154	40
155	50
156	30
157	70
158	30
159	309
160	439
161	2089
162	199
163	109
164	20
165	60
166	419
167	109
168	749
169	269
170	40
171	40
172	20
173	20
174	10
175	30
176	10
177	80
178	3439
179	849
180	249
181	50
182	10
183	30
184	10
185	40
186	10
187	10
189	20
193	20
194	70
195	40
196	20
197	20
198	20
199	40
200	40
201	369
202	80
203	40
204	20
210	10
211	50
212	20
213	199
214	30
215	40
216	20
217	30
218	10
221	10
222	99
223	209
224	30
225	10
226	30
227	30
228	20
229	40
230	20
231	20
232	10
233	10
234	10
237	10
238	10
239	20
240	60
241	389
242	70
243	30
244	10
245	40
246	10
255	30
256	60
257	40
258	20
268	10
269	20
271	60
272	20
273	379
274	319
275	90
276	20
285	10
287	20
288	10
299	10
300	259
301	99
302	30
303	10
310	10
312	20
313	10
318	30
319	10
327	139
328	299
329	979
330	219
331	80
332	10
345	20
346	1529
347	519
348	149
349	30
357	10
374	10
401	10
441	80
442	40
443	10
486	20
496	30
497	10
514	889
515	309
516	99
517	20
