Mass Spectrum: 4-Morpholinepropanamine
Formula: C7 H16 N2 O
CAS: 123-00-2
Molecular weight: 144
Origin: Japan AIST/NIMC Database- Spectrum MS-NW-1362
m/z	RELATIVE INTENSITY
14	20
15	439
16	10
17	40
18	159
26	99
27	529
28	1619
29	659
30	3159
31	169
32	40
39	149
40	50
41	729
42	1469
43	2179
44	1159
45	189
52	30
53	20
54	289
55	449
56	3859
57	2409
58	669
59	229
60	10
67	20
68	209
69	269
70	1209
71	759
72	279
73	60
74	10
81	20
82	179
83	339
84	339
85	349
86	839
87	169
88	859
89	40
94	10
95	10
96	139
97	199
98	249
99	99
100	9999
101	1619
102	99
109	20
110	20
111	70
112	589
113	2339
114	809
115	70
125	20
126	679
127	969
128	80
129	60
144	60
