Mass Spectrum: m-Phenylene diisocyanate
Formula: C8 H4 N2 O2
CAS: 123-61-5
Molecular weight: 160
Origin: NIST Mass Spectrometry Data Center, 1994
m/z	RELATIVE INTENSITY
12	51
13	19
14	6
15	16
16	20
17	2
24	22
25	77
26	421
27	206
28	475
29	55
31	19
37	650
38	1018
39	929
40	147
41	27
42	91
43	40
44	20
48	45
49	174
50	747
51	844
52	854
53	279
54	213
55	34
56	17
60	39
61	203
62	399
63	486
64	614
65	253
66	171
67	71
68	61
69	27
70	15
72	7
73	28
74	73
75	310
76	819
77	2709
78	320
79	7
80	305
86	25
87	52
88	93
89	288
90	117
91	6
93	27
100	14
101	19
104	2622
105	227
106	46
116	120
117	19
132	1227
133	102
134	13
160	9999
161	995
162	75
