Mass Spectrum: Propanoic acid, anhydride
Formula: C6 H10 O3
CAS: 123-62-6
Molecular weight: 130
Origin: Japan AIST/NIMC Database- Spectrum MS-NW- 776
m/z	RELATIVE INTENSITY
14	30
15	50
18	20
25	40
26	409
27	1339
28	729
29	4719
30	129
31	10
32	10
39	20
41	20
42	99
43	179
44	10
45	129
46	10
53	20
54	40
55	119
56	319
57	9999
58	349
59	20
71	20
73	99
74	159
75	10
