Mass Spectrum: 1,4-Dioxane
Formula: C4 H8 O2
CAS: 123-91-1
Molecular weight: 88
Origin: NIST Mass Spectrometry Data Center, 1990.
m/z	RELATIVE INTENSITY
12	21
13	49
14	300
15	911
16	40
17	10
18	22
19	38
24	11
26	968
27	1901
28	9999
29	4103
30	1457
31	1911
32	51
39	45
40	20
41	98
42	357
43	1715
44	687
45	600
46	19
55	20
57	1318
58	4081
59	201
60	16
61	12
69	16
87	613
88	5207
89	226
90	36
