Mass Spectrum: Benzene, tridecyl-
Formula: C19 H32
CAS: 123-02-4
Molecular weight: 260
Origin: Japan AIST/NIMC Database- Spectrum MS-NW-5278
m/z	RELATIVE INTENSITY
26	10
27	249
28	20
29	599
30	10
39	199
40	30
41	1029
42	169
43	1619
44	50
50	10
51	70
52	30
53	70
54	50
55	569
56	189
57	1209
58	50
63	30
64	10
65	279
66	30
67	70
68	30
69	229
70	109
71	529
72	30
77	169
78	329
79	189
80	80
81	30
82	40
83	119
84	60
85	249
86	10
89	40
90	30
91	6019
92	9999
93	789
94	109
95	30
96	20
97	60
98	30
99	30
102	10
103	99
104	369
105	879
106	279
107	40
108	10
110	10
111	30
112	20
113	20
115	50
116	20
117	139
118	60
119	259
120	129
121	20
125	10
127	10
128	10
129	10
131	20
132	30
133	689
134	209
135	30
147	119
148	40
161	40
162	10
173	10
175	20
189	10
194	10
203	10
206	20
217	20
232	10
260	1649
261	379
262	40
