Mass Spectrum: 1-Pentanol, 2,2,4-trimethyl-
Formula: C8 H18 O
CAS: 123-44-4
Molecular weight: 130
Origin: Japan AIST/NIMC Database- Spectrum MS-NW-1342
m/z	RELATIVE INTENSITY
15	50
18	30
19	10
26	20
27	669
28	199
29	799
30	10
31	409
32	40
38	20
39	519
40	80
41	2039
42	169
43	4349
44	139
45	329
50	10
51	30
52	10
53	119
54	30
55	1919
56	679
57	9999
58	449
59	159
65	10
67	50
68	10
69	319
70	329
71	179
72	119
73	799
74	30
79	10
81	10
83	609
84	50
85	10
97	449
98	659
99	2109
100	159
111	10
112	20
115	20
