Mass Spectrum: Azelaoyl chloride
Formula: C9 H14 Cl2 O2
CAS: 123-98-8
Molecular weight: 224
Origin: Japan AIST/NIMC Database- Spectrum MS-NW-9895
m/z	RELATIVE INTENSITY
14	20
15	50
18	20
26	109
27	1549
28	579
29	1069
30	20
31	10
34	10
35	179
36	1799
37	60
38	589
39	1259
40	279
41	3709
42	1259
43	1109
44	159
45	30
46	30
47	50
48	60
49	70
50	60
51	119
52	40
53	469
54	689
55	9999
56	789
57	369
58	30
59	20
60	10
61	30
62	20
63	479
64	20
65	179
66	90
67	1669
68	1049
69	1749
70	419
71	60
73	20
74	20
75	70
76	40
77	259
78	699
79	619
80	1119
81	1139
82	789
83	2609
84	2899
85	199
86	10
87	20
88	20
89	50
90	40
91	259
92	109
93	469
94	50
95	399
96	589
97	1329
98	1829
99	119
101	10
102	80
103	40
104	50
105	99
106	60
107	479
108	99
109	489
110	229
111	879
112	80
113	10
114	10
115	10
116	60
117	99
118	50
119	40
120	20
121	20
123	90
124	1359
125	949
126	90
127	60
128	10
131	10
132	90
133	20
134	60
135	269
136	20
137	40
144	60
145	60
146	20
147	30
151	10
152	159
153	1359
154	129
155	80
156	10
160	50
161	10
162	20
189	809
190	90
191	269
192	30
