Mass Spectrum: 9H-Naphtho[2,1-b]pyran-9-one, 3-ethenyldodecahydro-3,4a,7,7,10a-pentamethyl-, [3R-(3.alpha.,4a.beta.,6a.alpha.,10a.beta.,10b.alpha.)]-
Formula: C20 H32 O2
CAS: 1231-34-1
Molecular weight: 304
m/z	RELATIVE INTENSITY
17	40
18	242
27	343
28	505
29	465
32	81
39	424
40	162
41	1899
42	263
43	3171
44	162
45	40
51	40
52	20
53	808
54	162
55	2949
56	424
57	323
58	81
59	40
65	242
66	162
67	303
68	1454
69	1353
70	202
71	566
75	121
77	586
78	121
79	1232
80	303
81	2848
82	1050
83	1899
84	162
85	222
89	81
91	848
92	283
93	1495
94	404
95	2020
96	566
97	525
98	81
99	202
100	40
102	283
103	61
105	727
106	283
107	1919
108	687
109	1535
110	303
111	444
112	40
113	61
115	61
116	20
117	162
118	20
119	808
120	303
121	1616
122	2424
123	1454
124	202
125	465
126	61
127	20
128	40
131	202
132	61
133	788
134	303
135	1697
136	505
137	1111
138	586
139	404
140	40
141	20
143	40
145	303
146	61
147	424
148	242
149	646
150	1091
151	2424
152	364
153	141
157	81
159	283
160	61
161	424
162	141
163	606
164	121
165	303
166	81
167	81
171	81
173	404
174	40
175	364
176	101
177	566
178	263
179	485
180	81
181	20
183	20
185	81
187	606
188	121
189	283
190	81
191	1939
192	404
193	263
197	81
199	40
201	323
202	61
203	364
204	61
205	1131
206	3515
207	768
208	61
209	101
211	20
213	162
215	525
216	81
217	162
218	40
219	990
220	263
221	40
227	404
228	81
229	263
230	61
231	162
233	162
234	465
235	121
241	40
243	949
244	182
245	20
247	20
253	525
254	162
255	121
256	40
257	222
258	40
259	465
260	81
261	40
271	5252
272	1091
273	121
275	283
276	182
277	303
278	40
286	121
287	61
289	9999
290	2101
291	242
304	182
305	81
