Mass Spectrum: Molybdenum, tetrakis(.eta.3-2-propenyl)di-
Formula: C12 H20 Mo2
CAS: 12318-77-3
Molecular weight: 360
Origin: D.HENNEBERG, MAX-PLANCK INSTITUTE, MULHEIM, WEST GERMANY
m/z	RELATIVE INTENSITY
26	1066
27	4155
28	1162
29	1916
30	58
31	35
32	7
35	3
36	159
37	940
38	1429
39	6444
40	2296
41	9999
42	8096
43	4056
44	551
45	39
47	3
49	16
50	90
51	128
52	75
53	142
54	194
55	551
56	319
57	528
58	30
59	43
61	7
62	14
63	28
64	6
65	53
66	25
67	393
68	51
69	257
70	77
71	137
72	390
73	49
74	13
75	10
76	10
77	74
78	212
79	91
80	31
81	72
82	76
83	30
84	144
85	14
86	7
87	7
89	8
90	3
91	97
92	126
93	11
94	76
95	142
96	150
97	85
98	208
99	10
100	75
102	3
103	17
104	17
105	65
106	38
107	72
108	131
109	137
110	122
111	148
112	73
113	76
114	74
115	85
116	77
117	91
118	104
119	99
120	158
121	259
122	293
123	246
124	188
125	127
126	79
127	75
128	78
129	108
130	120
131	138
132	134
133	220
134	306
135	330
136	304
137	255
138	145
139	100
140	68
141	90
142	112
143	127
144	109
145	91
146	102
147	118
148	120
149	131
150	137
151	135
152	235
153	381
154	505
155	569
156	502
157	362
158	216
159	96
160	47
161	35
162	32
163	28
164	22
165	11
166	15
167	15
168	15
169	14
170	21
171	21
172	35
173	50
174	57
175	59
176	55
177	43
178	28
179	13
180	7
181	7
182	8
184	180
185	33
186	227
187	427
188	531
189	530
190	1125
191	742
192	1168
193	1063
194	1014
195	777
196	853
197	325
198	433
199	198
200	283
201	261
202	345
203	493
204	409
205	557
206	498
207	469
208	389
209	413
210	196
211	279
212	244
213	315
214	355
215	557
216	492
217	638
218	620
219	615
220	489
221	494
222	343
223	521
224	298
225	659
226	986
227	1203
228	1469
229	2136
230	1826
231	2366
232	2186
233	2046
234	1618
235	1487
236	754
237	765
238	391
239	476
240	462
241	525
242	726
243	603
244	759
245	699
246	620
247	493
248	445
249	213
250	227
251	103
252	130
253	114
254	132
255	147
256	165
257	154
258	153
259	129
260	133
261	102
262	159
263	159
264	501
265	504
266	837
267	1280
268	1820
269	1875
270	2706
271	2533
272	2923
273	2876
274	2682
275	2051
276	1961
277	1071
278	883
279	459
280	279
281	261
282	208
283	227
284	306
285	228
286	291
287	261
288	251
289	193
290	193
291	92
292	127
293	64
294	80
295	70
296	84
297	86
298	80
299	74
300	108
301	85
302	208
303	176
304	367
305	427
306	738
307	706
308	1150
309	1033
310	1441
311	1225
312	1518
313	1149
314	1266
315	825
316	886
317	449
318	492
319	159
320	188
321	42
322	37
323	13
325	8
326	11
327	9
328	13
329	12
330	11
331	8
332	8
333	5
334	7
335	4
339	5
340	5
341	9
342	8
344	10
345	9
346	17
347	20
348	231
349	57
350	316
351	530
352	694
353	715
354	1408
355	941
356	1478
357	1300
358	1240
359	930
360	1021
361	322
362	491
363	62
364	88
365	14
