Mass Spectrum: Pymetrozin
Formula: C10 H11 N5 O
CAS: 123312-89-0
Molecular weight: 217
Origin: NIST Mass Spectrometry Data Center
m/z	RELATIVE INTENSITY
14	10
15	80
25	10
26	150
27	250
28	711
29	901
30	150
31	10
37	80
38	420
39	871
40	220
41	1291
42	1471
43	180
44	871
45	90
49	50
50	581
51	1732
52	550
53	110
54	410
55	400
56	691
57	170
58	10
61	40
62	200
63	1391
64	1141
65	250
66	40
67	10
68	20
69	90
70	250
71	30
72	50
74	10
75	90
76	210
77	330
78	1511
79	490
80	80
81	10
82	20
83	140
84	50
85	20
86	10
87	10
88	10
90	30
91	811
92	160
93	30
94	10
95	10
96	10
98	9999
99	440
100	30
101	10
103	50
104	280
105	1692
106	260
107	90
108	10
112	2072
113	5415
114	290
115	20
117	30
118	10
119	20
120	30
121	10
130	10
132	1011
133	100
134	140
135	10
139	10
145	10
146	10
148	20
217	390
218	60
