Mass Spectrum: 3,5-Difluoroacetophenone
Formula: C8 H6 F2 O
CAS: 123577-99-1
Molecular weight: 156
Origin: NIST Mass Spectrometry Data Center, 1994
m/z	RELATIVE INTENSITY
12	38
13	117
14	579
15	2296
16	30
17	19
18	18
20	51
25	28
26	23
31	168
33	52
36	34
37	334
38	316
39	242
40	26
41	23
42	774
43	7425
44	204
48	19
49	157
50	960
51	417
52	21
53	75
55	41
56	230
57	740
58	39
60	54
61	533
62	983
63	4135
64	260
68	724
69	412
71	294
73	127
74	482
75	685
76	64
77	101
79	53
80	167
81	575
82	53
83	42
84	28
85	106
86	131
87	239
88	136
89	16
92	263
93	579
94	403
95	65
96	17
97	11
98	49
99	151
100	39
101	313
104	31
105	95
106	25
107	192
108	17
109	37
110	53
111	56
112	11
113	8899
114	840
115	51
118	16
119	32
122	27
125	201
126	57
127	400
128	28
138	31
141	9999
142	775
143	46
156	3514
157	277
158	21
