Mass Spectrum: 2-Propenal, 3-phenyl-, (2,4-dinitrophenyl)hydrazone
Formula: C15 H12 N4 O4
CAS: 1237-69-0
Molecular weight: 312
m/z	RELATIVE INTENSITY
51	1301
52	601
53	200
62	300
63	1301
64	701
65	500
74	300
75	701
76	701
77	5805
78	801
79	300
81	300
88	200
89	901
90	601
91	1001
92	200
93	200
101	200
102	1301
103	2202
104	500
105	801
106	200
109	200
114	200
115	5205
116	1001
117	601
118	500
128	400
129	2803
130	3203
131	701
132	200
151	200
152	400
163	200
164	300
165	1001
166	300
167	200
176	200
177	300
178	701
179	300
180	200
189	1501
190	1001
191	901
192	701
193	300
203	300
204	300
205	500
206	701
207	200
217	1401
218	9509
219	2502
220	500
221	200
232	300
233	200
234	200
235	801
236	100
247	300
248	100
250	300
251	100
263	200
264	9999
265	2202
266	300
267	200
277	7006
278	1401
279	200
280	100
295	2002
296	300
311	500
312	4504
313	801
314	100
