Mass Spectrum: 3-Amino-2-fluorobenzotrifluoride
Formula: C7 H5 F4 N
CAS: 123973-25-1
Molecular weight: 179
Origin: NIST Mass Spectrometry Data Center
m/z	RELATIVE INTENSITY
10	10
17	30
18	80
19	10
20	20
25	20
26	70
31	561
33	120
34	10
36	40
37	300
38	460
39	540
40	130
41	260
42	40
44	90
45	70
46	120
47	20
48	30
49	80
50	430
51	460
52	520
53	70
54	260
56	360
57	1071
58	70
60	50
61	330
62	470
63	1111
64	350
66	100
67	30
68	160
69	1191
70	230
71	30
72	90
73	30
74	20
75	691
76	140
77	40
78	40
80	540
81	791
82	510
83	1191
84	170
85	50
86	30
87	120
88	330
90	571
91	70
92	60
93	220
94	210
95	90
96	30
99	180
100	170
101	1231
102	300
103	30
105	30
106	100
107	40
108	160
109	410
110	130
111	30
112	230
113	440
114	110
115	10
119	50
120	280
121	30
125	50
126	10
127	30
129	1992
130	160
132	2592
133	390
134	40
138	190
139	631
140	631
141	60
143	50
151	771
152	140
158	470
159	550
160	2993
161	280
163	390
164	40
176	10
179	9999
180	871
181	50
