Mass Spectrum: Methyl tetradecanoate
Formula: C15 H30 O2
CAS: 124-10-7
Molecular weight: 242
Origin: NIST Mass Spectrometry Data Center
m/z	RELATIVE INTENSITY
15	50
26	10
27	230
28	80
29	621
30	20
31	30
33	10
39	340
40	80
41	2142
42	490
43	2602
44	100
45	110
51	20
52	10
53	210
54	210
55	2893
56	540
57	1441
58	100
59	1151
60	40
61	20
65	40
66	20
67	300
68	140
69	1261
70	230
71	420
72	30
74	9999
75	1551
76	90
77	30
78	10
79	100
80	30
81	210
82	90
83	761
84	340
85	240
87	6916
88	631
89	50
91	10
93	60
94	20
95	170
96	70
97	591
98	300
99	60
100	30
101	671
102	60
103	10
107	50
108	10
109	90
110	40
111	230
112	70
113	30
114	10
115	220
116	90
117	10
121	50
122	10
123	40
124	20
125	100
126	20
127	10
129	671
130	130
131	10
135	40
137	20
138	20
139	40
140	10
141	10
143	2052
144	210
145	20
149	20
153	20
154	10
157	420
158	50
163	10
166	20
167	10
168	40
169	10
171	140
172	20
177	10
181	10
185	360
186	50
187	10
191	10
192	10
199	1101
200	160
201	20
209	10
211	530
212	80
213	220
214	30
242	510
243	90
244	10
