Mass Spectrum: Methane, dibromochloro-
Formula: C H Br2 Cl
CAS: 124-48-1
Molecular weight: 206
Origin: Japan AIST/NIMC Database- Spectrum MS-NW-2893
m/z	RELATIVE INTENSITY
12	90
13	199
14	10
26	10
27	30
28	50
29	40
31	109
35	129
36	90
37	40
38	30
44	10
45	60
46	20
47	1409
48	1629
49	469
50	549
79	649
80	70
81	589
82	70
91	669
92	359
93	659
94	349
108	10
110	10
114	20
116	20
126	80
127	7639
128	199
129	9999
130	139
131	2439
132	20
158	50
160	109
162	50
170	10
171	109
172	20
173	219
174	10
175	119
205	20
206	299
207	50
208	659
209	40
210	489
211	10
212	90
