Mass Spectrum: 1,2-Dibromotetrafluoroethane
Formula: C2 Br2 F4
CAS: 124-73-2
Molecular weight: 258
Origin: NIST Mass Spectrometry Data Center, 1992
m/z	RELATIVE INTENSITY
19	204
24	186
31	9999
43	253
50	4185
51	41
62	216
63	11
69	1806
70	32
79	3211
81	3220
91	627
93	584
100	3153
101	77
103	59
105	60
110	829
112	839
122	97
124	94
129	4596
131	4418
141	56
143	55
158	46
160	845
162	745
163	18
170	14
172	20
174	16
179	9735
181	9372
182	220
189	367
191	723
193	358
239	248
241	466
243	239
258	696
260	1294
262	658
263	17
