Mass Spectrum: 1-Octadecanamine
Formula: C18 H39 N
CAS: 124-30-1
Molecular weight: 269
Origin: Japan AIST/NIMC Database- Spectrum MS-NW- 321
m/z	RELATIVE INTENSITY
27	119
28	50
29	429
30	9999
31	159
39	109
40	20
41	1039
42	249
43	1709
44	2089
45	1049
46	20
50	10
53	70
54	109
55	1029
56	549
57	879
58	90
59	359
60	10
66	10
67	119
68	99
69	649
70	189
71	249
72	349
73	159
79	20
80	10
81	30
82	70
83	489
84	129
85	149
86	759
87	159
95	20
96	60
97	299
98	80
99	10
100	539
101	70
109	10
110	20
111	149
112	40
113	10
114	209
115	50
124	20
125	60
126	50
127	10
128	209
129	50
138	10
139	40
140	40
142	219
143	60
144	10
152	10
153	20
154	50
156	159
157	30
167	10
168	20
170	149
171	40
180	10
181	10
182	20
184	149
185	60
186	10
195	10
196	10
198	179
199	20
208	10
210	30
212	159
213	50
224	30
226	149
227	40
240	149
241	80
242	10
252	20
254	80
255	20
266	10
267	30
268	209
269	1129
270	239
271	20
