Mass Spectrum: Arsonic acid, methyl-
Formula: C H5 As O3
CAS: 124-58-3
Molecular weight: 140
Origin: FDA, Los Angeles District Laboratory
m/z	RELATIVE INTENSITY
75	900
76	250
77	450
79	450
88	350
89	1050
90	950
91	9749
92	1200
93	3150
95	750
105	300
106	1250
107	5849
123	1100
124	950
125	9999
138	400
139	2850
140	1600
