Mass Spectrum: 2-Propen-1-amine, N-2-propenyl-
Formula: C6 H11 N
CAS: 124-02-7
Molecular weight: 97
Origin: NIST Mass Spectrometry Data Center
m/z	RELATIVE INTENSITY
14	10
15	90
25	20
26	280
27	821
28	2382
29	310
30	851
31	10
37	180
38	470
39	4304
40	561
41	9999
42	1702
43	1091
44	90
46	30
50	30
51	110
52	320
53	220
54	1521
55	821
56	2632
57	160
58	10
62	10
63	20
64	20
65	140
66	50
67	761
68	7667
69	1031
70	7066
71	340
77	160
78	30
79	330
80	911
81	621
82	6075
83	340
92	10
93	40
94	520
95	60
96	2282
97	1702
98	160
