Mass Spectrum: 2-Propanol, 1-(2-butoxyethoxy)-
Formula: C9 H20 O3
CAS: 124-16-3
Molecular weight: 176
Origin: NIST Mass Spectrometry Data Center, 1990.
m/z	RELATIVE INTENSITY
15	377
18	77
19	349
26	262
27	1778
28	963
29	4545
30	364
31	2603
33	93
38	79
39	810
41	5754
42	790
43	2351
44	936
45	6413
46	193
47	122
53	96
55	954
56	2121
57	9999
58	1400
59	5977
60	1754
61	523
63	119
69	180
70	80
71	722
72	761
73	634
74	156
75	1304
76	219
77	782
78	50
82	51
83	70
85	513
86	347
87	2836
88	205
89	1135
100	1108
101	584
102	69
103	279
104	60
115	131
117	62
129	144
130	133
131	736
132	565
133	102
158	59
161	47
