Mass Spectrum: Octicizer
Formula: C20 H27 O4 P
CAS: 1241-94-7
Molecular weight: 362
Origin: Japan AIST/NIMC Database- Spectrum MS-NW-9360
m/z	RELATIVE INTENSITY
27	109
28	50
29	339
38	10
39	219
40	30
41	729
42	109
43	639
44	20
47	40
50	30
51	179
52	10
53	60
54	20
55	629
56	209
57	489
58	20
63	30
64	30
65	449
66	109
67	60
68	30
69	239
70	649
71	219
72	10
75	10
76	30
77	879
78	80
79	20
81	40
82	50
83	409
84	139
85	10
90	109
91	109
92	30
93	119
94	1709
95	209
96	10
97	20
99	10
100	20
107	30
109	30
112	279
113	30
115	40
116	10
128	10
129	20
139	50
140	90
141	109
142	40
151	40
152	139
153	189
154	20
155	10
156	70
157	40
165	60
166	70
167	10
168	109
169	229
170	709
171	99
172	10
173	10
174	60
175	759
176	50
183	10
185	10
186	10
187	10
215	99
216	10
223	10
228	20
229	10
231	20
232	139
233	99
234	10
248	20
249	1039
250	2689
251	9999
252	1329
253	159
254	10
263	40
264	10
286	10
287	40
305	10
325	109
326	179
327	40
333	10
362	1899
363	469
364	70
