Mass Spectrum: Dextromethorphan
Formula: C18 H25 N O
CAS: 125-71-3
Molecular weight: 271
Origin: Japan AIST/NIMC Database- Spectrum MS-IW-3588
m/z	RELATIVE INTENSITY
15	50
27	80
28	80
29	90
30	749
31	1369
32	20
39	139
40	30
41	319
42	1029
43	129
44	849
45	70
50	20
51	109
52	40
53	119
54	40
55	219
56	109
57	149
58	629
59	8969
60	609
61	10
62	10
63	80
64	30
65	139
66	30
67	189
68	90
69	50
70	359
71	80
72	30
73	20
74	10
75	30
76	50
77	309
78	119
83	159
84	80
85	40
86	20
87	10
88	20
89	90
90	50
91	399
92	80
93	90
94	239
95	139
96	149
97	50
98	60
99	60
100	30
101	40
102	129
103	149
104	60
105	129
106	109
107	179
108	209
109	90
110	70
111	10
112	30
113	129
114	119
115	739
116	209
117	149
118	60
119	80
120	119
121	419
122	289
123	229
124	119
125	20
126	40
127	289
128	839
129	479
130	129
131	199
132	90
133	60
134	129
135	569
136	269
137	40
138	10
139	109
140	60
141	549
142	219
143	189
144	289
145	279
146	339
147	299
148	519
149	119
150	5049
151	619
152	219
153	289
154	189
155	209
156	139
157	239
158	329
159	479
160	299
161	399
162	559
163	109
164	60
165	189
166	99
167	139
168	99
169	179
170	189
171	1879
172	829
173	289
174	769
175	449
176	169
177	30
178	40
179	60
180	40
181	149
182	109
183	209
184	379
185	449
186	229
187	109
188	189
189	50
190	20
191	10
193	10
194	20
195	40
196	80
197	219
198	279
199	259
200	199
201	109
202	209
203	1369
204	209
205	20
208	10
209	20
210	50
211	139
212	1749
213	1539
214	3649
215	669
216	129
217	20
224	20
225	40
226	99
227	159
228	539
229	169
230	50
238	20
239	40
240	149
241	40
242	689
243	189
244	20
254	40
255	60
256	759
257	169
258	20
268	60
269	179
270	4839
271	9999
272	1999
273	219
274	10
