Mass Spectrum: Dextrorphan
Formula: C17 H23 N O
CAS: 125-73-5
Molecular weight: 257
Origin: Drug Lab
m/z	RELATIVE INTENSITY
40	90
41	921
42	2823
43	440
44	1481
45	50
50	60
51	320
52	140
53	390
54	170
55	661
56	290
57	410
58	1061
59	5725
60	310
62	30
63	230
64	90
65	460
66	150
67	440
68	280
69	110
70	621
71	100
72	80
74	30
75	80
76	90
77	1331
78	380
79	651
80	210
81	470
82	1101
83	300
84	190
85	30
86	20
87	30
88	50
89	280
91	1211
92	220
93	250
94	741
95	280
96	320
97	120
98	20
99	60
100	130
101	120
102	270
103	540
104	160
105	450
106	40
107	1441
108	741
109	230
110	150
111	20
112	20
113	50
114	20
115	2412
116	621
117	490
118	210
119	240
120	611
121	440
122	581
123	340
124	440
125	50
126	130
127	1561
128	2412
129	1111
130	260
131	1511
132	781
133	751
134	420
135	110
136	290
137	70
138	20
139	340
140	140
141	1031
142	370
143	310
144	1351
145	1351
146	771
147	971
148	1541
150	7727
151	1081
152	751
153	681
154	280
155	340
157	5915
158	2442
159	741
160	1391
161	621
162	230
163	50
164	40
165	470
166	190
167	200
168	260
169	651
170	991
171	1281
172	581
173	260
174	470
175	120
176	70
177	40
178	80
179	130
180	60
181	390
182	250
183	470
184	430
185	440
186	410
187	220
188	641
189	2772
190	360
191	30
192	10
193	10
194	40
195	70
196	110
197	320
198	1531
199	1742
200	3863
201	671
202	180
203	30
208	10
209	10
210	50
211	50
212	280
213	170
214	991
215	260
216	70
224	10
225	10
226	110
228	1311
229	270
230	30
240	100
242	961
243	150
244	10
254	60
256	7036
257	9999
258	1702
259	170
