Mass Spectrum: Isobornyl acetate
Formula: C12 H20 O2
CAS: 125-12-2
Molecular weight: 196
Origin: Japan AIST/NIMC Database- Spectrum MS-NW-3941
m/z	RELATIVE INTENSITY
13	10
14	60
15	419
16	20
17	20
18	80
26	40
27	749
28	159
29	679
30	20
31	40
32	20
37	10
38	60
39	999
40	209
41	2619
42	199
43	6079
44	179
45	289
50	70
51	209
52	109
53	709
54	129
55	1559
56	159
57	289
58	40
59	99
60	229
61	30
62	20
63	70
64	20
65	289
66	189
67	1309
68	629
69	1409
70	259
71	629
72	619
73	50
74	10
75	10
77	649
78	159
79	1099
80	879
81	969
82	1419
83	809
84	469
85	179
86	60
87	20
89	20
90	10
91	689
92	999
93	4799
94	849
95	9999
96	829
97	269
98	129
99	159
100	40
101	30
102	10
103	30
104	20
105	299
106	90
107	1159
108	2379
109	1389
110	1709
111	669
112	109
113	219
114	50
115	30
117	10
119	80
120	50
121	5169
122	559
123	169
124	30
125	90
126	50
127	20
128	10
133	10
134	20
135	169
136	4519
137	709
138	60
139	439
140	50
141	10
152	30
153	139
154	879
155	119
156	10
160	20
171	10
181	60
182	10
196	30
