Mass Spectrum: Dihydrocodeine
Formula: C18 H23 N O3
CAS: 125-28-0
Molecular weight: 301
Origin: Virginia Division of Forensic Science
m/z	RELATIVE INTENSITY
15	200
27	170
28	180
29	380
30	160
31	250
33	30
39	310
40	70
41	370
42	1861
43	360
44	920
45	40
50	70
51	270
52	100
53	210
54	100
55	470
56	150
57	450
58	320
59	770
60	60
62	50
63	250
64	130
65	350
66	110
67	200
68	200
70	1191
71	230
72	80
74	50
75	140
76	170
77	730
78	250
79	270
80	100
81	180
82	790
83	290
84	180
86	50
87	80
88	90
89	380
90	160
91	670
92	140
93	130
94	340
95	140
96	420
97	120
98	170
99	80
100	70
101	120
102	350
103	510
104	160
105	240
106	160
107	260
108	300
109	130
110	80
111	60
112	90
113	150
115	2272
116	550
117	340
118	200
119	110
120	240
121	160
122	160
123	150
124	60
126	350
127	900
128	1451
129	750
130	230
131	520
132	250
133	180
134	190
135	100
136	230
137	220
138	140
139	320
140	150
141	710
142	320
143	420
144	830
145	480
146	770
147	250
148	160
149	90
150	250
151	310
152	530
153	560
154	280
155	570
156	370
157	480
158	400
159	410
160	290
161	370
162	430
164	2472
165	730
166	190
167	210
168	420
169	450
170	440
171	610
172	350
173	410
174	380
175	480
176	260
177	130
178	240
179	140
180	80
181	470
182	280
183	730
184	470
185	1461
186	510
187	750
188	750
189	300
190	330
191	120
192	60
193	100
194	90
195	170
196	180
197	340
198	530
199	1221
200	590
201	540
202	370
203	140
204	100
206	90
207	60
208	70
209	130
210	160
211	390
212	350
213	630
214	650
215	630
216	380
217	140
218	90
219	60
222	30
223	50
224	140
225	310
226	560
227	620
228	740
229	460
230	730
231	190
232	50
238	60
239	80
240	260
241	190
242	1471
243	820
244	1781
245	530
246	90
252	40
253	40
254	150
255	70
256	540
257	720
258	650
259	120
260	30
266	70
267	30
268	180
269	50
270	170
272	560
273	140
282	310
284	1271
285	280
286	1301
287	240
288	30
300	1941
301	9999
302	2041
303	260
