Mass Spectrum: 2,4,6,8,9,10-Hexaoxa-1,3,5,7-tetraarsatricyclo[3.3.1.1<3,7>]decane
Formula: As4 O6
CAS: 12505-67-8
Molecular weight: 396
Origin: Humboldt-Universitat zu Berlin, Department of Chemistry, Analytical Group
m/z	RELATIVE INTENSITY
75	501
91	9966
92	4
93	21
107	31
150	135
166	112
181	0
182	902
198	168
289	5943
290	12
291	48
300	99
305	95
380	43
396	9999
397	23
398	120
