Mass Spectrum: Valeric acid, hexadecyl ester
Formula: C21 H42 O2
CAS: 125164-54-7
Molecular weight: 326
Origin: V.Zaikin,Topchiev Inst.Petrochem.Synth.,Moscow
m/z	RELATIVE INTENSITY
27	2152
28	831
29	4614
30	130
31	180
35	30
36	80
37	70
38	120
39	1281
40	330
41	8167
42	2202
43	7607
44	400
45	200
50	90
51	160
52	70
53	631
54	1121
55	7377
56	3353
57	9999
58	621
59	130
60	711
61	320
62	40
63	60
65	100
66	130
67	1091
68	1331
69	4284
70	2312
71	2512
72	110
73	561
74	40
75	130
76	20
77	70
78	20
79	110
80	30
81	651
82	1431
83	3783
84	1401
85	6796
86	400
87	130
88	30
91	40
93	50
95	280
96	601
97	2312
98	861
99	220
100	70
101	200
102	1031
103	9108
104	641
105	110
109	80
110	250
111	1101
112	540
113	150
115	70
116	180
123	30
124	130
125	480
126	290
127	90
129	60
130	50
135	20
138	100
139	200
140	320
141	40
143	80
152	50
153	90
154	210
155	30
158	80
166	30
167	60
168	130
181	60
182	50
183	20
195	30
196	300
197	60
206	40
224	641
225	150
268	140
269	30
325	30
