Mass Spectrum: Butyric acid, pentadecyl ester
Formula: C19 H38 O2
CAS: 125164-51-4
Molecular weight: 298
Origin: V.G.Zaikin, Petrochem. Synth. Inst., Moscow
m/z	RELATIVE INTENSITY
26	110
27	1391
28	420
29	2012
30	130
31	90
36	110
38	50
39	851
40	310
41	4694
42	1431
43	9959
44	430
45	140
51	60
53	310
54	851
55	4594
56	2953
57	4884
58	310
60	510
61	110
65	50
66	50
67	681
68	1211
69	3763
70	2752
71	8398
72	450
73	270
81	450
82	1411
83	3413
84	1832
85	1091
86	180
87	110
88	1091
89	9999
90	510
91	60
93	60
95	190
96	721
97	2722
98	1181
99	250
100	60
101	90
102	20
110	210
111	1321
112	711
113	110
115	50
124	160
125	591
126	490
127	80
137	20
138	50
139	210
140	310
141	90
144	320
145	40
153	50
154	180
155	50
182	480
183	50
210	651
211	90
255	90
256	10
