Mass Spectrum: Cholest-5-en-3-ol, 4,4-dimethyl-, (3.beta.)-
Formula: C29 H50 O
CAS: 1253-88-9
Molecular weight: 414
Origin: T.IIDA NIHON UNIVERSITY, KORIYAMA, FUKUSHIMA-KEN, JAPAN
m/z	RELATIVE INTENSITY
17	100
18	700
26	200
27	500
28	400
29	1900
39	500
41	5100
42	500
43	8800
44	300
53	800
54	200
55	6700
56	700
57	5700
58	400
59	600
65	400
66	200
67	3500
68	500
69	5000
70	400
71	3100
72	200
77	1200
78	400
79	3300
80	600
81	5600
82	900
83	3000
84	300
85	700
91	3700
92	700
93	4600
94	1200
95	7100
96	900
97	2000
98	400
99	300
103	400
104	200
105	5500
106	1700
107	5500
108	1700
109	4100
110	600
111	1300
112	300
113	300
115	500
116	400
117	1300
118	700
119	4400
120	2000
121	4400
122	1300
123	2900
124	1100
125	700
126	200
127	400
128	500
129	800
130	400
131	2500
132	900
133	4900
134	3900
135	5200
136	2300
137	1500
138	2000
139	600
141	300
142	400
143	1200
144	600
145	2900
146	1000
147	4900
148	2500
149	7900
150	1300
151	800
152	500
153	600
155	300
156	300
157	1000
158	400
159	3000
160	900
161	3100
162	800
163	1500
164	300
165	600
166	200
169	200
170	200
171	1500
172	600
173	4400
174	1100
175	1900
176	600
177	700
178	200
179	400
185	800
186	400
187	2200
188	900
189	1300
190	400
191	900
192	200
193	600
197	300
198	100
199	900
200	200
201	300
202	1100
203	600
204	100
205	600
206	400
207	500
213	900
214	300
215	1100
216	300
217	400
219	500
225	100
227	800
228	300
229	1000
230	300
231	400
232	500
241	1600
242	500
243	600
244	200
245	500
246	300
247	1600
248	400
255	400
256	400
257	500
258	200
259	600
260	500
261	500
262	200
269	400
270	200
271	200
273	300
274	400
275	600
283	1600
284	400
285	300
287	600
288	300
289	300
299	300
300	300
301	600
302	200
311	500
312	200
313	600
314	500
315	500
325	300
326	300
327	400
328	700
329	300
331	2400
332	800
333	100
339	200
340	200
341	300
342	200
343	300
353	2100
354	1200
355	800
356	500
357	1300
358	400
367	300
369	200
370	1500
371	400
381	9999
382	3100
383	600
393	300
396	7900
397	2700
398	500
399	1400
400	500
414	2600
415	900
