Mass Spectrum: Methyl acetyl-isolithocholate
Formula: C27 H44 O4
CAS: 1255-51-2
Molecular weight: 432
Origin: Div. of Experiment Therapeutics WRAIR, WRAMC, Washington DC 20307
m/z	RELATIVE INTENSITY
41	2054
43	9999
44	279
45	116
47	19
49	121
51	63
53	558
55	3808
57	621
59	925
61	897
65	154
67	1882
68	515
69	888
70	26
71	145
73	637
74	779
77	528
79	2165
81	2673
83	844
84	31
85	206
87	413
88	96
91	1216
93	1797
94	355
95	1543
96	177
97	217
99	147
101	74
103	59
105	1129
106	636
107	1510
108	849
109	741
110	100
111	105
115	277
117	237
118	71
119	560
120	288
121	606
122	302
123	278
124	67
125	55
128	29
129	83
131	283
132	32
133	643
134	370
135	587
136	119
137	68
141	83
142	14
143	77
145	459
147	746
148	281
149	498
150	75
151	42
154	219
155	29
156	14
157	60
159	320
160	202
161	382
162	209
163	126
171	52
173	185
174	99
175	158
176	95
177	70
185	30
187	171
188	95
189	101
191	13
195	14
199	58
201	257
202	95
203	125
208	52
213	63
215	1361
216	535
217	248
218	89
229	78
230	386
231	126
233	27
241	14
243	14
249	17
256	13
257	609
258	122
262	65
264	64
275	74
276	52
285	16
290	58
317	14
318	68
323	51
325	32
326	16
330	31
331	13
341	120
357	390
358	112
370	26
371	15
372	1379
373	471
374	84
432	47
