Mass Spectrum: Cobalt, hexacarbonyl(ethyne)di-
Formula: C8 H2 Co2 O6
CAS: 12553-66-1
Molecular weight: 312
Origin: G. A. VAGLIO
m/z	RELATIVE INTENSITY
59	8800
71	600
83	500
84	1900
85	1400
87	5100
113	600
115	1700
118	8600
130	400
142	2300
143	7100
144	6800
146	1000
171	1400
172	9999
174	800
200	1000
228	3300
230	300
256	2200
284	6500
312	2900
