Mass Spectrum: Cobalt, decacarbonyl(ethynylbenzene)tetra-
Formula: C18 H6 Co4 O10
CAS: 12568-53-5
Molecular weight: 618
Origin: G.R.TAILBY MONASH UNIVERSITY, CLAYTON, VICTORIA, AUSTRALIA.
m/z	RELATIVE INTENSITY
28	9999
59	4300
63	3700
64	2600
65	3500
76	2600
77	8600
78	5300
91	7000
92	4500
102	1700
103	1300
104	1500
115	5600
118	3100
128	2500
139	2400
141	3700
149	2400
161	2700
165	1700
168	2700
179	1700
184	1400
193	1500
203	800
215	500
220	1900
231	700
233	900
248	3300
260	800
276	1200
304	500
332	500
338	1300
360	800
366	700
388	300
394	600
422	700
450	900
478	1000
506	700
534	500
562	300
590	600
618	400
