Mass Spectrum: 1,3-Dioxolane, 2-ethyl-2-methyl-
Formula: C6 H12 O2
CAS: 126-39-6
Molecular weight: 116
Origin: D.H.WILLIAMS CHEMISTRY DEPT., UNIVERSITY OF CAMBRIDGE
m/z	RELATIVE INTENSITY
26	700
27	2500
28	1000
29	2000
30	100
31	200
32	400
38	250
39	1000
40	2800
41	1500
42	1000
43	9000
44	500
45	700
50	300
51	400
52	200
53	400
54	300
55	1000
56	1000
57	3000
58	200
59	100
71	1200
72	200
73	300
85	700
86	1700
87	9999
88	600
99	150
101	3250
102	400
