Mass Spectrum: Neopentyl glycol
Formula: C5 H12 O2
CAS: 126-30-7
Molecular weight: 104
Origin: Japan AIST/NIMC Database- Spectrum MS-NW-1684
m/z	RELATIVE INTENSITY
14	20
15	199
17	30
18	119
19	20
26	90
27	1389
28	499
29	1979
30	80
31	2979
32	119
33	80
37	40
38	109
39	1259
40	239
41	2909
42	209
43	2909
44	119
45	1839
46	50
47	40
49	10
50	40
51	60
52	20
53	339
54	80
55	7249
56	9999
57	1229
58	179
59	269
61	40
67	40
68	119
69	70
70	20
71	1099
72	549
73	6339
74	469
75	30
85	30
86	219
87	30
89	20
