Mass Spectrum: Propane, 2,2-diethoxy-
Formula: C7 H16 O2
CAS: 126-84-1
Molecular weight: 132
Origin: RADIAN CORP
m/z	RELATIVE INTENSITY
15	210
26	130
27	990
28	90
29	1750
30	210
31	1050
38	20
39	430
40	80
41	700
42	430
43	3520
44	110
45	360
46	10
57	170
58	630
59	9999
60	340
61	2350
62	40
75	20
86	200
87	6620
88	360
89	720
90	10
117	900
118	50
