Mass Spectrum: Dipentaerythritol
Formula: C10 H22 O7
CAS: 126-58-9
Molecular weight: 254
Origin: Japan AIST/NIMC Database- Spectrum MS-NW-4335
m/z	RELATIVE INTENSITY
14	10
15	90
17	99
18	419
19	79
26	80
27	879
28	359
29	1349
30	359
31	3439
32	119
33	30
36	10
37	50
38	70
39	1439
40	519
41	4189
42	1949
43	3099
44	289
45	459
46	20
47	349
49	119
50	30
51	40
52	30
53	829
54	1149
55	2709
56	389
57	3419
58	349
59	129
60	60
61	99
63	10
65	30
66	10
67	80
68	169
69	1939
70	2339
71	9999
72	839
73	299
74	299
75	30
77	40
78	10
79	70
80	20
81	169
82	2129
83	3059
84	349
85	329
86	109
87	2309
88	599
89	1429
90	80
91	50
92	20
93	70
94	20
95	50
96	30
97	30
98	20
99	1059
100	609
101	3379
102	279
103	40
104	20
105	20
106	10
107	20
108	10
109	60
110	20
111	20
112	10
113	60
114	10
115	20
117	60
118	10
119	3499
120	259
121	50
122	159
123	30
124	10
125	20
126	10
127	20
128	10
129	10
131	139
132	10
133	20
134	10
135	99
136	10
137	5939
138	349
139	139
140	70
141	30
142	10
143	10
145	10
147	2809
148	199
149	689
150	50
151	10
152	10
157	20
158	20
159	10
162	10
163	10
165	10
169	10
170	20
173	179
174	20
175	10
176	10
187	20
188	649
189	119
190	40
205	20
206	119
207	20
255	50
