Mass Spectrum: Sucrose Octaacetate
Formula: C28 H38 O19
CAS: 126-14-7
Molecular weight: 678
Origin: Japan AIST/NIMC Database- Spectrum MS-NW-9032
m/z	RELATIVE INTENSITY
15	40
18	10
27	20
28	10
29	30
39	10
41	30
42	70
43	5459
44	279
45	60
53	20
54	10
55	60
56	20
57	40
60	60
61	80
67	10
68	50
69	209
70	50
71	60
73	299
74	20
80	10
81	239
82	40
83	40
84	30
85	269
86	99
87	20
95	10
96	40
97	599
98	229
99	129
100	20
101	479
102	80
103	329
104	10
109	4439
110	509
111	90
112	30
113	129
114	50
115	649
116	109
117	10
123	10
125	70
126	239
127	989
128	139
129	40
131	20
132	20
138	10
139	389
140	60
141	50
142	20
143	70
144	50
145	479
146	30
151	20
152	70
153	80
154	10
155	60
156	90
157	189
158	50
167	20
168	90
169	9999
170	939
171	139
172	10
173	40
174	20
182	10
185	50
186	80
187	179
188	10
191	10
197	10
198	10
199	20
200	20
203	20
210	10
211	6899
212	779
213	119
214	10
215	50
224	20
227	10
228	99
229	219
230	20
233	40
242	10
245	40
246	10
271	1129
272	149
273	30
275	90
276	10
287	10
288	20
289	40
317	10
330	10
331	7459
332	1179
333	229
334	20
