Mass Spectrum: Methylacrylonitrile
Formula: C4 H5 N
CAS: 126-98-7
Molecular weight: 67
Origin: NIST Mass Spectrometry Data Center, 1998.
m/z	RELATIVE INTENSITY
12	10
13	20
14	50
15	120
24	30
25	90
26	380
27	970
28	160
32	40
36	240
37	1620
38	2090
39	5439
40	2570
41	9999
42	360
48	40
49	140
50	410
51	1680
52	3210
53	130
62	220
63	500
64	1090
65	320
66	2320
67	6239
68	340
69	10
