Mass Spectrum: Sarsasapogenin
Formula: C27 H44 O3
CAS: 126-19-2
Molecular weight: 416
Origin: LAC, NIDDK, NIH, Bethesda, MD 20892
m/z	RELATIVE INTENSITY
41	1872
42	729
43	1858
44	99
45	94
47	60
48	42
49	47
51	20
53	411
55	2770
56	326
57	691
58	45
59	69
65	112
66	18
67	1308
68	93
69	3374
70	222
71	307
72	65
73	114
77	412
78	29
79	1331
80	218
81	1530
82	187
83	376
84	367
85	160
86	245
87	27
88	74
91	929
92	173
93	1226
94	322
95	1214
96	220
97	692
98	28
99	207
100	56
101	35
103	52
104	32
105	933
106	317
107	1417
108	735
109	846
110	195
111	171
112	106
113	162
114	486
115	2269
116	48
117	232
118	38
119	500
120	313
121	863
122	1270
123	385
124	450
125	410
126	513
127	182
128	103
129	92
130	30
131	303
132	62
133	636
134	223
135	613
136	156
137	181
139	9999
140	1172
141	187
142	66
143	137
144	43
145	328
146	84
147	606
148	176
149	371
150	83
151	97
152	44
153	61
155	117
156	19
157	96
158	29
159	321
160	130
161	507
162	144
163	189
164	63
165	95
166	29
167	98
168	237
169	74
171	96
173	169
174	78
175	162
176	468
177	261
178	74
179	79
180	14
181	69
182	13
183	13
185	74
187	132
188	44
189	80
190	137
191	44
199	79
201	106
202	277
203	128
205	14
206	13
213	64
214	42
215	212
216	162
217	95
218	147
219	68
221	14
227	44
229	225
230	91
231	60
232	218
233	128
234	116
241	52
243	69
244	13
245	200
246	65
247	98
253	35
255	699
256	171
257	49
259	42
269	706
270	130
271	101
272	59
273	2738
274	589
275	93
283	29
284	422
285	227
286	22
287	2090
288	382
289	58
300	48
301	20
302	2257
303	550
304	75
311	31
313	75
317	66
318	32
328	112
329	412
330	100
344	848
345	242
346	96
347	423
348	104
357	300
358	87
386	75
399	15
401	54
402	13
415	45
416	514
417	214
418	35
