Mass Spectrum: m-Methoxybenzoic acid, 2-chlorophenyl ester
Formula: C14 H11 Cl O3
CAS: 126165-50-2
Molecular weight: 262
Origin: Zaikin V.G., TIPS RAS, Moscow, Russia
m/z	RELATIVE INTENSITY
28	10
38	30
39	30
50	50
51	30
62	30
63	200
64	290
65	30
73	50
75	50
76	110
77	691
78	60
79	30
92	631
93	40
99	80
107	1191
108	100
128	60
135	9999
136	741
137	60
152	30
262	400
263	60
264	130
