Mass Spectrum: Bis(triphenyltin) oxide
Formula: C36 H30 O Sn2
CAS: 1262-21-1
Molecular weight: 718
Origin: Japan AIST/NIMC Database- Spectrum MS-NW-9078
m/z	RELATIVE INTENSITY
26	20
27	50
37	10
38	20
39	99
41	20
43	20
44	30
49	10
50	179
51	539
52	169
53	10
55	20
57	20
62	10
63	30
64	10
65	10
69	10
71	10
73	10
74	60
75	40
76	99
77	659
78	1249
79	90
81	10
83	10
85	10
89	10
91	10
94	10
97	10
102	20
103	10
105	10
109	10
110	10
111	10
112	119
114	70
115	40
116	1659
117	909
118	2789
119	1029
120	3749
121	80
122	539
123	10
124	649
125	10
126	20
127	20
128	30
133	70
134	40
135	129
136	50
137	189
139	30
141	80
142	30
143	90
144	30
145	119
147	20
149	20
150	10
151	60
152	329
153	269
154	799
155	99
156	10
157	10
158	10
165	10
167	30
168	10
169	50
170	10
171	40
184	10
185	20
186	30
189	109
191	80
192	80
193	1639
194	1019
195	2779
196	1189
197	3669
198	259
199	529
200	50
201	639
202	50
204	30
209	10
210	20
211	30
212	30
213	40
214	30
215	10
217	10
218	10
219	10
221	10
226	10
227	10
228	70
229	80
230	50
231	40
243	10
245	10
247	20
250	10
251	10
252	20
253	10
254	20
255	10
256	20
265	10
266	109
267	20
268	119
269	239
270	1719
271	1319
272	2859
273	1659
274	3579
275	529
276	539
277	139
278	649
279	189
280	219
281	239
282	199
283	90
284	60
285	70
286	149
287	379
288	389
289	609
290	469
291	599
292	109
293	119
294	60
295	99
296	10
305	20
306	20
307	40
308	20
309	60
310	10
311	20
325	20
326	10
327	40
328	40
329	90
330	60
331	99
332	40
333	80
334	10
335	30
337	20
343	299
344	60
345	309
346	259
347	4389
348	3179
349	7699
350	4009
351	9999
352	1929
353	1569
354	309
355	1679
356	329
357	40
363	10
364	10
365	20
366	20
367	20
368	10
401	10
402	20
403	30
404	50
405	70
406	99
407	90
408	99
409	70
410	70
411	30
412	30
413	10
414	20
419	10
421	10
422	10
423	179
424	149
425	329
426	189
427	419
428	109
429	70
430	20
431	70
432	20
442	10
444	20
475	10
476	10
477	20
478	20
479	109
480	129
481	309
482	319
483	599
484	459
485	649
486	369
487	519
488	169
489	199
490	90
491	139
492	30
493	30
495	20
499	10
500	10
501	30
502	10
503	30
504	10
553	10
555	50
556	60
557	139
558	149
559	299
560	249
561	339
562	219
563	269
564	119
565	119
566	60
567	70
568	30
569	20
617	20
619	70
620	20
621	129
622	99
623	149
624	50
625	119
626	20
627	50
629	60
631	80
633	329
635	859
637	1809
638	1419
639	2049
640	1199
641	1629
642	239
643	679
644	80
645	419
647	20
649	30
714	179
715	140
716	189
717	120
718	149
