Mass Spectrum: Mesoporphyrin ix dimethyl ester
Formula: C36 H42 N4 O4
CAS: 1263-63-4
Molecular weight: 594
Origin: A.S.Moskovkin,I.M.Karnaukh, Russian Center on Disaster Medicine
m/z	RELATIVE INTENSITY
125	20
186	30
187	50
192	20
194	90
200	70
201	180
202	60
206	20
207	70
208	240
209	90
214	40
215	190
216	170
217	40
222	50
223	270
224	90
229	40
230	260
231	120
232	20
236	40
237	80
239	50
242	150
243	60
244	500
251	60
257	10
260	80
265	110
276	40
277	10
296	10
297	170
373	20
387	40
388	20
389	20
399	20
400	20
401	40
403	130
404	40
405	30
415	80
416	80
417	190
418	110
419	110
420	30
429	50
430	50
431	210
432	230
433	280
434	130
435	40
445	120
446	50
447	400
448	320
449	140
450	40
460	10
461	130
462	80
463	50
464	10
475	20
476	20
477	20
478	30
489	30
490	20
491	40
492	20
493	10
503	10
505	220
506	160
507	80
508	30
509	10
519	50
520	70
521	1421
522	650
523	130
524	20
533	10
534	50
535	270
536	230
537	70
562	10
563	260
564	100
565	30
566	10
579	300
580	140
581	30
592	60
593	290
594	9999
595	4083
596	820
597	110
598	10
