Mass Spectrum: 2,3-Dichlorothiophene-5-sulfonyl chloride
Formula: C4 H Cl3 O2 S2
CAS: 126714-85-0
Molecular weight: 250
Origin: NIST Mass Spectrometry Data Center, 1994
m/z	RELATIVE INTENSITY
12	280
13	77
16	307
17	105
18	89
24	146
25	306
26	133
28	63
32	1446
33	91
35	1763
36	1617
37	4145
38	667
39	71
40	88
41	69
44	1657
45	3821
46	162
47	1561
48	4259
49	1129
50	397
53	91
56	983
57	2031
58	651
59	342
60	374
64	3631
65	124
66	176
67	109
68	1344
69	3926
70	301
71	1189
72	3221
73	1434
74	1205
75	509
76	417
77	146
78	109
79	2843
80	1195
81	7224
82	841
83	610
84	542
85	251
86	170
87	109
88	105
89	59
90	59
91	1049
92	255
93	584
94	567
95	177
96	167
99	128
100	117
103	788
104	292
105	376
106	59
107	8638
108	59
109	5692
110	226
111	972
112	222
113	132
114	117
115	884
116	3958
117	1892
118	1539
119	632
120	123
123	219
125	157
126	119
127	72
135	73
139	1857
140	103
141	1399
142	85
143	316
148	99
149	160
151	3143
152	2496
153	2358
154	1551
155	565
156	342
157	54
167	4838
168	330
169	3561
170	176
171	717
183	97
184	121
186	695
187	81
188	788
189	56
190	239
199	216
201	149
215	9999
216	808
217	7126
218	478
219	1586
220	130
221	86
250	3969
252	4645
253	299
254	1735
255	114
256	277
