Mass Spectrum: 1-Penten-3-one, 1-(2,6,6-trimethyl-1-cyclohexen-1-yl)-
Formula: C14 H22 O
CAS: 127-43-5
Molecular weight: 206
Origin: Japan AIST/NIMC Database- Spectrum MS-NW-5253
m/z	RELATIVE INTENSITY
15	50
17	10
18	30
20	10
26	30
27	669
28	90
29	2089
30	50
31	30
38	30
39	709
40	99
41	1579
42	70
43	539
44	20
45	20
50	50
51	269
52	119
53	499
54	50
55	779
56	80
57	3839
58	169
59	60
60	10
61	10
62	20
63	129
64	70
65	409
66	99
67	399
68	40
69	769
70	50
71	60
72	20
73	10
74	20
75	30
76	20
77	869
78	199
79	709
80	109
81	629
82	80
83	129
84	20
85	189
86	20
87	10
89	40
90	10
91	1069
92	229
93	1179
94	189
95	679
96	80
97	149
98	20
99	30
102	30
103	129
104	60
105	629
106	159
107	969
108	159
109	389
110	80
111	60
112	10
113	10
115	159
116	70
117	219
118	60
119	589
120	109
121	1059
122	189
123	609
124	179
125	30
126	20
127	30
128	70
129	90
130	40
131	199
132	80
133	549
134	159
135	739
136	529
137	339
138	50
139	20
141	30
142	40
143	80
144	90
145	169
146	40
147	119
148	60
149	1379
150	639
151	99
152	20
153	10
154	10
155	10
156	20
157	70
158	40
159	259
160	50
161	109
162	70
163	349
164	70
165	30
167	10
169	30
170	10
171	50
172	10
173	349
174	60
175	90
176	189
177	799
178	129
179	20
184	20
185	10
186	40
187	20
188	60
189	50
190	20
191	9999
192	1469
193	129
194	10
204	10
205	60
206	669
207	119
208	10
