Mass Spectrum: Acetic acid, potassium salt
Formula: C2 H3 K O2
CAS: 127-08-2
Molecular weight: 98
Origin: E. White V, SmithKline Corp.
m/z	RELATIVE INTENSITY
26	50
27	50
28	180
29	60
37	50
38	60
39	9999
41	1050
42	330
43	2890
44	1070
45	80
55	250
56	50
57	60
58	1060
59	50
78	220
83	1010
85	90
94	180
121	50
137	4750
138	320
139	810
141	50
151	15
177	13
235	28
237	6
