Mass Spectrum: .alpha.-Ionone
Formula: C13 H20 O
CAS: 127-41-3
Molecular weight: 192
Origin: Japan AIST/NIMC Database- Spectrum MS-NW-5270
m/z	RELATIVE INTENSITY
14	10
15	239
17	10
18	70
26	30
27	829
28	119
29	549
30	10
32	10
38	50
39	1139
40	189
41	1939
42	99
43	5459
44	129
45	179
50	90
51	369
52	189
53	709
54	80
55	629
56	129
57	149
58	60
59	10
62	30
63	149
64	60
65	549
66	139
67	469
68	80
69	489
70	50
71	229
72	20
73	10
74	20
75	30
76	20
77	1859
78	439
79	819
80	189
81	599
82	129
83	70
84	20
85	30
86	10
87	10
89	50
90	30
91	2029
92	1249
93	7929
94	869
95	449
96	149
97	80
98	20
99	30
100	10
101	10
102	20
103	149
104	50
105	489
106	139
107	829
108	319
109	2139
110	209
111	129
112	259
113	20
115	129
116	70
117	189
118	80
119	509
120	90
121	9999
122	1049
123	209
124	80
125	30
126	10
127	20
128	40
129	50
130	20
131	159
132	50
133	199
134	399
135	579
136	7239
137	1209
138	109
139	10
141	10
142	20
143	20
144	40
145	30
146	10
147	60
148	30
149	629
150	109
151	20
157	30
158	10
159	239
160	30
161	50
162	30
163	50
164	30
165	10
173	20
174	40
175	40
176	10
177	1009
178	149
179	10
190	10
191	20
192	1539
193	229
194	20
