Mass Spectrum: Sulfisoxazole
Formula: C11 H13 N3 O3 S
CAS: 127-69-5
Molecular weight: 267
Origin: Japan AIST/NIMC Database- Spectrum MS-IW-6814
m/z	RELATIVE INTENSITY
14	10
15	129
16	30
17	49
18	149
26	60
27	269
28	299
29	40
30	50
31	20
32	10
37	20
38	109
39	709
40	219
41	589
42	1069
43	1459
44	219
45	40
46	10
48	60
50	60
51	99
52	229
53	269
54	419
55	99
56	60
57	60
58	10
60	10
61	20
62	70
63	229
64	299
65	2349
66	489
67	80
68	519
69	149
70	139
71	129
72	10
74	20
75	30
76	50
77	30
78	40
79	60
80	339
81	259
82	50
83	40
84	279
85	30
86	20
87	70
89	30
90	70
91	229
92	5739
93	1009
94	70
95	50
96	129
97	139
98	50
99	10
102	10
103	10
104	20
105	40
106	40
107	70
108	4439
109	649
110	80
111	299
112	249
113	30
115	10
116	10
117	40
118	80
119	70
120	99
121	20
122	10
123	70
124	219
125	449
126	40
127	20
128	10
130	50
131	30
132	10
133	30
134	10
135	10
136	10
137	20
138	159
139	20
140	2409
141	259
142	129
143	20
144	20
145	70
146	30
147	10
151	10
155	20
156	9999
157	2499
158	699
159	249
160	139
161	20
162	40
172	159
173	60
174	30
175	10
182	40
183	50
184	10
197	10
198	259
199	40
200	20
202	10
203	149
204	20
210	10
215	20
226	10
229	10
267	1559
268	249
269	99
270	10
