Mass Spectrum: Trimethadione
Formula: C6 H9 N O3
CAS: 127-48-0
Molecular weight: 143
Origin: NIST Mass Spectrometry Data Center
m/z	RELATIVE INTENSITY
14	10
15	150
25	10
26	60
27	290
28	360
29	200
30	40
31	40
37	60
38	150
39	1121
40	350
41	1511
42	2202
43	9999
44	310
45	60
50	10
51	10
52	20
53	50
54	50
55	90
56	791
57	360
58	3173
59	761
60	30
66	10
68	10
69	80
70	490
71	20
72	10
82	10
84	20
98	20
99	20
100	200
101	10
115	60
127	50
128	1201
129	70
130	10
143	3323
144	240
145	30
