Mass Spectrum: Phenazocine
Formula: C22 H27 N O
CAS: 127-35-5
Molecular weight: 321
Origin: Drug Lab
m/z	RELATIVE INTENSITY
41	230
42	611
43	150
44	711
51	110
52	20
53	60
54	60
55	240
56	380
57	240
58	1411
59	40
63	50
65	330
66	10
67	20
68	70
69	50
70	140
73	10
77	530
78	140
79	410
80	40
82	60
84	40
89	70
90	10
91	1031
92	120
93	10
94	20
96	60
102	40
103	360
104	120
105	1111
106	100
107	280
108	50
110	40
115	500
116	140
117	170
118	40
119	70
120	10
121	50
127	280
128	330
129	250
130	110
131	380
132	140
133	140
134	10
135	50
141	220
142	60
143	60
144	390
145	691
146	210
147	200
148	20
152	30
153	40
154	10
155	120
156	40
157	510
158	911
159	711
160	140
161	70
169	30
170	40
171	120
172	210
173	861
174	220
175	50
184	90
185	30
186	50
187	160
188	10
191	10
199	90
200	50
201	20
207	20
214	20
215	20
228	60
229	230
230	9999
231	1672
232	140
253	40
320	80
