Mass Spectrum: N,N-Dimethylacetamide
Formula: C4 H9 N O
CAS: 127-19-5
Molecular weight: 87
Origin: NIST Mass Spectrometry Data Center, 1998.
m/z	RELATIVE INTENSITY
13	10
14	70
15	520
16	10
18	150
25	10
26	40
27	120
28	360
29	100
30	660
31	30
37	10
38	40
39	80
40	260
41	440
42	2950
43	4900
44	9999
45	2220
46	80
51	30
52	60
53	10
54	80
55	70
56	310
57	30
58	190
59	10
68	10
70	10
72	2200
73	80
74	10
87	6649
88	380
89	20
