Mass Spectrum: 2-Propanone, oxime
Formula: C3 H7 N O
CAS: 127-06-0
Molecular weight: 73
Origin: Japan AIST/NIMC Database- Spectrum MS-NW-1527
m/z	RELATIVE INTENSITY
12	20
13	40
14	199
15	4469
16	60
17	20
18	70
19	10
24	20
25	80
26	669
27	1379
28	4269
29	1289
30	919
31	3099
32	40
33	219
34	30
36	30
37	229
38	489
39	1899
40	889
41	2119
42	2089
43	139
44	169
45	40
46	20
50	30
51	179
52	289
53	60
54	2089
55	939
56	1229
57	229
58	6399
59	169
60	10
72	30
73	9999
74	409
75	30
