Mass Spectrum: 4-Chloro-3-nitrophenyl isothiocyanate
Formula: C7 H3 Cl N2 O2 S
CAS: 127142-66-9
Molecular weight: 214
Origin: NIST Mass Spectrometry Data Center, 1994
m/z	RELATIVE INTENSITY
14	57
16	78
18	57
25	52
26	161
27	55
28	235
29	52
30	3122
31	52
32	553
34	40
35	128
36	218
37	1165
38	910
39	323
40	46
44	767
45	417
46	806
47	236
48	117
49	812
50	1650
51	464
52	197
53	49
56	130
57	139
58	355
59	115
60	314
61	1141
62	1310
63	1561
64	727
65	74
66	69
68	91
69	636
70	828
71	171
72	491
73	1782
74	3896
75	3525
76	652
77	106
79	249
80	73
81	281
82	427
83	1095
84	988
85	288
86	480
87	490
88	1562
89	205
90	15
91	250
93	166
94	221
95	163
96	275
97	876
98	604
99	564
100	645
101	95
103	107
105	304
106	701
107	536
108	403
109	456
110	451
111	204
112	354
114	85
115	43
117	107
118	125
119	61
120	207
121	141
122	68
123	43
124	3473
125	355
126	1306
127	144
128	142
129	194
130	79
131	400
132	43
133	9999
134	1034
135	524
136	60
140	37
141	174
142	71
143	74
147	32
149	75
151	46
156	3185
157	291
158	1116
159	82
160	67
168	2773
169	334
170	1018
171	96
179	126
184	197
186	95
198	66
200	46
214	8589
215	951
216	3252
217	328
218	149
