Mass Spectrum: Titanocene dichloride
Formula: C10 H10 Cl2 Ti
CAS: 1271-19-8
Molecular weight: 248
Origin: D.HENNEBERG, MAX-PLANCK INSTITUTE, MULHEIM, WEST GERMANY
m/z	RELATIVE INTENSITY
26	278
27	220
29	36
30	54
31	38
32	3
33	17
35	64
36	328
37	188
38	562
39	5503
40	254
41	32
42	10
43	13
44	25
46	28
47	38
48	298
49	36
50	104
51	126
52	36
53	11
55	1
56	13
57	17
58	50
59	10
60	16
61	67
62	226
63	718
64	227
65	3290
66	366
67	6
71	50
72	42
73	195
74	80
75	48
76	31
77	83
78	28
79	26
81	232
82	224
83	2356
84	321
85	1106
86	415
87	237
88	38
95	11
96	27
97	42
98	112
99	51
100	17
101	56
104	8
107	67
108	270
109	157
110	249
111	80
112	232
113	340
114	51
115	35
116	158
117	132
118	1359
119	246
120	1239
121	453
122	810
123	312
124	391
125	69
126	40
127	54
128	143
129	43
130	27
131	13
132	27
133	64
134	66
136	31
137	29
138	16
143	21
144	35
145	83
146	638
147	933
148	4974
149	917
150	1897
151	240
152	114
153	24
156	45
157	106
158	82
159	87
160	37
161	17
162	10
164	14
173	14
174	98
175	58
176	262
177	39
178	168
179	58
180	43
181	1071
182	996
183	9999
184	1667
185	6659
186	982
187	1451
188	151
189	94
190	34
192	9
194	3
197	4
207	18
208	12
209	43
210	58
211	299
212	472
213	1599
214	427
215	557
216	125
217	44
218	31
220	13
222	13
225	13
227	26
229	93
231	8
246	274
247	269
248	3063
249	677
250	1971
251	362
252	440
