Mass Spectrum: Ferrocenecarboxylic acid
Formula: C11 H10 Fe O2
CAS: 1271-42-7
Molecular weight: 230
Origin: Japan AIST/NIMC Database- Spectrum MS-NW-4448
m/z	RELATIVE INTENSITY
16	20
17	20
18	70
26	30
27	80
28	30
29	10
31	10
37	50
38	169
39	1019
40	60
41	20
43	10
44	60
45	30
50	40
51	80
52	20
53	60
54	129
55	20
56	2009
57	199
61	40
62	109
63	519
64	649
65	249
66	80
67	10
68	30
69	20
70	20
71	159
73	2309
74	60
75	30
76	20
77	99
78	20
79	30
80	20
81	539
82	109
83	90
84	10
85	10
86	10
87	10
89	60
91	20
92	999
93	189
94	479
95	249
96	20
98	10
99	10
101	20
102	80
103	99
104	10
105	60
106	30
107	50
108	20
109	90
110	70
111	80
112	40
114	10
115	129
116	10
117	50
118	129
119	369
120	489
121	489
122	50
126	30
127	179
128	339
129	399
130	50
131	40
132	20
133	80
134	10
135	60
136	709
137	789
138	9999
139	809
140	80
145	20
146	10
147	70
149	10
155	20
156	10
157	109
158	30
159	40
163	119
164	20
165	1739
166	169
167	20
181	10
182	30
183	119
184	109
185	159
186	149
187	20
201	20
211	30
212	20
213	30
214	10
228	469
229	80
230	7019
231	1099
232	129
233	10
