Mass Spectrum: Nickelocene
Formula: C10 H10 Ni
CAS: 1271-28-9
Molecular weight: 188
Origin: Japan AIST/NIMC Database- Spectrum MS-IW-3958
m/z	RELATIVE INTENSITY
27	10
37	20
38	50
39	489
40	50
41	10
50	20
51	50
52	10
58	2239
59	10
60	879
61	40
62	119
63	149
64	30
65	189
66	269
67	20
72	10
74	10
75	10
76	20
77	99
78	40
79	10
83	99
84	249
85	50
86	90
87	10
88	10
89	70
91	40
94	599
95	309
96	559
97	1749
98	289
99	669
100	90
101	90
102	119
103	70
104	10
107	40
108	109
109	109
110	70
111	40
112	10
115	149
116	10
119	30
120	70
121	80
122	169
123	9139
124	599
125	3519
126	379
127	539
128	829
129	1139
130	199
131	10
132	20
133	30
134	50
135	129
136	199
137	60
138	70
139	10
140	10
146	10
147	30
148	40
149	30
150	10
159	40
160	109
161	50
162	209
163	20
164	70
165	10
166	10
173	589
174	60
175	229
176	30
177	30
184	40
185	60
186	1199
187	259
188	9999
189	1149
190	3799
191	579
192	559
193	60
194	129
195	10
