Mass Spectrum: Chromium, bis(.eta.6-benzene)-
Formula: C12 H12 Cr
CAS: 1271-54-1
Molecular weight: 208
Origin: MPI,43536-G0981,21-AUG-66 (ID=2, PURITY=4)
m/z	RELATIVE INTENSITY
27	164
28	904
29	15
31	10
32	31
36	3
37	10
38	56
39	705
40	166
41	24
42	6
43	7
44	78
48	3
49	17
50	815
51	1456
52	9999
53	1065
54	249
55	15
56	20
57	7
58	4
62	23
63	145
64	15
65	8
66	14
67	13
68	12
69	5
71	3
73	7
74	128
75	105
76	317
77	1348
78	6580
79	444
80	31
81	7
82	19
83	4
84	10
89	4
90	10
91	20
92	10
93	12
94	17
95	4
97	5
101	12
102	6
103	71
104	220
105	67
107	5
108	7
115	4
117	6
118	3
121	7
127	11
128	181
129	196
130	3363
131	574
132	101
133	6
135	4
153	10
154	17
155	8
189	5
200	6
206	120
207	52
208	2530
209	561
210	110
211	6
