Mass Spectrum: Ferrocene, benzoyl-
Formula: C17 H14 Fe O
CAS: 1272-44-2
Molecular weight: 290
Origin: Japan AIST/NIMC Database- Spectrum MS-NW-6107
m/z	RELATIVE INTENSITY
14	60
16	10
27	30
28	10
29	30
37	10
38	20
39	179
40	40
41	20
43	60
44	80
45	10
50	60
51	179
52	20
53	10
54	80
56	1129
57	80
58	10
61	10
62	20
63	99
64	60
65	90
66	20
68	10
69	10
70	10
73	20
74	30
75	20
76	40
77	529
78	50
79	20
81	239
82	40
83	10
86	10
87	10
88	10
89	80
90	10
91	40
92	50
93	60
94	229
95	139
96	10
101	10
102	40
103	80
104	10
105	239
106	30
107	70
108	10
109	10
113	30
114	40
115	439
116	70
117	10
118	30
119	90
120	99
121	659
122	60
125	10
126	20
127	80
128	239
129	519
130	50
131	90
132	80
133	919
134	119
135	10
138	10
139	199
140	129
141	749
142	219
143	30
144	30
145	99
146	10
147	20
149	10
150	10
151	20
152	109
153	40
154	10
155	10
156	10
157	50
158	50
159	40
160	10
165	40
166	20
168	50
169	30
170	109
171	80
172	99
173	20
176	10
177	10
178	40
179	30
180	10
181	10
182	20
183	60
184	189
185	499
186	99
187	20
189	20
190	20
191	20
194	40
195	80
196	399
197	689
198	329
199	50
200	10
201	10
202	119
203	99
204	90
205	30
206	10
207	10
208	10
211	10
213	179
214	30
215	40
216	50
217	10
221	10
222	10
223	40
224	40
225	419
226	80
227	10
228	10
232	10
234	20
235	20
236	20
237	10
258	40
259	30
260	239
261	179
262	309
263	60
264	10
273	10
286	10
287	20
288	719
289	309
290	9999
291	2129
292	279
293	30
