Mass Spectrum: Ferrocene, ethyl-
Formula: C12 H14 Fe
CAS: 1273-89-8
Molecular weight: 214
Origin: Japan AIST/NIMC Database- Spectrum MS-IW- 701
m/z	RELATIVE INTENSITY
27	10
28	10
39	70
41	10
51	20
52	10
54	70
56	1139
57	70
63	20
65	60
66	20
70	50
71	40
77	60
78	20
79	10
80	10
81	139
82	129
83	20
89	60
90	10
91	149
92	30
93	40
94	109
95	199
96	40
99	10
102	10
103	20
105	10
106	30
107	189
108	20
115	50
116	10
118	10
119	169
120	99
121	2529
122	1099
123	80
127	10
128	50
129	50
130	10
131	10
132	30
133	20
134	149
135	40
139	10
141	20
143	10
144	10
145	99
146	139
147	259
148	919
149	90
152	20
153	20
154	10
158	10
171	10
172	10
184	60
185	40
186	369
187	50
197	359
198	50
199	5449
200	789
201	70
208	50
209	10
210	149
211	60
212	2379
213	869
214	9999
215	1539
216	139
