Mass Spectrum: Ecgonidine, methyl ester
Formula: C10 H15 N O2
CAS: 127379-24-2
Molecular weight: 181
Origin: J. Daly, M. Garraffo, T. Spande, LBC, NIDDK, NIH, Bethesda, MD 20892
m/z	RELATIVE INTENSITY
53	440
55	571
57	621
65	480
66	400
68	450
79	591
80	330
81	510
82	2072
83	260
91	661
92	550
93	611
94	1061
106	550
107	480
108	320
120	1131
121	510
122	1692
134	550
138	1041
148	200
150	791
152	9999
153	1451
166	1101
181	2793
182	390
