Mass Spectrum: Ferrocene, chloro-
Formula: C10 H9 Cl Fe
CAS: 1273-74-1
Molecular weight: 220
m/z	RELATIVE INTENSITY
39	4104
51	500
54	400
56	6506
57	400
63	1802
65	901
77	601
81	1301
91	2502
93	801
94	1001
95	601
99	500
101	100
102	1001
103	500
110	500
119	701
121	2102
127	1301
128	6506
129	2803
182	701
184	9308
185	1201
186	400
218	601
219	300
220	9999
221	1201
222	3003
223	500
