Mass Spectrum: Ancymidol
Formula: C15 H16 N2 O2
CAS: 12771-68-5
Molecular weight: 256
Origin: NIST Mass Spectrometry Data Center, 1998.
m/z	RELATIVE INTENSITY
15	100
26	30
27	120
28	150
29	60
30	10
31	30
37	20
38	110
39	750
40	100
41	750
42	60
43	60
45	50
49	10
50	230
51	530
52	770
53	920
54	70
55	210
56	10
57	30
59	10
61	20
62	150
63	620
64	500
65	600
66	190
67	90
68	30
69	660
70	40
71	20
72	20
73	10
74	150
75	260
76	280
77	1660
78	550
79	1970
80	210
81	60
82	10
84	10
85	20
86	50
87	390
88	100
89	500
90	210
91	480
92	880
93	230
94	130
95	40
96	10
97	10
98	30
99	30
101	190
102	290
103	370
104	190
105	190
106	60
107	8319
108	1010
109	140
110	20
111	10
112	10
113	120
114	140
115	630
116	240
117	220
118	180
119	190
120	110
121	5919
122	580
123	80
124	10
125	20
126	80
127	200
128	200
129	120
130	150
131	300
132	130
133	130
134	1120
135	2700
136	230
137	30
138	10
139	120
140	140
141	160
142	90
143	110
144	240
145	260
146	160
147	70
148	80
149	1130
150	150
151	40
152	80
153	80
154	50
155	90
156	110
157	80
158	90
159	150
160	100
161	40
162	10
163	10
164	10
165	10
166	30
167	80
168	110
169	80
170	60
171	150
172	90
173	40
174	20
175	20
176	10
177	610
178	80
179	20
180	40
181	40
182	20
183	80
184	110
185	200
186	160
187	170
188	30
192	10
193	30
194	20
195	40
196	40
197	90
198	20
199	130
200	80
201	40
202	10
205	20
206	10
207	30
208	10
209	30
210	20
211	80
212	50
213	380
214	90
215	2590
216	360
217	30
221	10
222	20
223	50
224	20
225	20
226	20
227	370
228	9999
229	1530
230	140
231	10
236	10
237	30
238	60
239	40
240	10
255	10
256	500
257	100
258	10
