Mass Spectrum: 9,10-Anthracenedione, 1,4-diamino-
Formula: C14 H10 N2 O2
CAS: 128-95-0
Molecular weight: 238
Origin: Japan AIST/NIMC Database- Spectrum MS-NW-2922
m/z	RELATIVE INTENSITY
26	10
27	40
28	40
29	10
30	10
34	10
37	10
38	20
39	60
40	10
41	30
42	10
43	20
44	20
49	10
50	109
51	169
52	169
53	80
54	40
55	20
56	10
57	10
61	20
62	40
63	109
64	90
65	40
66	10
67	10
68	10
69	20
70	10
73	10
74	70
75	90
76	159
77	519
78	149
79	70
80	30
82	30
83	20
85	10
86	20
87	30
88	30
89	40
90	90
91	239
92	30
93	40
97	10
98	20
99	30
100	40
101	90
102	90
103	50
104	60
105	149
106	20
110	10
111	20
112	10
113	30
114	40
115	30
116	10
118	40
119	319
120	10
123	60
124	10
125	20
126	70
127	249
128	179
129	70
130	40
131	10
133	10
134	20
137	20
138	60
139	70
140	50
141	20
142	10
152	30
153	90
154	389
155	119
156	40
157	10
164	109
165	90
166	50
167	20
168	10
169	10
179	30
180	20
181	449
182	399
183	119
184	30
185	10
191	20
192	30
193	40
194	20
195	10
208	20
209	259
210	319
211	90
212	20
221	20
222	10
223	20
236	20
237	759
238	9999
239	1819
240	209
241	20
