Mass Spectrum: Cholesta-8,24-dien-3-ol, (3.beta.,5.alpha.)-
Formula: C27 H44 O
CAS: 128-33-6
Molecular weight: 384
Origin: DR GLENN PATTERSON
m/z	RELATIVE INTENSITY
39	1400
40	300
41	8299
42	700
43	3600
51	300
53	1200
54	500
55	7799
56	900
57	2500
58	2500
59	300
65	600
67	4200
68	900
70	1100
71	1300
74	1100
75	300
77	1700
78	800
79	3700
80	800
81	5799
82	1500
83	2500
84	500
85	800
87	700
91	4700
92	900
93	4400
94	1100
95	5099
96	9999
97	1700
98	400
99	300
103	300
104	300
105	4800
106	1200
107	5399
108	1400
109	3800
110	800
111	1000
115	700
116	400
117	1600
118	700
119	3900
120	1300
121	3300
122	1500
123	1800
124	600
125	600
127	300
128	200
129	1400
130	700
131	2800
132	1300
133	3300
134	1500
135	3000
136	1300
137	1500
138	300
141	600
142	500
143	1700
144	700
145	3000
146	1000
147	3600
148	900
149	1700
150	700
151	700
155	700
156	400
157	1500
158	600
159	2300
160	700
161	2400
162	600
163	900
164	300
165	400
167	300
169	600
170	300
171	1300
172	500
173	1600
174	500
175	1000
176	300
177	600
181	300
183	600
184	300
185	1100
186	400
187	1100
188	300
189	700
191	400
195	300
197	600
198	300
199	1100
200	400
201	1100
202	300
203	700
204	400
205	900
211	800
212	300
213	3000
214	700
215	1100
216	300
217	800
218	700
219	700
225	300
227	1000
228	600
229	2400
230	600
231	2200
232	700
233	300
239	500
241	500
243	700
244	300
245	800
246	1300
247	700
253	500
255	1000
256	300
257	900
258	600
259	600
260	300
269	800
270	400
271	2000
272	700
273	1000
274	300
283	300
285	600
287	300
297	400
298	300
299	600
300	600
301	300
302	300
313	300
327	300
341	300
351	900
352	300
358	300
366	500
367	800
368	400
369	5199
370	1500
371	300
380	300
382	1300
383	600
384	9799
385	3200
386	700
