Mass Spectrum: Butylated Hydroxytoluene
Formula: C15 H24 O
CAS: 128-37-0
Molecular weight: 220
Origin: NIST Mass Spectrometry Data Center, 2010
m/z	RELATIVE INTENSITY
15	10
27	90
28	10
29	280
30	10
38	10
39	250
40	30
41	831
42	50
43	190
45	10
50	30
51	180
52	90
53	270
54	20
55	651
56	40
57	2362
58	190
59	60
62	10
63	90
64	100
65	240
66	80
67	510
69	180
70	30
71	50
72	40
73	90
74	30
75	20
76	30
77	460
78	130
79	290
80	150
81	631
83	20
84	10
85	10
86	10
87	30
88	10
89	60
90	20
91	821
92	90
93	120
95	430
97	10
101	10
102	60
103	180
104	60
105	941
106	100
107	130
108	30
109	50
113	10
115	661
116	250
117	290
118	60
119	520
120	80
121	450
122	50
123	50
126	10
127	160
128	500
129	470
130	240
131	490
132	100
133	440
134	70
135	220
136	30
137	60
138	10
139	20
141	340
142	250
143	170
144	80
145	1451
146	210
147	190
148	50
149	220
150	30
151	10
152	30
153	50
154	30
155	90
156	80
157	170
158	60
159	170
160	50
161	420
162	70
163	190
164	30
165	10
169	10
170	10
171	20
172	40
173	40
174	20
175	90
177	901
178	120
179	10
187	30
189	370
190	60
191	20
203	40
205	9999
206	1531
207	130
208	10
218	10
220	2362
221	380
222	30
