Mass Spectrum: 3,4-Dibenzamido-nitro-benzene
Formula: C20 H15 N3 O4
CAS: 128049-26-3
Molecular weight: 361
Origin: Japan AIST/NIMC Database- Spectrum MS-IW-4609
m/z	RELATIVE INTENSITY
27	20
28	30
30	10
38	10
39	20
50	80
51	409
52	50
53	10
62	30
63	40
64	10
74	20
75	30
76	99
77	3229
78	269
79	20
88	10
89	20
90	20
103	30
104	50
105	9999
106	779
107	40
122	60
139	10
166	20
181	10
192	10
193	50
194	20
209	80
210	20
223	20
226	40
227	10
239	1319
240	289
241	30
313	20
331	50
332	10
343	229
344	50
345	10
361	1099
362	249
363	40
