Mass Spectrum: Benzoic acid, 2,4,6-trinitro-
Formula: C7 H3 N3 O8
CAS: 129-66-8
Molecular weight: 257
Origin: LAC, NIDDK, NIH, Bethesda, MD 20892
m/z	RELATIVE INTENSITY
44	8451
46	1680
50	687
51	396
52	50
53	380
61	436
62	3084
63	2458
64	202
66	261
69	146
74	9999
75	8786
76	684
77	223
79	564
80	101
87	259
88	129
91	2974
92	119
107	356
117	110
120	2374
121	111
137	284
166	228
167	935
196	70
197	156
213	7896
214	106
240	111
257	561
