Mass Spectrum: Carbic anhydride
Formula: C9 H8 O3
CAS: 129-64-6
Molecular weight: 164
Origin: Dmitri Zagorevskii, University of Ottawa, Ontario, Canada
m/z	RELATIVE INTENSITY
26	290
27	420
29	60
38	150
39	1481
40	591
41	200
43	60
44	60
45	200
46	50
50	110
51	340
52	160
53	120
54	150
55	520
56	90
57	120
62	30
63	310
64	130
65	1101
66	9999
67	591
69	60
70	20
71	30
77	150
78	130
79	90
89	100
90	80
91	2943
92	1371
93	100
99	360
119	350
120	480
121	30
129	30
149	30
164	250
