Mass Spectrum: Oxyphenbutazone
Formula: C19 H20 N2 O3
CAS: 129-20-4
Molecular weight: 324
Origin: R.A. LOCOCK, FAC. PHARMACY & PHARM. SCI. ALBERTA UNIV.,
m/z	RELATIVE INTENSITY
18	340
26	120
27	1460
28	210
29	1360
38	210
39	2130
40	260
41	2230
42	440
43	310
44	110
50	220
51	1370
52	1560
53	700
54	210
55	3510
56	180
57	960
63	530
64	960
65	4260
66	480
67	200
68	120
69	690
70	140
76	180
77	7450
78	830
79	930
80	410
81	510
83	110
90	130
91	1060
92	470
93	7870
94	980
95	150
97	290
98	310
104	460
105	530
106	300
107	1120
108	760
109	1520
110	180
115	280
117	110
118	280
119	1550
120	970
121	2660
122	240
125	410
130	140
132	230
133	260
134	440
135	2450
136	270
141	210
144	90
146	350
148	410
149	180
160	370
161	120
162	680
163	100
164	110
168	70
169	80
170	110
174	130
176	640
177	130
183	240
184	110
188	130
189	110
190	130
197	120
198	680
199	9999
200	1770
201	170
204	130
205	240
226	110
268	760
269	140
281	320
323	200
324	7870
325	1670
326	360
