Mass Spectrum: Phenampromid
Formula: C17 H26 N2 O
CAS: 129-83-9
Molecular weight: 274
Origin: HOME OFFICE, CENTRAL RES. EST., ALDERMASTON, BERKS., U.K.
m/z	RELATIVE INTENSITY
29	500
30	100
32	100
36	400
38	100
39	100
41	500
42	400
43	100
44	200
51	100
55	400
56	100
57	200
68	100
69	200
70	100
77	200
96	100
97	100
98	9999
99	600
104	100
110	100
118	100
119	100
120	400
125	1300
126	100
134	100
198	100
