Mass Spectrum: 2,4,7-Trinitrofluorenone
Formula: C13 H5 N3 O7
CAS: 129-79-3
Molecular weight: 315
Origin: Japan AIST/NIMC Database- Spectrum MS-NW-2043
m/z	RELATIVE INTENSITY
14	20
16	30
26	10
27	99
28	759
29	50
30	3379
31	10
32	20
37	50
38	50
39	99
40	10
42	10
43	30
44	449
45	10
46	90
49	20
50	109
51	309
52	20
53	149
55	40
56	10
57	10
61	209
62	309
63	569
64	50
65	20
67	40
68	40
69	20
70	10
73	149
74	849
75	1489
76	169
77	70
78	10
79	20
80	10
84	20
85	129
86	509
87	809
88	219
89	30
90	10
91	30
97	50
98	969
99	1549
100	249
101	60
102	20
103	30
104	20
107	10
109	80
110	329
111	309
112	179
113	60
114	30
115	20
116	40
117	10
118	10
119	50
120	30
121	40
122	379
123	1009
124	239
125	289
126	99
127	169
128	70
129	10
132	10
133	20
134	60
135	80
136	219
137	1869
138	449
139	809
140	169
141	50
142	10
143	20
144	40
145	30
146	159
147	109
148	549
149	2439
150	769
151	399
152	80
153	339
154	99
155	109
156	40
157	10
158	10
159	10
162	50
163	50
164	80
165	549
166	189
167	749
168	139
169	20
170	10
171	20
172	10
175	60
176	769
177	699
178	269
179	179
180	40
181	629
182	169
183	139
184	80
185	40
186	10
189	10
191	40
192	99
193	1839
194	389
195	509
196	259
197	70
198	20
199	40
201	10
205	10
206	99
207	50
208	20
209	599
210	169
211	229
212	70
213	30
217	10
219	10
222	2309
223	939
224	269
225	60
226	10
227	199
228	30
229	30
237	10
238	70
239	819
240	249
241	149
242	20
253	20
254	30
255	60
256	10
257	90
258	20
260	10
267	10
268	30
269	1639
270	769
271	119
272	20
283	20
284	10
285	1289
286	219
287	30
299	599
300	99
301	20
314	20
315	9999
316	1579
317	269
318	30
