Mass Spectrum: p,p'-Benzylidenebis(N,N-dimethylaniline)
Formula: C23 H26 N2
CAS: 129-73-7
Molecular weight: 330
Origin: NIST Mass Spectrometry Data Center
m/z	RELATIVE INTENSITY
15	20
27	20
39	60
41	30
42	390
43	50
44	80
50	50
51	130
52	30
53	20
54	10
55	10
56	10
58	20
62	10
63	90
64	20
65	80
66	40
67	10
68	50
69	10
70	10
74	10
75	30
76	110
77	340
78	140
79	80
80	20
81	10
82	60
83	40
84	20
87	20
88	30
89	100
90	90
91	260
92	80
93	30
94	40
95	80
96	100
97	100
99	10
100	20
101	80
102	70
104	270
105	190
106	30
107	40
108	40
109	20
110	160
111	90
113	110
114	70
115	230
116	60
117	150
118	1211
119	410
120	550
121	300
122	40
123	20
125	260
126	2422
128	150
129	60
130	30
131	20
132	100
134	310
135	130
137	20
138	20
139	180
140	70
142	290
144	40
145	10
146	10
147	10
148	20
149	50
150	70
151	150
152	651
153	330
154	90
155	50
156	120
157	130
158	60
161	10
162	10
163	260
164	671
165	4324
166	1331
167	350
168	90
169	10
170	10
171	10
175	10
176	40
177	70
178	180
179	140
180	180
181	60
182	20
183	10
184	10
187	20
188	10
189	70
190	70
191	70
192	240
193	370
194	1151
195	310
196	110
197	30
200	20
201	20
202	100
203	40
204	20
205	20
206	40
207	80
208	1611
209	2062
210	2102
211	320
212	30
213	30
214	20
215	110
216	40
217	20
218	10
219	10
220	20
221	190
222	70
223	90
224	30
225	10
226	90
227	60
228	70
229	40
230	20
234	10
235	60
236	30
237	1802
238	400
239	260
240	100
241	160
242	60
243	10
244	10
251	70
252	160
253	9999
254	1902
255	190
256	30
257	10
258	20
259	10
260	10
266	10
267	10
268	60
269	30
270	60
271	30
272	20
283	10
284	110
285	90
286	981
287	220
288	20
297	30
298	10
299	30
300	10
311	20
313	330
314	100
315	90
316	50
327	30
328	30
329	2282
330	7697
331	1892
332	210
333	10
