Mass Spectrum: Bis(cyclopentadienyl)zirconium dichloride
Formula: C10 H10 Cl2 Zr
CAS: 1291-32-3
Molecular weight: 290
Origin: Japan AIST/NIMC Database- Spectrum MS-NW-2867
m/z	RELATIVE INTENSITY
15	10
26	50
27	70
28	30
29	40
30	219
35	50
36	469
37	60
38	179
39	1269
40	129
41	20
42	20
44	70
50	30
51	80
52	10
56	10
58	289
61	30
62	70
63	159
64	60
65	1509
66	349
67	20
70	30
71	10
72	40
73	70
77	20
78	10
81	10
82	20
83	30
84	20
85	10
90	10
95	10
96	70
97	30
98	30
108	20
109	90
110	60
111	40
112	10
114	40
115	40
116	20
117	10
118	10
119	10
121	10
125	99
126	50
127	259
128	169
129	129
130	40
131	70
132	20
133	10
138	40
139	30
140	50
141	30
142	30
143	10
144	10
145	40
146	40
147	20
148	10
149	40
150	159
151	139
152	129
153	70
154	70
155	40
156	30
157	10
160	389
161	99
162	489
163	489
164	679
165	389
166	419
167	229
168	209
169	80
170	60
171	10
172	10
173	30
174	30
175	139
176	70
177	99
178	50
179	60
180	20
181	20
182	10
183	10
185	249
186	90
187	309
188	99
189	489
190	909
191	529
192	599
193	299
194	399
195	99
196	149
197	50
198	169
199	1129
200	439
201	1149
202	309
203	779
204	109
205	369
206	30
207	99
209	80
210	20
211	50
212	10
213	50
214	20
215	70
216	20
217	60
218	30
219	40
220	60
221	30
222	30
223	30
224	30
225	9989
226	2699
227	9999
228	1959
229	6689
230	619
231	3089
232	179
233	719
234	40
235	70
237	10
239	20
241	10
249	10
251	119
252	40
253	199
254	60
255	1389
256	449
257	919
258	189
259	599
260	70
261	209
262	20
263	20
290	2979
291	989
292	2979
293	729
294	1989
295	279
296	929
297	99
298	199
299	20
300	10
