Mass Spectrum: Pyridinium,2-methoxy-1-(methoxycarbonyl)-2-oxoethylide
Formula: C10 H11 N O4
CAS: 1291-37-8
Molecular weight: 209
Origin: ASES Database, Dalian Institute, P.R. China
m/z	RELATIVE INTENSITY
50	580
51	1621
52	1691
53	990
54	190
57	250
59	820
62	130
63	2272
64	2282
65	3052
66	540
67	320
69	380
71	110
74	580
77	170
78	2051
79	3693
80	2091
90	300
91	1801
92	690
93	9999
94	3102
95	300
106	220
113	130
118	190
119	310
120	2512
121	130
122	190
135	270
146	110
148	4894
149	520
150	420
151	7546
152	590
162	260
178	7416
179	1000
209	6315
210	710
