Mass Spectrum: Ferrocene, 1,1'-dichloro-
Formula: C10 H8 Cl2 Fe
CAS: 1293-67-0
Molecular weight: 254
m/z	RELATIVE INTENSITY
38	300
39	2002
50	300
56	1001
63	300
64	1702
65	701
73	400
75	200
76	300
77	500
78	400
81	300
91	300
93	601
94	300
99	500
101	300
102	1401
103	200
117	200
118	200
119	500
126	1001
127	3203
128	1507
129	1802
155	100
157	50
162	30
182	80
190	30
219	300
252	500
254	9999
255	1401
256	5805
257	701
258	1001
