Mass Spectrum: Diethylstilbestrol dipropionate
Formula: C24 H28 O4
CAS: 130-80-3
Molecular weight: 380
Origin: NIST Mass Spectrometry Data Center, 1998.
m/z	RELATIVE INTENSITY
26	20
27	190
29	1120
30	30
39	40
41	50
42	10
43	30
50	10
51	40
52	10
53	40
54	10
55	190
56	40
57	2050
58	70
59	10
63	40
64	10
65	90
66	10
67	20
69	20
74	10
75	10
76	20
77	250
78	60
79	120
80	10
81	20
83	10
87	10
88	10
89	60
90	20
91	280
92	30
93	40
94	30
95	20
101	20
102	40
103	160
104	30
105	230
106	30
107	1420
108	110
109	10
113	10
114	10
115	360
116	100
117	140
118	50
119	190
120	40
121	500
122	50
126	20
127	210
128	170
129	110
130	60
131	320
132	70
133	430
134	110
135	150
136	10
139	60
140	20
141	160
142	40
143	30
144	180
145	1180
146	210
147	110
148	10
150	10
151	70
152	260
153	140
154	40
155	60
156	10
157	100
158	100
159	470
160	70
161	60
162	10
163	30
164	40
165	470
166	190
167	100
168	40
169	50
170	20
171	30
172	10
173	100
174	110
175	40
176	70
177	120
178	230
179	130
180	40
181	400
182	140
183	130
184	30
185	30
186	10
187	10
189	70
190	50
191	80
192	40
193	90
194	210
195	260
196	90
197	130
198	30
199	40
200	10
201	20
202	40
203	30
204	10
205	40
206	30
207	170
208	70
209	170
210	370
211	300
212	50
213	10
215	10
218	20
219	40
220	30
221	60
222	60
223	330
224	350
225	130
226	20
233	10
234	10
235	30
236	20
237	130
238	250
239	2390
240	420
241	40
249	10
250	20
251	70
252	40
253	470
254	90
255	10
265	10
266	40
267	360
268	9999
269	2090
270	240
271	20
295	30
296	10
307	50
308	10
309	10
322	10
324	3680
325	860
326	120
327	10
351	10
380	2080
381	550
382	90
383	10
