Mass Spectrum: Cloxyquin
Formula: C9 H6 Cl N O
CAS: 130-16-5
Molecular weight: 179
Origin: NIST Mass Spectrometry Data Center, 1998.
m/z	RELATIVE INTENSITY
25	10
26	80
27	60
28	160
29	60
31	10
35	20
36	30
37	220
38	380
39	630
40	70
41	70
42	30
43	210
44	180
47	40
48	40
49	240
50	540
51	400
52	240
53	170
54	60
55	10
56	50
57	10
58	650
60	100
61	700
62	1460
63	2090
64	410
65	180
66	70
67	20
68	10
71	40
72	140
73	460
74	460
75	1060
78	80
79	30
84	100
85	250
86	540
87	960
88	920
89	3060
90	490
91	60
92	10
95	10
96	60
97	280
98	170
99	220
100	100
101	40
102	50
103	20
104	30
105	10
108	20
109	10
110	30
111	50
112	50
113	30
114	650
115	840
116	4560
117	460
118	20
121	20
122	30
123	650
124	360
125	250
126	150
127	30
128	10
143	10
144	30
145	10
148	10
149	30
150	650
151	6069
152	810
153	1930
154	170
155	10
176	10
177	10
178	150
179	9999
180	1160
181	3170
182	330
183	30
