Mass Spectrum: Clioquinol
Formula: C9 H5 Cl I N O
CAS: 130-26-7
Molecular weight: 305
Origin: Japan AIST/NIMC Database- Spectrum MS-NW- 327
m/z	RELATIVE INTENSITY
26	20
27	20
28	99
29	20
36	20
37	119
38	139
39	239
40	20
41	40
43	50
44	20
48	10
49	60
50	159
51	99
52	99
53	109
54	10
56	40
57	429
58	50
60	40
61	329
62	629
63	569
64	149
65	60
66	20
71	20
72	80
73	199
74	149
75	589
76	229
77	40
78	10
84	40
85	139
86	309
87	629
88	639
89	219
90	80
91	10
96	50
97	139
98	60
99	90
100	40
101	20
102	10
108	10
110	20
111	30
112	40
113	50
114	909
115	1719
116	179
117	10
120	60
121	129
122	50
123	719
124	149
125	239
126	40
127	189
128	50
135	20
138	379
139	119
140	10
142	20
143	139
144	20
148	20
149	259
150	3649
151	419
152	1169
153	119
154	10
164	10
170	20
177	90
178	599
179	159
180	199
181	40
184	20
185	10
188	10
189	10
198	30
213	70
214	10
215	40
217	10
241	20
242	199
243	20
270	90
271	20
276	80
277	459
278	70
279	149
280	10
304	30
305	9999
306	1029
307	3249
308	339
309	20
