Mass Spectrum: Senecionine
Formula: C18 H25 N O5
CAS: 130-01-8
Molecular weight: 335
Origin: P. SCHMID, INST. TOXIKOL., UNIV. ZURICH, SCHWERZENBACH, SWITZ.
m/z	RELATIVE INTENSITY
41	1900
43	5970
53	2170
54	1000
55	1420
67	1130
80	3100
81	1500
93	8100
94	6360
95	5550
106	950
108	1150
109	2200
119	8640
120	9999
121	4830
122	1140
136	8620
137	1910
138	4140
152	200
153	410
164	60
165	360
174	40
176	50
178	260
190	50
191	40
207	40
209	60
218	190
220	2720
221	250
236	40
246	830
247	200
248	380
290	40
291	110
335	420
336	50
