Mass Spectrum: Adipic acid, bis(3,3,5-trimethylhexyl) ester
Formula: C24 H46 O4
CAS: 13007-41-5
Molecular weight: 398
m/z	RELATIVE INTENSITY
15	180
17	290
18	1241
26	80
27	621
28	427
29	1121
30	60
31	530
32	103
38	110
39	821
40	210
41	2582
42	791
43	1912
44	390
45	651
46	90
50	240
51	561
52	170
53	240
54	110
55	2422
56	2612
57	9999
58	741
59	340
60	70
61	100
62	140
63	310
64	80
65	370
66	120
67	160
68	220
69	2983
70	2022
71	1752
72	110
73	260
74	170
75	170
76	110
77	591
78	741
79	160
81	210
82	70
83	901
84	390
85	340
86	240
87	841
88	70
89	190
90	60
91	1802
92	981
93	340
94	60
95	110
96	60
97	170
98	190
99	120
100	120
101	340
102	170
103	1211
104	240
105	70
108	60
109	220
110	60
111	1742
112	340
113	70
114	280
115	1661
116	280
117	1722
118	2132
119	250
124	200
125	60
126	240
127	220
128	110
129	1942
130	180
131	130
132	170
135	70
141	60
142	300
143	1942
144	200
145	80
148	60
160	280
255	651
256	120
