Mass Spectrum: 4-Fluoro-2-(trifluoromethyl)phenol
Formula: C7 H4 F4 O
CAS: 130047-19-7
Molecular weight: 180
Origin: NIST Mass Spectrometry Data Center, 1994
m/z	RELATIVE INTENSITY
12	32
13	24
14	36
15	25
17	36
18	10
19	47
20	89
24	16
25	69
26	262
27	145
28	10
29	448
30	10
31	1949
33	140
36	65
37	503
38	480
39	318
40	3
41	45
42	53
43	29
44	52
45	76
47	58
48	36
49	193
50	790
51	455
52	3
53	530
54	48
55	262
56	837
57	1671
58	68
60	83
61	679
62	743
63	3220
64	211
65	36
66	534
67	57
68	301
69	1129
70	64
71	102
72	26
73	129
74	283
75	1169
76	77
77	38
79	113
80	434
81	1634
82	730
83	424
84	51
85	23
86	53
87	170
88	327
89	40
90	31
91	49
92	115
93	201
94	110
95	31
99	395
101	972
102	61
104	17
105	86
106	266
107	31
110	152
111	91
112	436
113	788
114	174
117	26
123	23
124	22
125	37
130	120
132	9999
133	698
134	27
141	223
142	25
143	50
150	64
151	227
152	18
160	3130
161	1270
162	106
163	47
180	2727
181	225
182	15
