Mass Spectrum: 1,1-Diisobutoxy-butane
Formula: C12 H26 O2
CAS: 13002-16-9
Molecular weight: 202
Origin: James Little,Eastman Chem.Co.,Kingsport,TN
m/z	RELATIVE INTENSITY
29	1732
41	2682
43	1031
55	1301
56	500
57	9999
73	2142
103	561
129	1772
159	400
