Mass Spectrum: Benzene, 1,2-dichloro-4-(trichloromethyl)-
Formula: C7 H3 Cl5
CAS: 13014-24-9
Molecular weight: 262
Origin: NIST Mass Spectrometry Data Center, 1998.
m/z	RELATIVE INTENSITY
25	10
26	20
27	10
35	170
36	60
37	300
38	100
39	30
43	230
47	150
48	80
49	340
50	460
51	50
59	20
60	810
61	860
62	450
63	140
64	10
65	40
66	30
70	10
71	80
72	440
73	880
74	530
75	420
76	20
77	10
78	710
79	460
80	90
82	70
83	180
84	570
85	850
86	1040
87	820
88	60
94	40
96	850
97	1070
98	280
99	230
100	20
106	50
107	1010
108	130
109	800
110	90
111	160
112	20
113	620
114	770
115	380
116	90
118	30
119	90
120	210
121	510
122	250
123	240
124	70
125	20
130	60
131	300
132	60
133	270
134	20
135	90
136	10
137	10
141	40
142	10
143	70
144	20
145	70
146	10
147	30
148	10
149	10
154	10
155	40
156	50
157	2990
158	270
159	1950
160	160
161	320
162	30
165	10
167	250
168	20
169	240
170	10
171	80
172	10
173	10
178	10
180	20
182	20
184	10
191	340
192	790
193	680
194	790
195	450
196	270
197	120
198	30
199	10
201	30
203	40
205	20
227	8039
228	680
229	9999
230	820
231	4870
232	390
233	1050
234	80
235	90
236	10
262	400
263	30
264	630
265	50
266	400
267	30
268	130
269	10
270	20
