Mass Spectrum: Benzene, 2,4-dichloro-1-(trichloromethyl)-
Formula: C7 H3 Cl5
CAS: 13014-18-1
Molecular weight: 262
Origin: Japan AIST/NIMC Database- Spectrum MS-NW-3262
m/z	RELATIVE INTENSITY
12	10
14	10
25	20
26	40
27	10
28	10
29	10
35	249
36	369
37	349
38	159
39	60
40	10
42	20
43	349
44	50
47	199
48	99
49	309
50	439
51	80
55	10
57	10
59	10
60	799
61	879
62	449
63	139
64	10
65	50
66	40
67	10
70	10
71	119
72	329
73	1089
74	419
75	369
76	20
77	50
78	989
79	669
80	109
82	60
83	189
84	459
85	629
86	899
87	839
88	70
94	20
95	219
96	949
97	1049
98	299
99	249
100	20
104	20
105	10
106	90
107	769
108	129
109	549
110	90
111	109
112	10
113	739
114	929
115	469
116	90
117	40
118	20
119	60
120	189
121	449
122	329
123	229
124	80
125	20
127	10
130	50
131	269
132	60
133	239
134	30
135	90
136	10
137	10
139	30
140	30
141	70
142	10
143	80
144	20
145	109
146	20
147	60
148	10
149	10
154	10
155	40
156	40
157	3369
158	379
159	2209
160	189
161	359
162	30
163	10
165	10
167	209
168	10
169	189
170	20
171	80
172	10
173	209
174	40
175	139
176	20
177	20
178	10
180	30
182	20
183	10
184	10
189	20
191	259
192	1009
193	529
194	929
195	359
196	309
197	99
198	40
199	10
201	20
203	30
204	20
205	20
206	20
207	10
208	30
209	10
210	10
218	10
226	10
227	7879
228	649
229	9999
230	809
231	4659
232	379
233	1029
234	80
235	80
236	10
244	60
245	10
246	40
248	10
261	20
262	239
263	40
264	389
265	40
266	239
267	20
268	80
270	10
