Mass Spectrum: Benzenamine, 4-(2-phenylethyl)-
Formula: C14 H15 N
CAS: 13024-49-2
Molecular weight: 197
m/z	RELATIVE INTENSITY
39	360
41	120
43	120
50	70
51	270
52	140
53	170
54	80
63	170
64	50
65	410
66	90
77	651
78	290
79	310
80	100
89	120
90	60
91	631
92	90
104	130
105	100
106	9999
107	851
141	140
197	871
198	140
