Mass Spectrum: .beta.-(1-Naphthyl)acrylic acid
Formula: C13 H10 O2
CAS: 13026-12-5
Molecular weight: 198
Origin: NIST Mass Spectrometry Data Center
m/z	RELATIVE INTENSITY
12	80
15	150
26	100
27	180
38	170
39	310
44	330
45	480
50	410
51	510
53	70
61	190
62	340
63	921
65	130
73	210
74	591
75	711
76	1221
77	671
84	120
85	130
86	210
87	300
88	110
89	40
91	420
98	270
99	240
100	110
101	210
102	150
113	80
115	350
116	220
125	120
126	581
127	490
128	190
139	130
141	340
143	140
150	631
151	1611
152	4694
153	9999
154	1391
155	210
169	130
172	120
181	210
198	3273
199	510
