Mass Spectrum: N,N,2,4,6-Pentamethylbenzenamine
Formula: C11 H17 N
CAS: 13021-15-3
Molecular weight: 163
Origin: Chuck Anderson, Aldrich Chemical Co.
m/z	RELATIVE INTENSITY
15	143
18	17
27	339
28	125
29	92
30	44
38	55
39	784
40	118
41	683
42	523
43	64
44	748
45	8
50	115
51	441
52	181
53	336
54	58
55	66
56	44
57	32
58	134
60	79
61	11
62	76
63	319
64	139
65	1031
66	588
67	515
68	263
72	203
73	425
74	617
75	84
76	79
77	1460
78	472
79	690
80	288
81	116
82	354
87	18
89	203
90	88
91	2209
92	250
93	178
94	43
101	28
102	167
103	683
104	428
105	741
106	159
107	95
108	39
115	668
116	252
117	1533
118	352
119	1685
120	494
121	190
122	50
128	57
129	36
130	697
131	988
132	4825
133	1111
134	192
135	8
136	16
143	45
144	292
145	159
146	1976
147	879
148	9417
149	995
150	49
158	8
160	274
161	57
162	6946
163	9999
164	1126
165	63
