Mass Spectrum: Fendiline
Formula: C23 H25 N
CAS: 13042-18-7
Molecular weight: 315
Origin: NIST Mass Spectrometry Data Center, 1998.
m/z	RELATIVE INTENSITY
15	10
26	10
27	130
28	180
29	30
30	2870
31	40
38	10
39	210
40	20
41	80
42	260
43	80
44	200
50	110
51	530
52	130
53	80
54	30
55	20
56	170
57	120
58	670
59	20
62	30
63	170
64	40
65	320
66	30
67	10
68	10
70	30
71	10
74	40
75	60
76	130
77	1910
78	630
79	1380
80	90
81	10
82	20
83	20
86	10
87	20
88	20
89	220
90	80
91	3400
92	280
93	20
94	10
100	10
101	30
102	190
103	1270
104	1350
105	9999
106	1530
107	80
113	30
114	10
115	850
116	260
117	490
118	520
119	130
120	1570
121	140
122	10
126	40
127	50
128	180
129	40
130	90
131	30
132	740
133	290
134	1940
135	200
136	10
137	10
138	10
139	130
140	20
141	90
142	10
144	10
146	180
147	50
148	60
149	10
150	100
151	150
152	1190
153	240
154	30
155	10
162	10
163	100
164	180
165	2400
166	820
167	2070
168	790
169	90
170	10
176	70
177	60
178	400
179	350
180	200
181	1820
182	280
183	20
189	30
190	10
191	40
192	30
193	340
194	360
195	60
196	20
203	10
204	10
205	10
206	10
207	10
208	70
209	30
210	80
211	20
222	50
223	10
236	10
237	50
238	90
239	20
298	10
300	2240
301	540
302	60
312	10
313	10
314	240
315	3080
316	780
317	100
318	10
