Mass Spectrum: Bromomethyl methyl ether
Formula: C2 H5 Br O
CAS: 13057-17-5
Molecular weight: 124
Origin: Chuck Anderson, Aldrich Chemical Co.
m/z	RELATIVE INTENSITY
13	16
14	112
15	893
16	30
17	26
27	8
28	65
29	2499
30	402
31	53
35	5
36	7
41	7
42	52
43	90
44	213
45	9999
46	340
47	42
48	9
49	65
50	5
51	27
63	1
79	500
80	116
81	500
82	111
83	24
91	107
92	120
93	805
94	161
95	681
96	37
97	23
107	23
109	22
123	20
125	20
