Mass Spectrum: 3-Chloro-4-fluorothiobenzamide
Formula: C7 H5 Cl F N S
CAS: 130560-97-3
Molecular weight: 189
Origin: NIST Mass Spectrometry Data Center, 1994
m/z	RELATIVE INTENSITY
12	64
16	70
17	455
18	1650
20	28
25	61
26	193
27	98
28	132
31	1211
32	1048
33	896
34	1819
35	343
36	409
37	848
38	570
39	168
41	43
44	159
45	345
46	75
47	152
48	143
49	505
50	1339
51	341
52	303
54	32
55	108
56	380
57	468
58	69
59	32
60	3144
61	761
62	701
63	581
64	304
65	77
66	31
67	272
68	1159
69	1029
70	192
71	105
72	214
73	505
74	1004
75	1128
76	426
77	31
78	398
79	132
80	166
81	259
82	131
83	215
84	248
85	178
86	179
87	290
88	170
89	77
90	60
91	289
92	497
93	1672
94	1310
95	453
96	83
97	109
98	129
99	537
100	1610
101	144
102	73
103	114
104	223
105	93
106	105
107	39
108	126
109	453
110	106
111	193
115	53
117	166
118	179
119	699
120	3239
121	429
122	45
126	238
127	198
128	536
129	918
130	433
131	330
132	102
134	60
135	57
136	115
137	183
138	330
139	50
152	49
153	92
155	9999
156	3494
157	3420
158	1131
159	89
161	146
162	72
163	62
173	1525
174	163
175	557
187	70
188	474
189	3700
190	516
191	1433
192	123
193	60
