Mass Spectrum: Naphthalene, 1,2,3,4-tetrahydro-2,7-dimethyl-
Formula: C12 H16
CAS: 13065-07-1
Molecular weight: 160
Origin: CONTINENTAL OIL CO., PONCA CITY, OKLA., USA
m/z	RELATIVE INTENSITY
25	6
26	145
27	1291
28	302
29	498
30	11
37	38
38	171
39	1755
40	209
41	725
42	175
43	40
44	2
49	15
50	388
51	1190
52	348
53	528
54	39
55	107
56	21
57	65
58	104
61	38
62	213
63	817
64	563
65	817
66	105
67	143
68	41
69	96
70	173
71	301
72	18
74	126
75	227
76	254
77	1243
78	516
79	460
80	47
81	39
82	10
85	19
86	71
87	135
88	85
89	324
90	123
91	1677
92	221
93	41
94	13
95	22
97	7
98	43
99	28
100	16
101	89
102	351
103	726
104	302
105	3010
106	327
107	28
108	13
109	18
110	21
111	17
112	10
113	78
114	112
115	2211
116	1030
117	2329
118	9999
119	1239
120	76
121	15
122	10
125	26
126	90
127	533
128	1675
129	1222
130	634
131	888
132	702
133	128
134	46
137	25
138	25
139	121
140	63
141	473
142	249
143	458
144	283
145	5329
146	657
147	44
149	13
150	13
151	23
152	48
153	38
154	19
155	36
156	33
157	55
158	95
159	778
160	6785
161	888
162	53
