Mass Spectrum: Pyrazine, 2,6-diethyl-
Formula: C8 H12 N2
CAS: 13067-27-1
Molecular weight: 136
Origin: Philip Morris R&D
m/z	RELATIVE INTENSITY
36	3
37	57
38	240
39	1793
40	175
41	241
42	88
43	17
45	6
46	12
49	16
50	166
51	390
52	631
53	1214
54	761
55	131
56	878
57	36
59	2
60	88
61	9
63	16
64	62
65	101
66	389
67	138
68	68
69	2
70	6
75	13
76	24
77	23
78	67
79	42
80	362
81	105
82	13
83	3
91	6
92	60
93	53
94	125
95	29
104	13
105	35
106	38
107	539
108	1439
109	271
110	26
117	1
118	13
119	58
120	448
121	208
122	16
133	101
134	23
135	9999
136	6055
137	619
