Mass Spectrum: Propanal, 2-methyl-, dimethylhydrazone
Formula: C6 H14 N2
CAS: 13063-57-5
Molecular weight: 114
Origin: ATLAS OF MASS SPECTRA OF ORGANIC COMPOUNDS, V. A. KOPTYUG, ED.
m/z	RELATIVE INTENSITY
27	1330
28	2290
29	760
30	530
39	970
40	270
41	1570
42	3370
43	9999
44	9520
45	3700
46	780
52	80
53	140
54	190
55	350
56	1570
57	270
58	2890
59	550
68	170
69	150
70	640
71	680
72	940
73	60
83	190
85	460
86	160
97	80
99	4220
100	330
113	210
114	4950
115	580
