Mass Spectrum: Trimethylantimony diiodide
Formula: C3 H9 I2 Sb
CAS: 13077-53-7
Molecular weight: 420
Origin: H. BREUNIG,FAC. BIOL./CHEM.,ANORG. CHEM.,BREMEN UNIV.,W. GER.
m/z	RELATIVE INTENSITY
136	500
138	350
151	4000
153	2800
166	2000
168	1400
248	3000
250	2100
263	6000
265	4200
278	2000
280	1400
293	9999
295	7500
375	1000
377	750
390	1000
392	750
405	100
407	75
