Mass Spectrum: Phosphorodithioic acid, S-[(tert-butylthio)methyl] O,O-diethyl ester
Formula: C9 H21 O2 P S3
CAS: 13071-79-9
Molecular weight: 288
Origin: ACCUSTANDARD Chemicals / NIST MS Data Center.
m/z	RELATIVE INTENSITY
13	20
14	24
15	117
16	27
17	4
18	26
19	17
25	10
26	148
27	1138
28	905
29	2724
30	92
31	56
32	150
33	17
34	11
35	26
37	16
38	58
39	689
40	10
41	2347
42	135
43	144
44	70
45	764
46	354
47	529
48	72
49	71
50	26
51	36
52	13
53	79
54	42
55	242
56	13
57	9999
58	458
59	301
60	79
61	129
62	28
63	208
64	13
65	1630
66	19
67	24
69	27
71	12
73	42
74	89
75	64
76	50
77	44
78	173
79	343
80	187
81	144
82	11
83	8
87	86
88	21
89	19
90	13
91	34
93	721
95	155
97	3017
98	38
99	173
101	24
103	2388
104	149
105	124
106	17
107	36
108	52
109	314
110	29
111	52
112	276
113	238
114	232
115	35
116	22
121	1084
122	55
123	26
124	22
125	1593
126	78
127	101
128	22
129	1077
130	146
131	292
132	20
133	22
134	13
135	82
136	13
137	17
139	19
140	73
142	1284
143	146
144	131
145	12
153	2356
154	229
155	170
156	12
157	354
158	370
159	283
160	41
161	25
171	83
172	13
173	15
174	13
175	760
176	32
177	115
185	567
186	1265
187	759
188	172
189	82
190	9
199	93
200	13
201	18
202	9
203	896
204	49
205	130
214	7
217	12
227	22
231	9097
232	791
233	1316
234	104
235	71
288	1129
289	140
290	183
291	18
292	10
