Mass Spectrum: 3,5-Bis(trifluoromethyl)thiophenol
Formula: C8 H4 F6 S
CAS: 130783-02-7
Molecular weight: 246
Origin: NIST Mass Spectrometry Data Center, 1994
m/z	RELATIVE INTENSITY
17	60
18	114
20	147
32	191
33	363
34	66
37	364
38	565
39	305
44	44
45	2114
46	73
47	155
49	148
50	754
51	498
53	111
54	80
56	197
57	935
58	376
61	436
62	878
63	3383
64	220
65	70
68	339
69	5291
70	217
71	134
72	58
73	76
74	215
75	2139
76	176
79	174
80	249
81	857
82	545
83	347
85	111
86	71
87	514
88	277
89	74
92	191
93	637
94	301
95	318
97	97
99	779
100	176
101	233
102	92
103	515
104	201
105	311
106	519
107	469
108	589
109	61
110	39
111	206
112	259
113	652
114	421
117	154
118	112
119	195
123	324
124	105
125	382
126	354
127	126
130	125
131	349
132	1925
133	1260
134	85
137	201
139	63
143	783
144	736
145	394
150	198
151	210
152	431
155	135
157	2837
158	305
159	146
161	122
163	1838
164	201
175	544
176	1143
177	1813
178	188
179	100
180	100
181	676
182	3970
183	415
193	178
194	215
195	232
196	86
200	100
201	290
202	287
205	61
206	60
207	576
213	486
214	93
220	96
225	2477
226	5661
227	4484
228	699
229	202
245	1338
246	9999
247	1022
248	452
