Mass Spectrum: 2-Naphthyl propionate
Formula: C13 H12 O2
CAS: 13080-43-8
Molecular weight: 200
Origin: NIST Mass Spectrometry Data Center, 1994
m/z	RELATIVE INTENSITY
13	22
14	55
15	45
18	24
25	23
26	270
27	1181
28	273
29	2509
30	49
37	27
38	81
39	414
40	16
41	38
42	71
50	226
51	251
52	38
53	34
55	91
57	1373
61	53
62	322
63	792
64	130
65	341
66	30
74	132
75	198
76	103
77	123
78	14
85	22
86	100
87	183
88	234
89	730
90	80
91	5
98	32
99	27
100	24
101	64
102	16
113	194
115	3286
116	790
117	70
126	136
127	284
128	53
141	18
144	9999
145	1106
146	80
200	794
201	119
202	12
