Mass Spectrum: 2-Thiazolidinecarboxamide, 2-methyl-
Formula: C5 H10 N2 O S
CAS: 13084-22-5
Molecular weight: 146
Origin: James Little,Eastman Chem.Co.,Kingsport,TN
m/z	RELATIVE INTENSITY
27	931
28	1031
29	180
30	400
35	230
41	601
42	3974
43	380
44	1611
45	631
54	500
55	981
56	490
59	1892
60	470
61	1611
68	170
69	80
71	70
73	60
74	50
75	50
99	100
100	200
101	70
102	9999
103	631
104	520
131	40
