Mass Spectrum: Bicyclo[2.2.1]hept-5-en-2-ol
Formula: C7 H10 O
CAS: 13080-90-5
Molecular weight: 110
Origin: Japan AIST/NIMC Database- Spectrum MS-NW-9881
m/z	RELATIVE INTENSITY
14	10
15	40
17	20
18	70
26	60
27	449
28	80
29	259
30	10
31	109
37	30
38	109
39	909
40	449
41	509
42	99
43	209
44	80
45	50
46	40
47	10
49	10
50	109
51	229
52	90
53	369
54	339
55	329
56	30
57	149
58	10
60	20
61	20
62	30
63	90
64	30
65	629
66	9999
67	939
68	99
69	119
70	129
71	30
73	10
74	10
77	429
78	99
79	749
80	159
81	1399
82	1419
83	169
84	30
89	10
91	179
92	50
93	20
94	20
95	159
96	20
107	50
108	80
109	60
110	559
111	50
