Mass Spectrum: di-t-Butyl phosphite
Formula: C8 H19 O3 P
CAS: 13086-84-5
Molecular weight: 194
Origin: NIST Mass Spectrometry Data Center, 1994
m/z	RELATIVE INTENSITY
15	190
26	65
27	328
28	131
29	579
31	157
38	79
39	780
40	204
41	1765
42	179
43	748
47	121
50	71
51	88
53	135
55	337
56	748
57	2337
58	162
59	620
65	279
83	9999
85	75
97	165
123	6164
124	261
139	319
179	207
