Mass Spectrum: Butanamide, N-ethyl-
Formula: C6 H13 N O
CAS: 13091-16-2
Molecular weight: 115
Origin: CARL DJERASSI DEPT OF CHEM STANFORD UNIV STANFORD CALIF 94305
m/z	RELATIVE INTENSITY
29	5742
30	7326
31	99
39	891
41	2574
42	1287
43	8316
44	9702
45	495
46	1287
54	99
55	1485
56	99
57	99
58	495
59	594
69	198
70	396
71	3465
72	9108
73	495
86	297
87	9999
88	495
100	2376
101	99
114	297
115	1584
116	198
