Mass Spectrum: Benzoic acid, 2-[[[4-[(acetylamino)sulfonyl]phenyl]amino]carbonyl]-
Formula: C16 H14 N2 O6 S
CAS: 131-69-1
Molecular weight: 362
Origin: Patti Price, Georgia Bureau of Investigation, Decatur, Georgia
m/z	RELATIVE INTENSITY
37	360
38	550
39	1010
40	90
41	280
42	510
43	3302
44	310
45	120
48	160
49	320
50	2622
51	410
52	580
53	430
54	150
55	40
60	90
61	220
62	340
63	1131
64	830
65	3953
66	540
67	60
68	30
69	110
70	50
71	30
72	40
73	410
74	1731
75	1511
76	8337
77	920
78	230
79	130
80	840
81	160
82	30
83	40
84	20
85	30
87	50
88	90
89	130
90	370
91	470
92	4514
93	360
95	50
102	130
103	120
104	8127
105	740
106	170
107	530
108	3383
109	8547
110	540
121	30
122	70
123	80
124	30
127	90
128	40
129	20
130	490
131	60
132	40
139	470
140	700
141	60
148	1171
149	170
150	210
151	250
156	2952
157	220
158	140
164	110
165	50
166	790
167	230
172	710
173	220
174	60
177	100
178	140
179	120
182	40
183	30
193	110
194	240
195	1181
196	150
210	110
211	160
214	1351
215	120
216	60
222	2732
223	410
237	200
238	840
239	9999
240	1401
241	150
258	90
270	40
280	340
281	80
286	260
287	40
302	460
303	70
