Mass Spectrum: 2-Naphthalenol, 1-nitroso-
Formula: C10 H7 N O2
CAS: 131-91-9
Molecular weight: 173
Origin: GFS Chemicals / NIST MS Data Center.
m/z	RELATIVE INTENSITY
13	54
14	58
15	51
17	84
18	149
26	284
27	427
28	457
29	173
30	541
36	61
37	358
38	523
39	809
40	37
41	121
43	58
44	58
45	50
49	297
50	1464
51	1575
52	369
53	165
54	88
55	101
56	50
57	75
59	104
60	103
61	510
62	1230
63	1865
64	618
65	763
66	95
73	265
74	1273
75	2153
76	1426
77	1217
78	384
79	43
84	55
85	174
86	546
87	723
88	1002
89	2132
90	470
91	139
97	95
98	288
99	338
100	529
101	2866
102	1912
103	572
104	77
105	47
106	52
109	64
110	127
111	87
112	47
113	1179
114	1994
115	7935
116	1043
117	2047
118	363
119	57
122	47
127	1050
128	7560
129	3984
130	609
131	45
141	38
142	224
143	1247
144	324
145	1828
146	283
147	77
156	6921
157	1180
158	128
159	35
168	44
169	55
170	36
171	51
172	35
173	9999
174	1012
175	157
