Mass Spectrum: Diamyl phthalate
Formula: C18 H26 O4
CAS: 131-18-0
Molecular weight: 306
Origin: Japan AIST/NIMC Database- Spectrum MS-NW-5349
m/z	RELATIVE INTENSITY
15	10
26	20
27	389
28	70
29	709
30	20
31	20
38	20
39	239
40	40
41	879
42	579
43	1889
44	70
45	10
50	159
51	80
52	20
53	50
54	20
55	519
56	40
57	50
58	10
63	10
64	10
65	289
66	30
67	30
68	20
69	119
70	369
71	419
72	20
74	30
75	50
76	429
77	129
78	10
79	10
83	10
85	10
87	10
91	10
92	20
93	229
94	20
103	10
104	399
105	229
106	40
119	10
121	189
122	169
123	119
124	10
132	50
133	10
135	40
136	10
146	10
147	20
148	20
149	9999
150	959
151	109
155	10
163	10
167	99
168	10
174	20
176	20
192	10
193	10
218	10
219	289
220	60
221	10
237	619
238	90
239	10
264	10
306	40
307	10
