Mass Spectrum: 1,2-Benzenedicarboxylic acid, dipropyl ester
Formula: C14 H18 O4
CAS: 131-16-8
Molecular weight: 250
Origin: NIST Mass Spectrometry Data Center, 1994
m/z	RELATIVE INTENSITY
15	154
16	11
17	17
18	42
27	2372
28	400
29	967
30	101
31	175
32	5
36	2
37	22
39	910
41	2080
42	532
43	1734
44	73
45	22
50	857
51	325
52	71
53	73
54	5
55	10
57	35
58	20
59	101
60	3
61	8
62	13
63	53
64	3
65	1115
66	137
69	3
70	2
74	154
75	250
76	1564
77	401
78	46
79	38
81	5
85	1
87	3
88	2
89	6
91	43
93	788
94	60
95	4
101	6
102	8
104	1206
105	723
106	92
107	27
108	2
115	14
116	6
117	12
118	8
119	35
121	663
122	512
123	168
124	15
129	5
130	3
132	126
133	22
135	151
136	18
137	2
142	2
143	7
144	10
146	122
149	9999
150	1419
151	158
152	12
155	2
161	6
162	12
163	34
164	33
165	10
167	70
168	3
189	7
191	799
192	118
193	17
204	3
205	5
206	2
209	735
210	93
211	11
212	2
250	16
251	4
