Mass Spectrum: 1,2-Benzenedicarboxylic acid, monobutyl ester
Formula: C12 H14 O4
CAS: 131-70-4
Molecular weight: 222
Origin: H. Fales, LC, NHLBI, NIH, Bethesda, MD 20892
m/z	RELATIVE INTENSITY
41	583
43	291
45	213
47	20
49	116
50	327
51	216
52	23
53	72
55	165
56	294
57	74
58	10
62	16
63	49
65	699
66	46
73	43
74	130
75	117
76	322
77	182
78	20
79	15
84	47
86	46
91	14
92	52
93	340
94	29
104	170
105	629
106	64
107	14
121	290
122	546
123	130
135	68
136	13
147	11
149	9999
150	847
151	92
160	43
166	36
167	1289
168	106
169	13
177	11
178	10
179	14
205	21
222	79
223	57
224	14
