Mass Spectrum: 2-Formyl-2-desmethyl-methaqualone
Formula: C16 H12 N2 O2
CAS: 131147-51-8
Molecular weight: 264
Origin: H.Maurer,J.Chromatogr.,530,307(1990)
m/z	RELATIVE INTENSITY
51	420
52	530
63	530
64	340
65	1411
75	230
76	420
77	530
78	80
88	761
89	1061
91	1101
102	460
103	230
107	270
116	420
117	611
118	110
119	150
120	150
132	2092
133	110
144	110
151	110
152	80
178	110
179	190
180	270
192	150
205	420
206	801
207	110
208	80
219	80
234	530
235	9999
236	80
248	230
263	80
264	1411
