Mass Spectrum: 2-tert-Butyl-6-methylaniline
Formula: C11 H17 N
CAS: 13117-94-7
Molecular weight: 163
Origin: Japan AIST/NIMC Database- Spectrum MS-NW-2242
m/z	RELATIVE INTENSITY
15	40
26	10
27	139
28	129
29	109
30	60
38	30
39	289
40	40
41	279
42	99
43	10
44	10
46	10
50	50
51	189
52	99
53	159
54	60
55	50
56	50
57	30
58	60
59	90
60	70
62	20
63	99
64	50
65	239
66	80
67	40
68	20
71	50
72	20
73	20
74	99
75	30
76	30
77	369
78	109
79	169
80	40
81	10
87	10
89	90
90	60
91	489
92	60
93	179
94	30
101	10
102	30
103	109
104	90
105	129
106	309
107	689
108	639
109	60
115	349
116	309
117	309
118	119
119	50
120	1709
121	259
122	50
127	40
128	109
129	129
130	239
131	229
132	279
133	609
134	99
135	10
142	10
143	10
144	60
145	20
146	229
147	189
148	9999
149	1299
150	80
162	80
163	3919
164	529
165	30
