Mass Spectrum: 5-Ethyl-5-(1-methyl-1,3-butadienyl)-hexahydropyrimidine-2,4,6-trione
Formula: C11 H14 N2 O3
CAS: 131147-54-1
Molecular weight: 222
Origin: H.Maurer, J.Chromatogr.,530,307(1990)
m/z	RELATIVE INTENSITY
53	330
54	40
55	260
65	220
66	180
67	811
68	40
70	110
77	410
79	180
80	40
81	110
82	40
83	70
85	2622
86	150
91	330
93	110
94	40
95	40
96	40
97	110
107	110
108	70
109	70
110	40
118	40
122	70
123	40
124	220
127	110
132	70
133	220
136	220
137	40
141	180
150	2442
151	480
152	70
153	110
155	260
157	150
160	70
167	330
168	70
169	550
176	40
179	110
193	9999
194	1001
195	40
197	150
