Mass Spectrum: 5-Ethenyl-5-(1-methyl-3-butenyl)-hexahydropyrimidine-2,4,6-trione
Formula: C11 H14 N2 O3
CAS: 131147-55-2
Molecular weight: 222
Origin: H.Maurer, J.Chromatogr.,530,307(1990)
m/z	RELATIVE INTENSITY
51	300
52	260
53	1001
54	480
55	1381
56	561
57	330
58	300
63	110
65	631
66	1151
67	4764
68	1601
69	4544
70	631
71	821
72	40
73	110
77	561
78	150
79	891
80	220
81	931
82	450
83	3753
84	300
85	1301
86	220
87	671
91	330
92	110
93	861
94	821
95	1121
96	260
97	480
98	260
107	260
108	300
109	561
110	410
111	520
112	2752
113	450
121	410
122	190
124	150
125	480
126	260
135	150
136	260
137	330
138	260
139	1081
140	150
141	190
149	110
150	260
152	220
153	971
154	9999
155	2943
156	330
164	300
165	110
168	150
169	260
179	220
180	190
181	260
193	150
195	631
196	150
