Mass Spectrum: 1-Propene, 1,2,3-trichloro-, (E)-
Formula: C3 H3 Cl3
CAS: 13116-58-0
Molecular weight: 144
Origin: NIST Mass Spectrometry Data Center, 1998.
m/z	RELATIVE INTENSITY
24	10
25	70
26	90
27	20
35	430
36	330
37	1100
38	1130
39	1240
40	40
47	440
48	260
49	1050
50	80
51	290
53	20
54	60
55	50
59	40
60	260
61	190
62	70
63	60
70	40
71	120
72	340
73	2060
74	340
75	680
76	70
82	40
83	2310
84	50
85	1520
86	20
87	240
94	10
95	160
96	30
97	90
99	10
107	190
109	9999
110	350
111	6459
112	210
113	1020
114	40
143	60
144	1910
145	100
146	1850
147	60
148	580
149	20
150	50
