Mass Spectrum: Androst-5-ene-3.beta.,17.beta.-diol, 2TMS derivative
Formula: C25 H46 O2 Si2
CAS: 13110-76-4
Molecular weight: 434
Origin: CHARLES C.SWEELEY,MICHIGAN STATE UNIV.EAST LANSING,MICH
m/z	RELATIVE INTENSITY
41	900
42	50
43	460
44	120
45	800
46	50
47	240
52	30
53	220
54	60
55	1190
56	60
57	120
58	50
59	530
60	120
61	420
62	30
63	40
65	110
66	60
67	1060
68	90
69	290
71	70
72	170
73	9999
74	960
75	5550
76	380
77	600
78	100
79	1290
80	150
81	1760
82	140
83	180
85	100
86	30
87	60
88	50
89	240
90	50
91	1610
92	320
93	1660
94	300
95	1180
96	80
97	50
99	120
101	560
102	80
103	350
104	160
105	1860
106	440
107	1790
108	390
109	610
110	60
111	50
113	80
114	50
115	830
116	360
117	780
118	300
119	2550
120	750
121	1020
122	160
123	90
127	90
128	210
129	6630
130	1300
131	1560
132	460
133	1290
134	330
135	360
136	70
139	40
140	40
141	190
142	210
143	1410
144	480
145	1790
146	460
147	760
148	210
149	160
150	50
151	40
152	40
153	80
154	70
155	450
156	260
157	800
158	1130
159	1390
160	460
161	740
162	130
163	60
164	30
165	50
166	40
167	100
168	130
169	530
170	200
171	620
172	380
173	660
174	240
175	90
176	30
177	50
179	50
180	50
181	200
182	230
183	460
184	180
185	530
186	260
187	480
188	150
189	280
190	40
192	30
193	40
194	40
195	220
196	210
197	550
198	240
199	1170
200	390
201	130
202	160
203	50
204	30
206	30
207	40
208	50
209	80
210	70
211	469
212	469
213	2750
214	720
215	4180
216	790
217	90
218	40
219	30
220	30
221	60
222	70
223	170
224	100
225	310
226	410
227	190
228	330
229	100
231	40
233	70
234	30
235	60
236	100
237	70
238	130
239	3910
240	790
241	140
242	30
246	30
247	40
248	90
249	40
250	300
251	310
252	110
253	2520
254	3079
255	810
256	110
257	40
259	30
261	40
272	30
273	70
274	40
275	60
276	40
277	80
287	70
288	70
289	110
290	70
291	30
300	40
301	60
302	130
303	390
304	700
305	2490
306	720
307	190
308	30
314	60
315	100
316	150
317	60
318	80
319	30
327	40
328	180
329	2260
330	640
331	170
332	30
342	90
343	180
344	3950
345	1180
346	320
347	70
417	30
418	40
419	810
420	330
421	110
422	40
432	40
433	90
434	1700
435	680
436	280
437	60
