Mass Spectrum: Pregn-5-ene-3,20-diol, (3.beta.,20S)-, 2TMS derivative
Formula: C27 H50 O2 Si2
CAS: 13110-77-5
Molecular weight: 462
Origin: STER PREG TMSI L SE30 01 2839 E, M.HORN
m/z	RELATIVE INTENSITY
41	150
43	100
44	50
45	150
47	50
53	50
55	350
57	50
59	100
60	50
61	100
67	250
68	50
69	100
72	50
73	3700
74	300
75	1650
76	150
77	200
78	50
79	300
80	50
81	400
82	50
83	50
85	50
87	50
89	50
91	300
92	50
93	350
94	100
95	250
101	100
103	150
104	50
105	350
106	100
107	300
108	50
109	100
111	50
115	50
116	100
117	9999
118	1150
119	850
120	250
121	250
122	50
123	50
128	50
129	1350
130	250
131	250
132	50
133	250
134	50
135	100
141	50
142	50
143	300
144	100
145	250
146	50
147	150
148	50
149	50
155	100
156	50
157	100
158	50
159	200
160	50
161	150
162	50
169	50
171	50
172	50
173	100
174	50
175	50
183	50
185	50
187	50
189	50
197	50
199	50
201	50
207	50
211	50
213	50
214	50
215	50
227	50
239	18
240	12
241	25
242	18
243	156
244	25
253	31
254	18
255	25
256	37
257	6
267	150
268	25
281	25
282	156
283	50
284	6
315	6
330	18
331	18
332	75
333	50
334	12
344	12
346	25
357	68
358	25
359	6
371	6
372	250
373	75
374	25
447	50
448	12
449	6
462	156
463	56
464	25
