Mass Spectrum: Propane, 1,1,2,2-tetrachloro-
Formula: C3 H4 Cl4
CAS: 13116-60-4
Molecular weight: 180
m/z	RELATIVE INTENSITY
12	20
13	20
14	50
15	80
17	10
18	30
19	10
24	10
25	70
26	260
27	1031
28	120
29	70
30	10
31	10
32	20
35	180
36	190
37	581
38	701
39	1692
40	110
41	130
42	120
43	90
44	50
45	460
46	10
47	360
48	250
49	2182
50	110
51	681
52	10
53	20
54	30
55	80
56	20
57	20
59	30
60	260
61	2352
62	1682
63	4264
64	611
65	110
66	40
67	10
69	10
70	10
71	40
72	140
73	671
74	90
75	1752
76	110
77	1091
78	50
79	200
80	10
81	10
82	70
83	2102
84	70
85	1371
86	20
87	230
88	10
89	10
90	10
91	50
92	10
93	40
94	50
95	931
96	821
97	9999
98	691
99	3323
100	210
101	961
102	20
107	50
108	10
109	1942
110	480
111	1401
112	310
113	310
114	50
115	20
143	30
144	701
145	2803
146	811
147	3023
148	330
149	861
150	60
151	90
165	90
166	10
167	110
168	10
169	60
170	10
171	10
179	10
180	20
181	10
182	20
183	10
184	10
186	10
