Mass Spectrum: 3-Furancarboxylic acid, methyl ester
Formula: C6 H6 O3
CAS: 13129-23-2
Molecular weight: 126
Origin: NIST Mass Spectrometry Data Center
m/z	RELATIVE INTENSITY
14	10
15	130
25	20
26	40
27	70
28	50
29	450
30	40
31	50
36	50
37	490
38	981
39	2482
40	140
41	70
42	40
43	10
44	10
45	20
49	40
50	60
51	40
52	30
53	220
54	40
55	50
59	150
65	40
66	210
67	751
68	130
69	160
70	40
80	20
81	50
82	20
83	10
93	10
95	9999
96	691
97	190
98	350
99	20
108	60
109	10
110	10
126	3153
127	210
128	30
