Mass Spectrum: 1,2-Diethoxy-4-ethylbenzene
Formula: C12 H18 O2
CAS: 131358-04-8
Molecular weight: 194
Origin: I.Hazai ET AL.J.Chrom.,520,149(1990)
m/z	RELATIVE INTENSITY
50	1581
51	3733
52	2152
53	2702
55	1742
57	1061
63	1001
64	290
65	1672
66	741
67	320
75	190
77	2772
78	611
79	2352
80	350
81	1161
88	641
90	290
91	4574
92	641
93	290
94	581
95	290
103	390
105	320
107	711
109	1862
110	1321
119	1351
120	801
121	581
123	9999
124	741
135	320
136	681
137	4534
138	6276
139	450
149	290
151	320
165	290
166	2062
194	4244
195	420
