Mass Spectrum: Bis-(4-(2,5-dioxo-2,5-dihydropyrrol-1-yl)-phenyl)-ether
Formula: C20 H12 N2 O5
CAS: 13132-94-0
Molecular weight: 360
Origin: Humboldt-Universitat zu Berlin, Department of Chemistry, Analytical Group
m/z	RELATIVE INTENSITY
12	40
14	24
15	56
16	56
17	277
18	1024
20	29
25	48
26	2303
27	311
28	457
29	133
31	27
32	32
37	64
38	160
39	723
40	88
41	120
42	101
43	314
44	154
45	64
50	221
51	558
52	410
53	827
54	3159
55	279
56	53
57	88
58	19
60	51
61	45
62	162
63	963
64	423
65	189
66	37
67	37
68	35
69	77
70	59
71	64
73	40
74	64
75	183
76	199
77	370
78	644
79	133
80	407
81	53
82	1194
83	104
84	35
85	32
86	24
87	37
88	96
89	678
90	1351
91	157
92	82
93	138
94	24
95	27
96	37
97	40
98	27
99	24
101	85
102	218
103	133
104	362
105	104
106	750
107	141
108	338
109	51
110	27
111	35
112	32
113	32
114	85
115	154
116	1218
117	245
118	149
119	136
120	40
122	27
123	59
124	29
125	66
126	48
127	205
128	117
129	88
130	48
131	101
132	465
133	176
134	548
135	183
136	51
137	19
138	19
139	191
140	152
141	56
142	37
143	104
144	582
145	178
146	53
147	21
151	51
152	128
153	160
154	157
155	69
156	90
157	51
158	88
159	64
160	904
161	149
162	27
163	21
164	29
165	82
166	85
167	80
168	69
169	61
170	80
171	66
172	609
173	168
174	29
177	16
178	59
179	122
180	420
181	133
182	383
183	74
184	19
185	24
188	2026
189	564
190	96
191	37
192	82
193	98
194	61
195	74
196	64
197	61
198	32
199	19
200	37
203	21
204	16
205	74
206	96
207	168
208	130
209	77
210	53
211	21
217	13
218	32
219	64
220	354
221	231
222	80
223	149
224	56
225	56
226	29
229	16
230	11
231	19
232	27
233	88
234	88
235	90
236	375
237	109
238	24
239	13
244	13
245	24
246	37
247	82
248	32
249	104
250	88
251	112
252	77
253	16
258	13
259	21
260	19
261	72
262	136
263	96
264	40
265	11
275	125
276	64
277	88
278	48
279	144
280	303
281	77
282	19
283	11
285	8
287	19
288	13
290	1205
291	263
292	35
303	96
304	61
306	215
307	43
308	8
313	8
315	37
316	21
317	19
318	21
322	125
323	29
331	77
332	61
333	13
360	9999
361	2287
362	425
363	61
364	8
