Mass Spectrum: 1,2-Diethoxy-3-ethylbenzene
Formula: C12 H18 O2
CAS: 131358-05-9
Molecular weight: 194
Origin: I.Hazai ET AL.J.Chrom.,520,149(1990)
m/z	RELATIVE INTENSITY
50	1531
51	4384
52	2212
53	3453
55	1922
63	751
64	601
65	1491
66	601
67	460
77	2212
78	571
79	1782
81	1001
89	460
91	2422
92	601
94	1001
105	571
106	460
107	601
109	1922
110	1031
119	1031
120	601
121	751
123	9999
124	601
137	5525
138	5095
139	751
149	460
151	1101
166	1391
194	4094
195	681
