Mass Spectrum: Urea, N-(2-methylphenyl)-N'-phenyl-
Formula: C14 H14 N2 O
CAS: 13140-49-3
Molecular weight: 226
Origin: M.A.BALDWIN UNIVERSITY COLLEGE, LONDON, UK
m/z	RELATIVE INTENSITY
28	530
30	250
37	160
38	430
39	1850
40	280
41	320
42	110
50	480
51	1440
52	730
53	400
54	220
62	180
63	640
64	620
65	2040
66	990
67	170
75	110
76	180
77	2640
78	1040
79	610
80	210
89	280
90	280
91	1470
92	890
93	9999
94	780
104	730
105	360
106	3060
107	240
108	560
119	590
120	210
132	260
133	510
134	160
226	3110
227	530
