Mass Spectrum: 1,4,6,9-Tetrathiaspiro[4.4]nonane
Formula: C5 H8 S4
CAS: 13145-46-5
Molecular weight: 196
Origin: J. DAMICO MONSANTO COMPANY, NITRO, W. VIRGINIA, USA
m/z	RELATIVE INTENSITY
26	2216
27	2216
28	1509
32	1320
44	2216
45	3679
58	1179
59	2405
60	2783
64	1698
76	9999
78	990
91	2075
92	990
136	2405
168	2594
170	613
196	896
