Mass Spectrum: Cyclooctane, 1,4-dimethyl-, trans-
Formula: C10 H20
CAS: 13151-98-9
Molecular weight: 140
Origin: D.HENNEBERG, MAX-PLANCK INSTITUTE, MULHEIM, WEST GERMANY
m/z	RELATIVE INTENSITY
24	30
26	102
27	1826
28	355
29	2435
32	11
33	10
36	26
37	69
38	69
39	1971
40	370
41	6675
42	1832
43	3416
44	78
45	12
46	17
47	14
49	21
50	47
51	170
52	60
53	631
54	409
55	9999
56	6601
57	2977
58	104
61	4
62	8
63	38
64	5
65	111
66	96
67	892
68	524
69	7155
70	5178
71	860
72	49
75	5
76	5
77	78
78	15
79	117
80	8
81	355
82	903
83	4692
84	1466
85	260
86	8
91	16
93	15
95	81
96	164
97	1436
98	522
99	44
110	110
111	1026
112	737
113	65
125	1740
126	159
140	108
141	5
