Mass Spectrum: Tridecane, 6-cyclohexyl-
Formula: C19 H38
CAS: 13151-91-2
Molecular weight: 266
Origin: D.HENNEBERG, MAX-PLANCK INSTITUTE, MULHEIM, WEST GERMANY
m/z	RELATIVE INTENSITY
21	21
25	7
26	74
27	579
28	366
29	1848
30	62
37	74
38	15
39	520
40	107
41	5240
42	716
43	6018
44	64
47	26
49	38
50	35
52	50
53	344
54	771
55	7776
56	1646
57	9999
58	399
59	11
63	46
65	93
66	126
67	2893
68	443
69	3796
70	1359
71	5590
72	212
74	13
77	134
78	11
79	233
80	125
81	900
82	5803
83	7854
84	1039
85	3042
86	190
88	6
91	137
93	46
95	485
96	1036
97	4382
98	749
99	1002
100	50
105	15
109	399
110	203
111	2768
112	499
113	547
114	67
123	104
124	212
125	1212
126	267
127	373
129	24
137	43
138	56
139	387
140	98
141	148
151	3
152	45
153	113
154	146
165	21
166	290
167	528
168	93
180	137
181	293
182	1198
183	438
184	6
193	19
194	194
195	400
196	32
