Mass Spectrum: Decane, 3-cyclohexyl-
Formula: C16 H32
CAS: 13151-74-1
Molecular weight: 224
Origin: D.HENNEBERG, MAX-PLANCK INSTITUTE, MULHEIM, WEST GERMANY
m/z	RELATIVE INTENSITY
26	152
27	1125
28	946
29	2383
30	29
32	71
35	56
37	71
39	850
40	14
41	6436
42	1329
43	6613
50	24
51	66
53	551
54	858
55	9999
56	2756
57	9333
58	345
63	49
65	44
66	181
67	3938
68	411
69	7157
70	1579
71	3739
72	284
77	63
78	36
79	306
80	95
81	1181
82	7778
83	9651
84	1615
85	3035
86	294
91	61
93	93
94	71
95	495
96	620
97	3109
98	635
99	546
109	240
110	58
111	1532
112	620
113	142
117	44
123	232
124	796
125	2405
126	105
132	24
138	73
139	284
140	1635
141	382
142	29
153	110
181	34
194	375
195	902
196	232
224	19
