Mass Spectrum: Decane, 5-methyl-
Formula: C11 H24
CAS: 13151-35-4
Molecular weight: 156
Origin: D.HENNEBERG, MAX-PLANCK INSTITUTE, MULHEIM, WEST GERMANY
m/z	RELATIVE INTENSITY
26	29
27	953
29	1724
30	25
33	13
35	6
37	5
39	448
40	66
41	2106
42	692
43	8567
44	41
51	7
53	543
54	72
55	860
56	1411
57	9999
58	345
59	10
63	2
67	25
68	29
69	528
70	541
71	855
72	35
81	3
82	3
83	71
84	1552
85	2384
86	114
98	1234
99	498
100	22
112	88
113	23
126	62
127	69
140	10
141	50
156	90
157	4
