Mass Spectrum: 1-Octene, 7-methyl-
Formula: C9 H18
CAS: 13151-06-9
Molecular weight: 126
Origin: CARL DJERASSI DEPT OF CHEM STANFORD UNIV STANFORD CALIF 94305
m/z	RELATIVE INTENSITY
39	1300
40	100
41	4600
42	1300
43	8100
44	100
53	100
54	200
55	5000
56	9999
57	2900
67	300
68	600
69	5900
70	2100
71	100
83	800
84	800
98	300
111	300
126	300
