Mass Spectrum: Thietane, 1-oxide
Formula: C3 H6 O S
CAS: 13153-11-2
Molecular weight: 90
Origin: A.Scala ET AL.J.Heterocycl.Chem.,15,421(1978)
m/z	RELATIVE INTENSITY
26	661
27	2282
28	1471
29	400
38	420
39	2552
40	1441
41	9999
42	8247
43	1481
44	881
45	621
46	811
48	611
49	20
57	330
62	1041
63	811
73	981
74	380
90	4374
