Mass Spectrum: (Z)-Hex-2-ene, 5-methyl-
Formula: C7 H14
CAS: 13151-17-2
Molecular weight: 98
Origin: NIST Mass Spectrometry Data Center, 1990.
m/z	RELATIVE INTENSITY
14	202
15	527
26	366
27	3188
28	1947
29	1708
32	411
39	4195
40	938
41	7066
42	922
43	6584
44	245
50	426
51	635
52	295
53	1158
54	1474
55	6877
56	9999
57	880
65	287
67	662
69	3111
70	2867
77	233
83	910
98	2131
