Mass Spectrum: Undecane, 3-cyclohexyl-
Formula: C17 H34
CAS: 13151-78-5
Molecular weight: 238
Origin: D.HENNEBERG, MAX-PLANCK INSTITUTE, MULHEIM, WEST GERMANY
m/z	RELATIVE INTENSITY
22	4
24	3
26	54
27	824
29	2012
30	43
31	10
33	14
35	16
37	60
38	38
39	670
40	147
41	6563
42	959
43	6609
44	37
45	6
51	38
52	12
53	387
54	854
55	9745
56	2545
57	9999
58	397
59	3
63	17
65	87
66	103
67	3489
68	518
69	7344
70	1849
71	4381
72	234
75	21
76	19
77	95
78	18
79	213
80	136
81	946
82	8144
83	9985
84	1511
85	2783
86	167
91	111
93	42
95	890
96	528
97	2990
98	763
99	828
100	24
109	139
110	182
111	1684
112	407
113	303
123	55
124	823
125	2827
126	560
127	92
137	5
138	15
139	339
140	33
152	4
153	140
154	1425
155	416
156	22
167	12
208	232
209	909
210	145
238	6
