Mass Spectrum: Tridecane, 7-cyclohexyl-
Formula: C19 H38
CAS: 13151-92-3
Molecular weight: 266
Origin: D.HENNEBERG, MAX-PLANCK INSTITUTE, MULHEIM, WEST GERMANY
m/z	RELATIVE INTENSITY
25	2
26	121
27	637
28	637
29	1936
30	56
31	48
33	34
37	42
38	102
39	683
40	260
41	6061
42	901
43	6155
44	96
46	62
50	53
51	96
53	360
54	952
55	8148
56	1593
57	9999
58	331
62	2
63	59
64	22
65	36
66	93
67	3147
68	510
69	5208
70	1562
71	5537
72	360
77	238
78	8
79	377
80	113
81	1329
82	6274
83	7590
84	1261
85	3459
86	204
91	266
92	53
93	65
95	453
96	1329
97	5060
98	785
99	1105
100	48
101	19
104	48
105	90
106	31
107	22
109	603
110	209
111	3538
112	637
113	425
114	65
119	45
123	266
124	136
125	1766
126	314
127	439
128	36
129	34
131	62
137	150
138	56
139	439
140	167
141	170
151	8
152	127
153	138
154	263
165	8
166	158
167	107
168	141
175	48
179	22
180	666
181	966
182	1403
183	527
184	36
193	14
194	76
195	96
