Mass Spectrum: 1-Heptene, 4-methyl-
Formula: C8 H16
CAS: 13151-05-8
Molecular weight: 112
Origin: NIST Mass Spectrometry Data Center, 1990.
m/z	RELATIVE INTENSITY
15	116
27	1621
28	491
29	1377
39	3863
40	744
41	5600
42	1987
43	9999
44	380
50	171
51	360
52	174
53	905
54	433
55	3831
56	956
57	123
63	110
65	275
66	97
67	646
68	395
69	1498
70	7108
71	5093
72	283
77	143
79	110
83	239
84	542
97	65
112	208
