Mass Spectrum: Dodecane, 2-cyclohexyl-
Formula: C18 H36
CAS: 13151-82-1
Molecular weight: 252
Origin: D.HENNEBERG, MAX-PLANCK INSTITUTE, MULHEIM, WEST GERMANY
m/z	RELATIVE INTENSITY
21	12
26	41
27	564
28	189
29	1458
30	41
31	11
33	8
36	1
38	32
39	444
40	133
41	4329
42	727
43	4089
44	67
45	11
52	1
53	239
54	639
55	7052
56	1347
57	4557
58	195
63	20
65	43
66	102
67	2778
68	401
69	4245
70	914
71	2017
72	104
73	9
75	14
76	28
77	83
78	40
79	90
80	76
81	654
82	9999
83	7987
84	852
85	1128
86	69
91	23
93	11
95	161
96	182
97	951
98	254
99	280
100	13
105	54
107	14
108	4
109	113
110	766
111	2815
112	436
113	149
114	8
116	11
124	23
125	201
126	104
127	76
138	5
139	68
140	114
141	2
153	11
167	25
168	537
169	135
170	8
252	14
