Mass Spectrum: Decane, 4-cyclohexyl-
Formula: C16 H32
CAS: 13151-75-2
Molecular weight: 224
Origin: D.HENNEBERG, MAX-PLANCK INSTITUTE, MULHEIM, WEST GERMANY
m/z	RELATIVE INTENSITY
21	9
25	31
26	50
27	1018
28	546
29	2100
30	98
33	15
37	78
38	48
39	602
40	139
41	5648
42	1200
43	6744
44	117
50	57
52	28
53	400
54	776
55	9234
56	1931
57	7736
58	284
63	9
65	67
66	131
67	3291
68	449
69	3665
70	1630
71	3715
72	223
73	14
77	98
78	35
79	330
80	79
81	964
82	6365
83	9999
84	1591
85	3424
86	266
88	26
91	139
93	46
95	565
96	745
97	4172
98	741
99	525
100	40
105	7
109	352
110	156
111	1810
112	427
123	65
124	26
125	460
137	75
138	615
139	907
140	1976
141	327
152	32
153	25
166	57
167	31
180	259
181	874
182	56
224	53
