Mass Spectrum: Undecane, 5-cyclohexyl-
Formula: C17 H34
CAS: 13151-80-9
Molecular weight: 238
Origin: D.HENNEBERG, MAX-PLANCK INSTITUTE, MULHEIM, WEST GERMANY
m/z	RELATIVE INTENSITY
26	34
27	930
29	2279
30	62
35	18
38	26
39	626
40	104
41	6274
42	754
43	7354
44	131
47	20
50	3
51	42
52	8
53	364
54	827
55	9096
56	1823
57	9999
58	386
62	7
63	18
65	86
66	96
67	3343
68	411
69	4129
70	1367
71	5009
72	229
77	85
78	8
79	202
80	86
81	697
82	6183
83	8313
84	1220
85	3439
86	173
91	239
92	4
93	4
95	305
96	863
97	5318
98	723
99	932
100	34
105	36
109	151
110	130
111	2135
112	418
113	210
123	17
124	87
125	796
126	312
138	5
139	89
152	389
153	720
154	1730
155	375
156	23
166	58
167	91
180	262
181	567
182	70
