Mass Spectrum: Decane, 5-cyclohexyl-
Formula: C16 H32
CAS: 13151-76-3
Molecular weight: 224
Origin: D.HENNEBERG, MAX-PLANCK INSTITUTE, MULHEIM, WEST GERMANY
m/z	RELATIVE INTENSITY
25	24
26	92
27	1049
28	837
29	2326
30	83
31	29
33	29
35	11
38	67
39	809
40	116
41	6241
42	923
43	7351
44	61
45	15
49	16
50	20
51	93
52	49
53	513
54	1030
55	9999
56	2143
57	8060
58	303
61	20
65	158
66	66
67	3717
68	588
69	4016
70	1608
71	4864
72	254
77	148
79	245
80	159
81	1087
82	6564
83	9301
84	1752
85	4006
86	205
88	25
90	36
91	172
92	14
93	24
95	619
96	1008
97	5887
98	1062
99	580
100	25
109	336
110	270
111	2605
112	571
113	33
123	89
124	98
125	315
138	41
139	63
140	2477
141	496
142	18
152	498
153	957
154	88
166	418
167	865
168	96
224	28
