Mass Spectrum: Dodecane, 4-cyclohexyl-
Formula: C18 H36
CAS: 13151-84-3
Molecular weight: 252
Origin: D.HENNEBERG, MAX-PLANCK INSTITUTE, MULHEIM, WEST GERMANY
m/z	RELATIVE INTENSITY
27	691
28	65
29	1870
30	30
33	20
35	22
37	64
38	26
39	593
40	100
41	5231
42	945
43	6131
44	72
51	50
53	343
54	751
55	8594
56	1751
57	9127
58	408
59	4
63	2
65	109
66	94
67	2992
68	424
69	3647
70	1298
71	5067
72	222
75	15
77	87
78	10
79	188
80	71
81	848
82	6392
83	9999
84	1293
85	2490
86	167
91	116
92	11
93	20
95	340
96	806
97	3570
98	609
99	680
100	40
109	307
110	207
111	1479
112	379
113	443
114	34
123	31
124	50
125	787
126	192
127	183
128	11
137	54
138	600
139	1229
140	296
141	18
151	8
152	20
153	151
154	16
167	62
168	1137
169	310
170	17
208	208
209	535
210	83
