Mass Spectrum: 1-Heptene, 5-methyl-
Formula: C8 H16
CAS: 13151-04-7
Molecular weight: 112
Origin: D.HENNEBERG, MAX-PLANCK INSTITUTE, MULHEIM, WEST GERMANY
m/z	RELATIVE INTENSITY
24	9
26	181
27	2307
28	196
29	3758
30	99
33	4
34	6
36	15
37	56
38	114
39	2517
40	323
41	7071
42	1872
43	7134
44	103
45	11
46	3
47	2
48	6
49	13
50	96
51	227
52	93
53	613
54	453
55	9162
56	2675
57	2282
58	95
60	2
61	6
62	13
63	46
64	4
65	89
66	40
67	486
68	121
69	1818
70	9999
71	1908
72	87
73	1
74	4
75	6
77	68
78	15
79	69
80	7
81	97
82	268
83	2565
84	772
85	42
91	22
95	9
97	158
98	11
105	11
111	5
112	174
113	15
