Mass Spectrum: Tridecane, 5-cyclohexyl-
Formula: C19 H38
CAS: 13151-90-1
Molecular weight: 266
Origin: D.HENNEBERG, MAX-PLANCK INSTITUTE, MULHEIM, WEST GERMANY
m/z	RELATIVE INTENSITY
25	9
27	621
28	61
29	1904
30	19
33	15
39	515
40	114
41	4702
42	727
43	6260
45	7
48	10
49	27
50	14
51	53
52	28
53	278
54	812
55	7459
56	1802
57	9999
58	340
65	103
66	72
67	2701
68	459
69	3563
70	1200
71	5745
72	298
75	20
77	95
78	47
79	239
80	57
81	938
82	5991
83	7891
84	1068
85	2926
86	175
91	227
93	86
95	408
96	811
97	5075
98	720
99	708
100	39
109	305
110	230
111	1980
112	412
113	572
114	20
122	20
123	17
124	156
125	832
126	174
127	335
128	19
137	17
138	45
139	403
140	99
141	104
149	17
151	76
152	567
153	914
154	254
167	30
182	1081
183	383
208	215
209	392
210	55
