Mass Spectrum: 2,6-Dimethyldecane
Formula: C12 H26
CAS: 13150-81-7
Molecular weight: 170
Origin: NIST Mass Spectrometry Data Center, 1990.
m/z	RELATIVE INTENSITY
27	1461
28	611
29	2143
39	1376
41	5815
42	1724
43	9999
44	378
53	433
54	227
55	2250
56	2881
57	9292
58	384
67	214
68	124
69	1261
70	912
71	7049
72	379
84	3493
85	4189
86	305
97	263
98	152
99	331
112	1188
113	1426
114	128
126	183
127	233
140	108
141	109
155	158
170	237
