Mass Spectrum: 2,4-Undecadienal
Formula: C11 H18 O
CAS: 13162-46-4
Molecular weight: 166
m/z	RELATIVE INTENSITY
15	40
26	80
27	1091
28	290
29	1211
31	90
39	1161
40	250
41	2652
42	601
43	1732
44	70
51	220
52	140
53	671
54	641
55	1351
56	641
57	220
65	360
66	480
67	1481
68	611
69	450
70	530
71	80
77	320
78	150
79	540
80	210
81	9999
82	1001
83	1441
84	360
90	190
92	180
93	180
94	901
95	520
96	150
97	250
107	120
109	420
110	150
122	100
123	300
137	280
166	400
