Mass Spectrum: Benzenamine, 4-chloro-N-sulfinyl-
Formula: C6 H4 Cl N O S
CAS: 13165-68-9
Molecular weight: 173
Origin: J.H.BOWIE UNIVERSITY OF ADELAIDE, AUSTRALIA
m/z	RELATIVE INTENSITY
37	1500
38	1900
39	3100
45	1500
48	1300
49	600
50	1500
51	900
52	400
61	1200
62	2300
63	5400
64	2900
65	800
73	1200
74	800
75	1400
83	600
89	1200
90	5400
91	400
92	400
98	500
99	1500
100	400
101	700
110	4900
111	600
118	1200
120	300
125	2000
127	2300
129	600
138	9999
139	700
140	500
145	600
173	5400
174	400
175	2000
