Mass Spectrum: Phosphamidon
Formula: C10 H19 Cl N O5 P
CAS: 13171-21-6
Molecular weight: 299
Origin: ACCUSTANDARD Chemicals / NIST MS Data Center.
m/z	RELATIVE INTENSITY
12	6
14	27
15	885
16	12
26	72
27	598
28	1015
29	1124
30	148
31	181
32	91
33	52
35	9
36	19
37	18
38	69
39	341
40	43
41	203
42	1075
43	1137
44	812
45	48
47	202
48	32
49	71
50	21
51	28
52	32
53	58
54	130
55	146
56	841
57	316
58	521
59	33
61	43
62	55
63	94
64	48
65	107
66	156
67	1061
68	147
69	119
70	744
71	33
72	3745
73	536
74	62
75	149
76	87
77	47
78	43
79	848
80	84
81	128
82	156
83	52
84	28
85	19
86	17
87	16
88	30
89	46
90	41
91	29
92	83
93	276
94	98
95	249
96	95
97	31
98	33
99	16
100	364
101	389
102	118
103	265
104	65
105	55
106	30
109	2351
110	702
111	74
112	30
113	86
114	30
115	28
116	65
117	90
118	67
119	104
120	85
121	39
122	84
123	21
124	36
127	9999
128	279
129	120
130	196
131	85
132	70
133	47
134	21
135	24
136	66
137	21
138	2266
139	237
140	25
142	9
144	108
145	113
146	51
147	57
148	15
149	18
150	7
151	13
152	9
153	45
154	10
155	12
156	17
158	821
159	95
160	294
161	29
162	15
164	186
165	148
166	51
167	10
169	7
170	24
172	365
173	356
174	200
175	126
176	31
177	9
179	7
181	13
185	10
190	8
192	518
193	1184
194	89
195	21
198	127
199	32
200	51
201	14
219	8
220	23
222	16
226	172
227	780
228	104
229	256
230	22
232	14
236	23
248	23
249	7
264	4629
265	531
266	72
270	7
284	14
