Mass Spectrum: 1-Nitrofluoranthene
Formula: C16 H9 N O2
CAS: 13177-28-1
Molecular weight: 247
Origin: Organic Synthesis Lab, MSU, Moscow.TRC 266
m/z	RELATIVE INTENSITY
40	420
41	120
43	150
44	370
55	230
56	120
57	340
62	60
63	120
65	60
67	110
68	80
69	220
70	290
71	280
73	110
74	330
75	190
76	240
77	190
81	180
82	110
83	220
84	130
85	110
86	180
87	611
89	80
93	180
94	190
95	150
96	90
97	150
98	320
99	651
100	2432
104	180
105	150
109	110
110	180
111	180
112	180
113	240
115	80
121	120
122	200
125	80
126	130
129	50
132	80
133	80
134	80
135	110
137	110
139	110
140	60
141	80
146	90
147	110
149	5685
150	1081
151	430
152	270
153	60
161	110
162	150
163	550
164	340
165	130
167	671
168	150
173	160
174	781
175	430
176	110
180	60
181	50
186	80
187	440
188	350
189	2712
190	510
191	120
193	80
197	150
198	881
199	1251
200	7066
201	9999
202	1742
203	200
207	310
208	80
209	270
210	200
217	400
218	110
231	110
239	220
240	60
247	9469
248	1762
249	200
