Mass Spectrum: Phenol, 4-(ethoxymethyl)-2-methoxy-
Formula: C10 H14 O3
CAS: 13184-86-6
Molecular weight: 182
Origin: NIST Mass Spectrometry Data Center
m/z	RELATIVE INTENSITY
27	210
29	410
30	90
31	200
38	210
39	791
40	100
41	290
44	200
50	150
51	1121
52	601
53	721
55	220
63	150
65	2422
66	1101
67	300
68	180
77	891
78	500
79	350
80	150
81	561
91	150
93	2102
94	1672
95	591
105	450
106	761
107	921
108	350
109	150
110	320
111	370
118	100
121	170
122	2192
123	1541
125	881
134	210
135	300
137	9999
138	2172
139	390
151	430
152	140
153	390
154	110
167	90
181	631
182	2973
183	591
