Mass Spectrum: 3,3-Dimethylthietane
Formula: C5 H10 S
CAS: 13188-85-7
Molecular weight: 102
Origin: J. MADSEN,DEP. ORG. CHEM.,TECH. UNIV. DENMARK,LYNGBY,DENMARK
m/z	RELATIVE INTENSITY
27	650
28	35
29	750
38	80
39	880
40	910
41	4650
42	180
45	870
46	1160
47	660
50	70
51	90
53	380
54	1180
55	1170
56	9999
57	1030
58	80
59	270
60	180
61	120
67	110
68	170
69	260
74	180
87	1410
102	5940
103	370
104	270
