Mass Spectrum: Carbonic acid, isobutyl phenyl ester
Formula: C11 H14 O3
CAS: 13183-18-1
Molecular weight: 194
Origin: Zaikin V.G., TIPS RAS, Moscow, Russia
m/z	RELATIVE INTENSITY
26	30
27	150
29	561
30	20
39	721
40	140
41	1201
42	60
44	90
50	90
51	290
52	40
54	50
55	190
56	60
57	1221
58	50
62	30
63	100
64	50
65	550
66	320
67	100
68	70
74	20
76	30
77	1201
78	120
81	60
82	70
90	20
91	20
93	80
94	9999
95	761
96	70
107	160
108	30
121	110
194	50
