Mass Spectrum: 2-Oxazolidinethione, 5-ethenyl-
Formula: C5 H7 N O S
CAS: 13190-34-6
Molecular weight: 129
Origin: NIST Mass Spectrometry Data Center, 1994
m/z	RELATIVE INTENSITY
13	76
15	669
25	201
26	1383
27	4185
28	1895
29	2942
30	1314
32	259
33	530
37	722
38	1514
39	6498
40	1483
41	5360
42	3787
43	2677
44	811
45	2754
46	873
47	518
48	154
49	173
50	772
51	859
52	542
53	1175
54	2060
55	658
56	728
57	2439
58	501
59	233
60	1110
61	485
67	660
68	7462
69	1439
70	294
71	658
72	2617
73	2038
74	405
75	205
82	151
83	140
85	1442
86	806
95	152
96	607
100	156
101	852
102	258
127	205
129	9999
130	639
131	555
