Mass Spectrum: Ethoprophos
Formula: C8 H19 O2 P S2
CAS: 13194-48-4
Molecular weight: 242
Origin: CATALOGUE OF MASS SPECTRA OF PESTICIDES, APRIL, 1975; J. FREUDENTHAL & L. G. GRAMBERG, NAT'L INST. OF PUBLIC HEALTH, THE NETHERLANDS
m/z	RELATIVE INTENSITY
13	125
15	136
25	122
26	440
27	2397
28	1168
29	1697
32	140
33	102
34	316
38	174
39	1484
40	331
41	5292
42	1634
43	8518
44	309
45	1093
46	696
47	2104
48	173
58	154
59	370
60	242
61	298
62	122
63	176
64	162
65	2225
69	456
71	101
73	869
74	4101
75	1671
76	1633
77	253
78	108
79	237
81	371
83	111
89	307
92	137
93	4159
94	241
95	152
96	122
97	7276
98	248
99	557
105	201
107	297
108	964
109	281
110	155
111	186
112	106
113	632
114	1411
115	385
116	176
117	714
119	145
120	203
121	583
122	123
123	366
124	267
125	2542
126	5428
127	3867
128	436
129	339
130	952
131	328
137	109
138	254
139	5789
140	341
141	389
142	133
155	441
156	309
157	149
158	9999
159	1482
160	1098
161	138
166	136
167	1157
168	1870
169	412
170	247
171	228
172	132
197	194
198	220
199	1078
200	3833
201	558
202	319
242	3351
243	506
244	308
