Mass Spectrum: 2,5-Dibromo-3-methylthiophene
Formula: C5 H4 Br2 S
CAS: 13191-36-1
Molecular weight: 254
Origin: NIST Mass Spectrometry Data Center
m/z	RELATIVE INTENSITY
12	140
13	20
14	20
15	60
17	10
18	80
24	70
25	360
26	470
27	60
30	10
32	520
33	30
34	40
36	340
37	1651
38	1281
39	1181
40	50
44	591
45	2482
46	190
47	721
48	550
49	911
50	2482
51	3463
52	871
53	50
56	250
57	1071
58	310
60	160
61	561
62	490
63	390
64	50
68	641
69	4014
70	2132
71	561
72	110
79	811
80	460
81	1742
82	350
83	130
84	10
88	450
89	330
90	20
91	210
92	340
93	1251
94	400
95	2492
96	8468
97	701
98	410
99	30
103	40
104	240
105	120
106	220
107	110
111	50
113	60
115	40
116	160
117	240
118	150
119	200
123	841
125	811
126	30
127	160
128	270
129	210
130	120
131	701
133	611
134	40
135	120
136	80
137	150
138	80
139	10
147	120
149	150
150	40
151	50
152	20
159	60
160	100
161	80
162	90
163	20
171	20
172	10
173	120
175	8658
176	1211
177	8538
178	571
179	360
197	50
199	20
209	20
211	30
251	20
253	831
254	5215
255	2062
256	9999
257	1411
258	5025
259	400
260	240
