Mass Spectrum: 3,5-Dibromo-4-methylaniline
Formula: C7 H7 Br2 N
CAS: 13194-73-5
Molecular weight: 263
Origin: NIST Mass Spectrometry Data Center
m/z	RELATIVE INTENSITY
12	20
13	20
14	60
15	170
16	10
17	40
18	60
25	100
26	440
27	901
28	1611
29	90
30	180
36	60
37	540
38	921
39	921
40	300
41	701
42	240
43	50
44	20
45	50
48	50
49	430
50	2602
51	5045
52	4914
54	641
55	60
60	110
61	701
62	1291
63	1161
64	200
65	400
66	190
73	330
74	941
75	1231
76	1651
77	3323
78	2863
79	721
80	310
81	330
82	140
83	60
84	50
85	140
86	200
87	180
88	160
89	210
90	150
92	761
93	601
95	30
99	80
100	100
102	430
103	621
104	4734
105	3914
106	410
107	110
108	40
116	40
117	100
118	40
119	70
120	20
128	30
129	30
130	140
131	120
132	370
133	100
141	30
142	20
143	70
155	100
156	180
157	300
158	260
159	250
160	90
167	30
169	40
182	240
183	731
184	5115
185	1131
186	4604
187	430
237	30
238	20
259	10
260	10
262	1882
263	5225
264	4074
265	9999
266	2522
267	4944
268	400
