Mass Spectrum: 2-Amino-5-iodotoluene
Formula: C7 H8 I N
CAS: 13194-68-8
Molecular weight: 233
Origin: NIST Mass Spectrometry Data Center, 1990.
m/z	RELATIVE INTENSITY
14	16
15	40
17	20
18	24
25	14
26	86
27	324
28	702
29	83
30	266
32	2
36	17
37	152
38	341
39	759
40	115
41	257
42	150
43	16
44	10
48	12
49	107
50	658
51	985
52	906
53	493
54	322
55	48
60	16
61	128
62	253
63	550
64	196
65	263
66	179
67	56
68	20
72	12
73	69
74	240
75	163
76	330
77	2694
78	1182
79	2580
80	272
81	33
85	26
86	49
87	42
88	29
89	271
90	47
91	70
92	10
100	18
102	38
104	928
105	996
106	4917
107	385
108	16
116	294
127	371
128	43
152	14
165	11
176	10
216	12
229	11
230	33
232	894
233	9999
234	749
235	29
