Mass Spectrum: 9Z,11E-Tetradecadien-1-yl acetate, adduct with 4-methyl-1,2,4-triazolin-3,5-dione
Formula: C19 H31 N3 O4
CAS: 131916-26-2
Molecular weight: 365
Origin: D.Young ET AL.J.Chrom.,522,295(1990)
m/z	RELATIVE INTENSITY
41	571
42	90
43	801
45	100
49	40
51	50
52	80
53	190
54	70
55	561
57	120
58	60
60	40
61	90
63	50
65	120
66	130
67	751
68	170
69	330
71	150
72	60
73	160
75	70
77	200
78	100
79	350
80	440
81	410
82	1031
83	120
87	50
88	90
89	40
91	150
92	90
93	240
94	300
95	450
97	150
98	90
99	40
100	50
105	80
107	180
108	200
109	310
110	160
111	60
112	90
115	50
116	460
120	90
121	210
122	120
124	50
127	50
128	140
130	30
133	50
134	60
135	180
136	80
137	1982
138	170
140	30
142	50
144	40
147	70
149	30
150	50
152	110
153	50
154	110
156	130
161	270
163	60
164	50
165	310
166	500
167	160
168	40
169	60
171	30
172	60
176	50
177	80
178	410
179	70
180	160
185	30
188	70
189	30
191	70
192	120
193	210
194	9999
195	1271
196	120
204	30
207	40
208	120
209	210
210	60
212	60
218	40
219	200
220	70
221	70
225	50
229	50
231	40
234	90
237	150
239	50
241	30
243	30
245	50
247	50
248	40
250	591
251	200
252	70
257	40
262	40
263	70
264	200
265	90
268	20
270	80
273	50
274	50
276	420
277	130
278	50
279	50
284	50
287	60
290	40
291	90
293	100
294	941
295	220
296	60
298	50
300	50
304	80
305	200
306	100
307	50
308	60
309	60
316	60
320	40
322	190
323	190
324	80
325	80
328	50
332	60
335	120
336	2442
337	460
338	100
350	50
365	1541
366	460
367	110
