Mass Spectrum: 2-Naphthalenecarboxamide, 3-hydroxy-N-1-naphthalenyl-
Formula: C21 H15 N O2
CAS: 132-68-3
Molecular weight: 313
Origin: NIST Mass Spectrometry Data Center, 1994
m/z	RELATIVE INTENSITY
18	3
38	17
39	126
44	14
50	41
51	94
52	32
53	27
58	18
62	100
63	302
64	63
65	190
66	18
71	39
74	48
75	106
76	41
77	80
86	51
87	105
88	219
89	495
90	63
99	17
100	22
101	50
102	23
103	25
113	370
114	877
115	4101
116	595
117	76
119	19
120	17
126	89
127	124
128	34
133	32
140	148
143	9999
144	1163
145	61
149	16
157	52
170	475
171	3329
172	374
173	35
185	18
187	47
189	23
226	39
239	25
264	21
265	26
266	26
267	29
313	983
314	237
315	32
