Mass Spectrum: 9H-Carbazol-3-amine, 9-ethyl-
Formula: C14 H14 N2
CAS: 132-32-1
Molecular weight: 210
Origin: NIST Mass Spectrometry Data Center, 1998.
m/z	RELATIVE INTENSITY
26	20
27	190
29	270
30	10
37	10
38	30
39	110
40	10
41	40
42	20
50	100
51	230
52	180
53	60
54	90
55	10
57	10
61	20
62	90
63	260
64	100
65	80
66	30
67	10
69	50
70	50
73	10
74	140
75	290
76	220
77	460
78	110
79	50
80	10
82	40
83	210
85	10
86	60
87	100
88	80
89	140
90	190
91	280
93	10
97	200
99	80
100	120
101	320
102	210
103	130
104	110
105	490
110	20
111	30
112	30
113	120
114	120
115	220
116	80
117	40
118	10
122	10
123	10
124	20
125	160
126	420
127	1390
128	680
129	130
130	60
131	20
137	50
138	60
139	320
140	410
141	210
142	60
143	20
149	10
150	70
151	460
152	500
153	770
154	930
155	200
156	20
162	10
163	20
164	130
165	80
166	380
167	1130
168	320
169	40
176	20
177	90
178	480
179	440
180	240
181	2920
182	530
183	40
190	30
191	50
192	150
193	210
194	360
195	9999
196	1490
197	100
205	20
206	30
207	50
208	90
209	770
210	6869
211	1110
212	80
