Mass Spectrum: Dibenzothiophene
Formula: C12 H8 S
CAS: 132-65-0
Molecular weight: 184
Origin: Tox21 Consortium/NIST Mass Spectrometry Data Center, 2012
m/z	RELATIVE INTENSITY
27	10
37	10
38	30
39	80
45	60
49	10
50	90
51	90
52	10
55	10
57	20
58	30
59	10
61	60
62	130
63	230
64	30
65	40
66	50
67	10
69	270
70	50
71	30
73	20
74	180
75	160
76	70
77	40
78	40
79	540
81	50
82	100
83	20
84	20
85	50
86	120
87	160
88	80
89	170
90	40
91	260
92	931
93	190
94	20
95	30
97	10
98	100
99	60
100	20
101	50
102	30
105	30
106	40
107	10
108	50
109	30
110	50
111	40
112	20
113	260
114	190
115	140
116	20
117	50
118	10
119	30
120	10
121	20
122	20
123	10
124	10
125	30
126	70
127	20
129	10
130	10
131	10
132	30
133	10
134	100
135	10
136	10
137	140
138	270
139	1972
140	320
141	30
143	10
145	80
146	10
149	20
150	180
151	260
152	1161
153	140
154	10
156	20
157	30
158	210
159	20
160	10
169	20
181	20
182	190
183	611
184	9999
185	1541
186	601
187	70
188	10
