Mass Spectrum: Chlorphenamine
Formula: C16 H19 Cl N2
CAS: 132-22-9
Molecular weight: 274
Origin: NIST Mass Spectrometry Data Center
m/z	RELATIVE INTENSITY
15	50
18	20
26	10
27	70
28	120
29	110
30	380
38	20
39	140
40	20
41	80
42	1101
43	330
44	250
45	20
50	120
51	400
52	190
53	60
54	30
55	30
56	430
57	240
58	6536
59	270
61	10
62	50
63	190
64	40
65	100
66	20
67	10
68	10
70	100
71	220
72	1812
73	110
74	50
75	170
76	70
77	210
78	410
79	150
80	50
81	10
82	20
83	70
85	10
86	20
87	50
88	50
89	200
90	80
91	80
92	40
93	140
94	10
96	10
97	20
98	10
99	50
100	20
101	110
102	110
103	200
104	80
105	10
106	50
111	30
112	30
113	70
114	100
115	240
116	100
117	200
118	150
119	30
121	30
123	20
125	180
126	50
127	100
128	50
129	10
130	20
131	10
136	20
137	50
138	160
139	310
140	230
141	80
142	10
143	20
149	40
150	20
151	70
152	130
153	50
154	50
162	10
163	10
164	70
165	110
166	561
167	2632
168	1341
169	160
170	10
173	10
174	10
175	10
177	20
178	90
179	60
180	400
181	230
182	40
190	10
191	70
192	80
193	100
194	60
195	10
200	20
201	340
202	2522
203	9999
204	2372
205	3914
206	520
207	30
214	190
215	40
216	290
217	40
218	70
219	10
221	10
227	20
228	60
229	20
230	200
231	30
232	50
274	10
