Mass Spectrum: D-Brompheniramine
Formula: C16 H19 Br N2
CAS: 132-21-8
Molecular weight: 318
Origin: MI-0151
m/z	RELATIVE INTENSITY
35	10
36	220
37	10
38	140
39	510
40	190
41	440
42	2082
43	681
44	971
45	410
46	80
49	20
50	210
51	621
52	410
53	220
54	180
55	270
56	711
57	601
58	9999
59	540
60	10
61	20
62	180
63	350
64	180
65	200
66	70
67	180
68	140
69	110
70	280
71	430
72	3924
73	280
74	80
75	270
76	180
77	470
78	561
79	380
80	190
81	140
82	190
83	90
84	280
85	120
86	1882
87	190
88	110
89	350
90	240
91	360
92	120
93	250
94	170
95	90
96	140
97	110
98	110
99	390
100	230
101	160
102	200
103	290
104	180
105	110
106	110
111	60
112	100
113	180
114	200
115	490
116	190
117	230
118	280
119	100
126	80
127	110
128	130
129	90
130	10
137	60
138	110
139	490
140	370
141	140
142	70
143	100
144	110
145	150
146	20
147	30
148	10
149	80
150	30
151	140
152	190
153	120
154	180
155	10
162	80
163	110
164	200
165	240
166	601
167	3393
168	2202
169	601
170	60
171	80
172	10
177	70
178	150
179	180
180	631
181	360
182	170
183	10
184	50
185	10
189	80
190	160
191	430
192	440
193	631
194	270
195	130
196	10
202	30
203	120
204	40
205	120
206	10
245	100
246	1341
247	7387
248	2242
249	7887
250	1181
251	180
252	30
258	80
260	240
261	90
262	180
263	10
270	30
271	480
272	190
273	510
274	330
275	160
276	230
277	100
278	10
300	10
301	110
302	40
303	100
318	30
320	40
