Mass Spectrum: 1-Naphthaleneacetonitrile
Formula: C12 H9 N
CAS: 132-75-2
Molecular weight: 167
Origin: Japan AIST/NIMC Database- Spectrum MS-NW-4443
m/z	RELATIVE INTENSITY
26	20
27	60
37	40
38	70
39	249
40	20
41	10
49	20
50	229
51	289
52	70
53	10
55	30
56	30
57	90
61	99
62	229
63	469
64	80
65	90
68	20
69	459
70	349
71	40
73	30
74	249
75	279
76	139
77	209
78	30
82	189
83	409
84	60
85	50
86	129
87	189
88	139
89	219
90	30
91	30
97	10
98	80
99	70
100	50
101	129
102	60
109	10
110	30
111	40
112	30
113	239
114	159
115	549
116	80
122	10
125	20
126	249
127	299
128	129
129	20
137	99
138	169
139	1769
140	1789
141	599
142	70
150	10
151	10
152	20
153	10
163	10
164	279
165	169
166	5349
167	9999
168	1299
169	80
