Mass Spectrum: Benzenemethanol, 2-amino-.alpha.-phenyl-
Formula: C13 H13 N O
CAS: 13209-38-6
Molecular weight: 199
Origin: NIST Mass Spectrometry Data Center, 1994
m/z	RELATIVE INTENSITY
15	29
17	28
18	42
26	51
27	264
28	219
29	169
30	42
37	47
38	177
39	828
40	123
41	185
42	105
47	21
50	539
51	1331
52	452
53	195
54	101
55	23
61	42
62	138
63	425
64	251
65	1201
66	526
67	100
68	26
70	20
71	23
73	28
74	161
75	209
76	471
77	2203
78	456
79	401
80	53
83	22
84	75
86	63
87	62
88	44
89	212
90	258
91	163
92	643
93	729
94	687
95	49
98	38
99	44
100	43
101	42
102	86
103	53
104	102
105	410
106	63
107	57
113	37
114	30
115	142
116	33
117	36
120	477
121	74
122	262
123	29
126	87
127	119
128	109
129	29
130	28
139	80
140	58
141	39
143	19
150	67
151	215
152	620
153	267
154	98
155	26
163	52
164	48
165	179
166	93
167	152
168	82
169	26
170	60
177	41
178	185
180	9999
181	1737
182	234
183	74
196	70
197	36
199	1197
200	167
