Mass Spectrum: Borane carbonyl
Formula: C H3 B O
CAS: 13205-44-2
Molecular weight: 42
Origin: CCC 0002
m/z	RELATIVE INTENSITY
10	1031
11	5225
12	6726
13	6546
14	160
15	230
16	110
20	170
21	100
22	591
23	2312
24	4054
25	2412
26	4154
27	3974
28	2152
29	811
30	50
39	2162
40	9999
41	6826
42	3603
43	310
44	30
45	10
