Mass Spectrum: 2,3-Dibromonaphthalene
Formula: C10 H6 Br2
CAS: 13214-70-5
Molecular weight: 284
Origin: J.E. WILKINSON S-CUBED, SAN DIEGO, CA.
m/z	RELATIVE INTENSITY
48	1
49	320
50	2583
51	1061
52	227
53	2
55	34
56	1
57	23
60	7
61	884
62	1536
63	3893
64	6
69	71
71	4
72	3
73	476
74	2866
75	1901
76	1564
79	296
80	17
81	296
82	17
83	3
84	34
85	315
86	787
87	1085
88	52
89	12
90	4
91	5
93	7
95	7
96	4
97	150
98	1326
99	1192
100	592
101	28
102	206
103	320
106	3
109	5
110	13
111	40
116	12
118	13
119	8
120	11
121	41
122	213
123	49
124	73
125	985
126	9999
127	1043
128	59
129	17
130	52
131	27
140	2
141	8
142	305
143	683
144	287
152	8
153	1
154	9
155	2
157	1
158	4
160	21
161	4
162	5
165	4
167	6
196	2
198	2
204	83
205	1481
206	250
207	1447
208	105
240	15
242	20
284	3551
285	349
286	6759
287	704
288	3367
289	299
290	1
