Mass Spectrum: 1-Hexanol, 3-methyl-
Formula: C7 H16 O
CAS: 13231-81-7
Molecular weight: 116
m/z	RELATIVE INTENSITY
14	20
15	180
16	20
26	170
27	2442
28	1201
29	2692
30	90
31	2813
32	160
33	30
37	40
38	100
39	1882
40	410
41	6216
42	2772
43	9999
44	591
45	561
46	150
47	10
49	10
50	80
51	110
52	30
53	380
54	270
55	9338
56	6856
57	1892
58	80
59	110
60	10
61	10
62	10
63	10
65	40
66	10
67	180
68	240
69	4834
70	6836
71	951
72	70
73	671
74	440
77	10
79	20
80	10
81	60
82	20
83	1421
84	110
85	120
86	10
87	10
91	10
95	10
96	10
97	80
98	300
99	20
