Mass Spectrum: Benzenamine, 2-chloro-4-(methylsulfonyl)-
Formula: C7 H8 Cl N O2 S
CAS: 13244-35-4
Molecular weight: 205
Origin: MASS SPECTROMETRY CENTER, UNIV. OF UTAH ALDRICH 17987-6
m/z	RELATIVE INTENSITY
15	1731
27	284
28	554
29	42
36	54
37	311
38	720
39	1353
40	204
41	1065
42	101
44	25
45	343
48	120
49	118
50	300
51	739
52	2213
53	307
54	174
61	531
62	1313
63	4987
64	1363
65	900
66	198
69	199
72	48
73	1007
74	333
75	583
76	38
78	239
79	346
80	152
81	90
89	183
90	612
91	9999
92	1703
95	37
97	192
98	118
99	2330
100	268
101	718
106	53
114	951
115	102
116	304
125	265
126	6027
127	532
128	1895
129	101
140	57
142	8119
143	574
144	2594
145	111
174	528
176	193
190	7854
191	589
192	2888
193	193
205	8008
206	781
207	2923
208	250
209	41
