Mass Spectrum: 3-Thiophenamine, tetrahydro-N-methyl-N-nitroso-, 1,1-dioxide
Formula: C5 H10 N2 O3 S
CAS: 13256-21-8
Molecular weight: 178
Origin: J.E. WILKINSON S-CUBED, SAN DIEGO, CA.
m/z	RELATIVE INTENSITY
42	9999
43	633
44	851
45	115
46	10
47	8
48	1638
49	48
50	186
51	202
52	182
53	727
54	1035
55	3493
56	2932
57	1610
58	94
59	101
60	1
61	1
64	3311
65	56
66	164
67	21
68	660
69	133
70	291
71	30
72	6
77	11
78	51
79	72
80	763
81	1089
82	689
83	96
84	76
86	3357
87	88
89	23
94	8
97	33
108	4
114	543
115	1
119	623
120	21
133	3
148	153
178	110
