Mass Spectrum: 2-Heptanol, 2,6-dimethyl-
Formula: C9 H20 O
CAS: 13254-34-7
Molecular weight: 144
Origin: W.Jennings, T.Shibamoto
m/z	RELATIVE INTENSITY
29	370
31	1181
41	1381
42	190
43	3293
44	80
45	591
55	1782
56	891
57	681
58	771
59	9999
60	771
69	4014
70	490
71	390
83	80
85	70
96	90
111	681
129	681
