Mass Spectrum: 4-(2-Aminoethyl)pyridine
Formula: C7 H10 N2
CAS: 13258-63-4
Molecular weight: 122
Origin: Japan AIST/NIMC Database- Spectrum MS-IW-4776
m/z	RELATIVE INTENSITY
15	30
16	30
17	50
18	80
26	90
27	199
28	609
29	109
30	3999
31	60
32	10
37	60
38	149
39	749
40	179
41	169
42	129
43	50
44	20
45	90
49	30
50	229
51	509
52	319
53	129
54	159
55	10
56	10
60	10
61	30
62	70
63	199
64	109
65	659
66	739
67	359
68	30
74	20
75	30
76	50
77	159
78	359
79	109
80	30
90	10
91	50
92	909
93	9999
94	899
95	30
98	10
104	269
105	569
106	109
107	119
108	10
119	50
120	30
121	119
122	10
123	30
