Mass Spectrum: 2-Pentenenitrile
Formula: C5 H7 N
CAS: 13284-42-9
Molecular weight: 81
Origin: Japan AIST/NIMC Database- Spectrum MS-NW-2968
m/z	RELATIVE INTENSITY
12	20
13	10
14	50
15	299
24	10
25	50
26	869
27	2029
28	3159
29	369
30	10
36	40
37	479
38	729
39	3719
40	519
41	5359
42	269
43	20
44	20
48	20
49	119
50	469
51	739
52	1169
53	1779
54	9999
55	589
56	20
57	10
61	20
62	30
63	99
64	509
65	169
66	1609
67	80
74	10
75	99
76	90
77	20
78	70
79	70
80	1579
81	3589
82	199
83	10
