Mass Spectrum: Ethanol, 2-[(4-nitrophenyl)thio]-
Formula: C8 H9 N O3 S
CAS: 13287-76-8
Molecular weight: 199
Origin: NIST Mass Spectrometry Data Center, 1994
m/z	RELATIVE INTENSITY
4	22
14	77
15	312
16	48
17	40
18	83
19	354
26	163
27	938
28	459
29	919
30	1589
31	1395
32	67
37	120
38	432
39	865
40	73
42	158
43	794
44	406
45	3976
46	689
47	401
48	75
49	67
50	1737
51	970
52	199
53	328
55	46
57	266
58	669
59	234
60	84
61	185
62	544
63	1624
64	375
65	2054
66	454
67	59
68	46
69	2228
70	476
71	314
73	111
74	725
75	702
76	888
77	1132
78	1885
79	367
80	110
81	419
82	1112
83	262
84	248
87	43
89	208
90	198
91	353
92	181
93	450
94	307
95	329
96	708
97	863
98	163
99	68
104	35
105	139
106	186
107	281
108	1024
109	1540
110	930
111	280
112	59
121	6730
122	6681
123	1140
124	525
125	1139
126	91
127	66
134	256
135	162
136	411
137	532
138	537
139	891
140	114
141	45
151	828
152	1092
153	350
154	45
155	6147
156	1226
157	372
158	77
168	8132
169	1657
170	508
171	90
181	159
182	54
183	206
197	49
199	9999
200	988
201	558
202	54
