Mass Spectrum: Tridecane, 6-methyl-
Formula: C14 H30
CAS: 13287-21-3
Molecular weight: 198
Origin: D.HENNEBERG, MAX-PLANCK INSTITUTE, MULHEIM, WEST GERMANY
m/z	RELATIVE INTENSITY
25	3
26	34
27	492
28	31
29	1245
30	26
33	10
37	6
38	3
39	287
40	50
41	2073
42	483
43	4895
44	69
50	11
51	1
53	115
54	104
55	1306
56	1291
57	9999
58	424
65	5
67	96
68	91
69	787
70	778
71	3678
72	198
77	18
78	5
79	22
81	70
82	109
83	344
84	222
85	1893
86	115
95	233
96	93
97	408
98	1130
99	392
100	11
109	7
110	14
111	190
112	72
113	102
125	35
126	532
127	340
128	18
140	39
141	23
154	16
155	19
168	7
169	22
183	29
