Mass Spectrum: 2-Methyl-3-acetyl-quinoxaline 1,4-dioxide
Formula: C11 H10 N2 O3
CAS: 13297-17-1
Molecular weight: 218
Origin: ASES Database, Dalian Institute, P.R. China
m/z	RELATIVE INTENSITY
75	1251
76	1911
77	1221
78	490
89	570
90	2502
102	3903
103	1171
104	650
105	2141
106	3823
107	980
115	480
116	840
117	480
129	2492
130	830
131	1321
142	1321
143	9748
144	3573
145	480
158	2071
159	2232
160	240
183	890
184	8187
185	3152
186	2061
201	8737
202	4133
203	410
218	9999
219	1321
