Mass Spectrum: DL-Tartaric acid
Formula: C4 H6 O6
CAS: 133-37-9
Molecular weight: 150
Origin: Japan AIST/NIMC Database- Spectrum MS-NW-5031
m/z	RELATIVE INTENSITY
12	20
13	50
14	209
15	729
16	50
17	159
18	659
19	169
24	10
25	40
26	119
27	70
28	699
29	2899
30	1479
31	2149
32	90
34	10
36	10
40	30
41	149
42	1169
43	1109
44	949
45	1169
46	129
47	169
48	10
49	279
52	10
53	50
54	20
55	10
56	30
57	20
58	3209
59	1979
60	559
61	349
62	10
63	10
64	10
68	10
69	709
70	2259
71	439
72	40
73	10
75	169
76	9999
77	1719
78	99
79	10
80	30
81	10
82	30
86	10
87	239
88	1139
89	90
90	10
93	20
98	20
104	20
105	1969
106	80
107	20
128	10
132	30
149	10
151	10
