Mass Spectrum: Trichlormethiazide
Formula: C8 H8 Cl3 N3 O4 S2
CAS: 133-67-5
Molecular weight: 379
Origin: Japan AIST/NIMC Database- Spectrum MS-IW-2153
m/z	RELATIVE INTENSITY
16	40
26	10
27	60
28	20
29	10
30	20
32	10
35	119
36	129
37	50
38	41
39	50
40	20
41	40
42	30
43	10
44	60
45	30
46	20
47	40
48	249
49	99
50	80
51	80
52	229
53	50
54	10
55	10
60	20
61	139
62	349
63	279
64	679
65	90
66	40
68	10
69	60
70	10
71	10
72	30
73	129
74	209
75	179
76	209
77	99
78	149
79	50
80	90
81	20
82	20
83	199
84	40
85	159
86	50
87	80
88	209
89	199
90	259
91	40
92	10
93	50
94	30
95	30
96	40
97	369
98	99
99	159
100	80
101	40
102	40
103	30
104	10
105	109
106	70
107	30
108	60
109	139
110	80
111	99
112	229
113	109
114	199
115	60
116	60
117	399
118	50
119	10
120	30
121	20
122	30
123	80
124	389
125	399
126	209
127	139
128	40
129	90
130	50
131	30
132	50
133	50
134	30
135	20
136	40
137	40
138	50
139	80
140	219
141	90
142	199
143	50
144	80
145	30
146	20
147	10
148	20
149	30
150	30
151	80
152	249
153	80
154	119
155	70
156	119
157	129
158	139
159	50
160	80
161	20
162	20
163	40
164	60
165	60
166	30
167	40
168	30
169	20
170	50
171	30
172	60
173	70
174	30
175	20
176	10
178	10
179	20
180	20
181	40
182	30
183	20
184	40
185	40
186	20
187	40
188	219
189	90
190	119
191	30
192	20
197	20
198	20
199	40
200	40
201	30
202	20
203	40
204	149
205	939
206	159
207	339
208	40
209	20
215	479
216	589
217	389
218	239
219	90
220	20
221	629
222	60
223	229
224	20
225	10
231	299
232	80
233	139
234	40
235	20
236	30
238	10
243	20
244	10
245	20
246	10
247	10
248	20
249	10
250	10
251	30
252	20
253	60
254	10
255	20
261	10
263	50
264	70
268	149
269	359
270	90
271	159
272	20
273	10
278	10
279	399
280	99
281	179
282	50
283	20
284	10
285	129
286	10
287	50
288	10
296	9999
297	1089
298	4189
299	449
300	389
301	40
302	20
307	40
309	20
315	20
316	10
317	30
319	10
330	10
332	10
343	10
345	20
347	10
363	30
365	40
367	10
379	229
380	30
381	239
382	30
383	90
384	10
385	10
