Mass Spectrum: Benzenesulfonyl chloride, 2-methyl-
Formula: C7 H7 Cl O2 S
CAS: 133-59-5
Molecular weight: 190
m/z	RELATIVE INTENSITY
39	1667
40	64
41	385
43	64
44	64
45	385
48	278
49	43
50	427
51	791
52	278
53	21
61	43
62	363
63	1261
64	641
65	2842
66	171
69	85
73	43
74	64
75	128
76	43
77	556
78	171
79	128
85	85
86	85
87	85
88	128
89	1154
90	2179
91	9999
92	1175
93	150
99	43
106	171
107	43
108	21
109	641
110	128
111	107
136	107
137	919
138	128
139	214
140	85
141	107
154	192
155	3675
156	385
157	214
190	2222
191	171
192	812
