Mass Spectrum: Benzene, [(2-methylpropyl)thio]-
Formula: C10 H14 S
CAS: 13307-61-4
Molecular weight: 166
Origin: J.E.DOOLEY ENERGY RES. CENTRE, BARTLESVILLE, OKLA., USA
m/z	RELATIVE INTENSITY
25	13
26	228
27	2098
28	203
29	2481
30	57
32	23
33	14
34	20
35	7
36	6
37	124
38	349
39	2830
40	220
41	2658
42	231
43	447
44	26
45	3103
46	233
47	254
48	18
49	46
50	644
51	1700
52	187
53	185
54	25
55	445
56	99
57	2452
58	256
59	176
60	27
61	48
62	98
63	273
64	55
65	1375
66	612
67	42
68	33
69	790
70	74
71	176
72	32
73	118
74	164
75	138
76	124
77	1365
78	371
79	389
80	30
81	95
82	203
83	117
84	248
85	30
86	15
87	29
88	8
89	51
90	23
91	348
92	33
93	28
94	6
95	27
96	8
97	61
98	5
99	4
102	9
103	25
104	16
105	33
106	13
107	23
108	277
109	1585
110	9999
111	849
112	461
113	33
114	5
115	51
116	26
117	34
118	9
119	5
120	3
121	132
122	38
123	6121
124	874
125	316
126	38
127	5
128	7
129	5
130	3
131	5
132	3
133	5
134	43
135	70
136	15
137	170
138	17
139	9
145	4
147	19
148	7
149	49
150	9
151	71
152	23
153	5
161	3
163	4
164	4
165	49
166	6264
167	733
168	314
169	32
170	2
