Mass Spectrum: .alpha.,.alpha.,.alpha.,6-Tetrafluoro-o-tolunitrile
Formula: C8 H3 F4 N
CAS: 133116-83-3
Molecular weight: 189
Origin: NIST Mass Spectrometry Data Center
m/z	RELATIVE INTENSITY
12	10
14	50
17	10
18	30
25	20
26	100
28	320
31	911
32	130
33	20
36	40
37	320
38	240
39	200
40	20
44	50
45	30
46	40
48	30
49	210
50	921
51	360
52	50
55	50
56	200
57	290
58	20
59	20
60	60
61	310
62	270
63	240
64	80
68	480
69	2212
70	140
71	30
72	40
73	160
74	430
75	1261
76	290
77	20
79	80
80	100
81	130
82	130
85	230
86	100
87	200
88	420
89	80
92	200
93	771
94	430
98	70
99	651
100	1381
101	140
103	20
104	40
105	50
106	70
108	10
110	10
111	60
112	400
113	140
117	120
118	130
119	330
120	791
121	70
123	80
124	80
125	120
126	20
130	20
136	10
137	50
139	5255
140	400
141	30
142	50
143	480
144	961
145	70
150	230
151	20
157	10
161	80
162	230
163	380
164	20
168	130
170	5655
171	520
172	10
188	2262
189	9999
190	901
191	30
