Mass Spectrum: N-[2-Amino-4-(trifluoromethyl)phenyl]pyrrolidine
Formula: C11 H13 F3 N2
CAS: 133184-80-2
Molecular weight: 230
Origin: NIST Mass Spectrometry Data Center, 1994
m/z	RELATIVE INTENSITY
15	233
17	99
18	174
20	84
26	181
27	1266
28	801
29	84
30	494
37	96
38	291
39	1476
40	354
41	1709
42	860
43	1014
44	16
46	82
50	324
51	619
52	771
53	387
54	302
55	132
56	302
57	264
61	46
62	166
63	769
64	441
65	363
66	168
67	187
68	256
69	612
70	2077
71	149
72	50
75	597
76	366
77	416
78	409
79	108
80	160
81	117
82	96
83	450
84	336
85	33
87	50
88	155
89	165
90	305
91	332
92	98
93	183
94	148
95	213
96	144
97	95
98	127
99	92
100	186
101	314
102	133
103	106
104	152
105	251
106	111
107	126
108	124
109	132
110	105
111	140
112	92
113	918
114	378
115	277
116	109
117	171
118	444
119	157
120	543
121	87
122	60
124	57
125	114
126	268
127	389
128	166
129	103
130	73
131	226
132	823
133	697
134	147
135	39
136	76
137	45
138	42
139	153
140	1119
141	186
142	260
143	257
144	124
145	520
146	126
147	77
148	235
152	53
153	74
154	95
155	94
157	52
158	104
159	162
160	1137
161	427
162	130
164	37
165	51
166	142
167	1288
168	329
169	98
170	36
171	36
172	570
173	88
174	816
175	244
176	122
180	68
181	373
182	73
184	60
185	336
187	9999
188	1017
189	367
192	50
198	105
199	390
200	492
201	2636
202	703
203	78
211	971
212	925
213	319
214	96
225	70
226	90
227	103
228	70
229	3035
230	5319
231	629
232	30
