Mass Spectrum: Trichloroacetic acid, propyl ester
Formula: C5 H7 Cl3 O2
CAS: 13313-91-2
Molecular weight: 204
Origin: V.G.Zaikin, Petrochem. Synth. Inst., Moscow
m/z	RELATIVE INTENSITY
26	250
27	2252
28	210
29	390
30	80
31	130
35	240
36	190
37	80
38	130
39	791
40	150
41	3093
42	681
43	9999
44	250
47	731
49	270
57	90
59	90
82	781
83	120
84	490
85	80
86	120
87	20
110	360
111	50
112	290
113	20
117	711
118	100
119	711
120	90
121	220
122	30
145	90
147	90
149	30
169	140
170	20
171	80
172	20
173	30
