Mass Spectrum: 3-(Methylthio)propanoic acid ethyl ester
Formula: C6 H12 O2 S
CAS: 13327-56-5
Molecular weight: 148
Origin: J. MADSEN,DEP. ORG. CHEM.,TECH. UNIV. DENMARK,LYNGBY,DENMARK
m/z	RELATIVE INTENSITY
26	280
27	2350
28	500
29	3250
30	190
35	470
40	740
41	1420
42	190
43	690
44	260
45	2070
46	790
47	1760
48	720
49	530
55	930
56	230
58	230
59	680
60	390
61	8720
62	300
63	470
71	930
73	1300
74	9999
75	4370
76	690
77	1140
87	790
89	370
101	260
102	690
103	2650
105	260
119	470
133	280
148	6860
149	480
150	350
