Mass Spectrum: Methyl 2-chloro-4-nitrobenzoate
Formula: C8 H6 Cl N O4
CAS: 13324-11-3
Molecular weight: 215
Origin: NIST Mass Spectrometry Data Center, 1994
m/z	RELATIVE INTENSITY
14	190
15	1920
16	45
18	48
26	55
27	60
28	249
29	821
30	1632
31	129
32	1
35	39
36	82
37	447
38	351
39	238
45	39
46	391
47	39
48	31
49	280
50	969
51	226
52	58
53	264
55	32
59	735
60	134
61	316
62	493
63	1254
64	139
65	95
66	36
72	177
73	891
74	3732
75	5205
76	616
77	377
78	94
79	146
84	694
85	109
86	294
87	165
88	77
89	140
90	65
91	249
92	49
93	48
97	116
98	213
99	128
100	74
101	58
103	297
104	72
105	46
107	124
108	141
109	901
110	2228
111	590
112	761
113	116
114	47
119	753
120	82
124	23
126	2475
127	203
128	753
129	113
134	58
137	911
138	3177
139	555
140	1095
141	125
149	54
153	427
154	1311
155	260
156	441
157	113
159	37
168	259
169	220
170	125
171	93
180	83
184	9999
185	932
186	3250
187	319
188	43
198	656
199	111
200	238
201	32
215	2812
216	310
217	895
218	109
