Mass Spectrum: 4-Amino-1-butanol
Formula: C4 H11 N O
CAS: 13325-10-5
Molecular weight: 89
Origin: NIST Mass Spectrometry Data Center, 1990.
m/z	RELATIVE INTENSITY
13	9
14	14
15	104
16	19
17	63
18	431
19	34
25	16
26	105
27	450
28	966
29	715
30	9999
31	765
32	14
33	6
36	7
37	40
38	76
39	286
40	114
41	512
42	221
43	461
44	315
45	1335
46	2
48	17
50	15
51	24
52	25
53	55
54	36
59	130
68	28
69	22
70	34
73	8
74	14
88	13
89	79
