Mass Spectrum: 4-Iodoacetophenone
Formula: C8 H7 I O
CAS: 13329-40-3
Molecular weight: 246
Origin: NIST Mass Spectrometry Data Center, 1990.
m/z	RELATIVE INTENSITY
13	20
14	100
15	371
16	6
17	10
18	40
25	15
26	51
27	86
28	242
29	19
31	15
32	48
36	26
37	189
38	284
39	213
40	16
41	41
42	197
43	1955
44	63
45	6
49	251
50	2816
51	573
52	33
53	63
60	27
61	140
62	243
63	296
64	84
65	139
66	11
72	27
73	299
74	1343
75	1003
76	3393
77	509
78	28
84	17
85	51
86	64
87	42
88	41
89	324
90	192
91	236
92	18
97	11
98	32
101	45
104	1091
105	100
109	33
115	114
118	18
127	493
128	38
139	9
151	6
152	35
153	13
164	12
165	11
176	26
177	22
200	10
203	3617
204	268
217	32
227	10
231	9999
232	775
233	48
244	11
246	4954
247	449
248	29
