Mass Spectrum: Phenol, 2,6-dimethyl-4-nitroso-
Formula: C8 H9 N O2
CAS: 13331-93-6
Molecular weight: 151
Origin: James Little,Eastman Chem.Co.,Kingsport,TN
m/z	RELATIVE INTENSITY
26	400
27	1201
28	3003
38	701
39	3403
40	1301
41	1101
43	701
51	1902
52	701
53	801
63	400
65	801
66	1702
67	701
77	2002
78	801
79	1902
80	1101
91	1301
92	500
93	500
94	1001
104	400
106	801
107	1101
108	1401
116	601
120	500
121	801
122	1101
123	500
134	3203
135	2002
136	701
137	901
138	200
151	9999
152	1201
153	200
