Mass Spectrum: 2,4(1H,3H)-Pyrimidinedione, 6-phenyl-
Formula: C10 H8 N2 O2
CAS: 13345-09-0
Molecular weight: 188
Origin: Japan AIST/NIMC Database- Spectrum MS-IW-6957
m/z	RELATIVE INTENSITY
14	10
16	10
17	99
18	509
25	20
26	199
27	689
28	1899
29	30
36	10
37	70
38	129
39	339
40	199
41	159
42	729
43	169
44	369
45	20
49	50
50	609
51	969
52	299
53	30
54	10
55	10
56	10
57	70
58	139
59	30
60	10
61	70
62	159
63	389
64	119
65	70
66	70
67	60
68	679
69	40
70	60
71	60
72	10
73	60
74	239
75	309
76	1049
77	1779
78	399
79	30
80	239
85	40
86	30
87	70
88	109
89	599
90	379
91	60
92	10
93	20
94	20
97	10
98	30
99	60
100	169
101	129
102	469
103	2249
104	5649
105	659
106	30
114	70
115	319
116	529
117	1259
118	159
119	30
120	30
124	10
126	20
127	789
128	199
129	219
130	189
131	30
132	50
141	40
142	529
143	99
144	179
145	4789
146	899
147	119
148	10
152	40
153	10
154	40
155	10
156	10
158	10
159	20
160	129
161	10
169	20
170	1549
171	209
172	40
186	10
187	629
188	9999
189	1229
190	109
