Mass Spectrum: 1-(2-Furyl)-3-(2-thienyl)-2-propen-1-one
Formula: C11 H8 O2 S
CAS: 13343-95-8
Molecular weight: 204
Origin: NIST Mass Spectrometry Data Center, 1994
m/z	RELATIVE INTENSITY
26	212
27	86
28	34
29	485
33	34
37	477
38	1460
39	8828
40	329
41	72
42	64
44	63
45	951
46	46
47	65
49	97
50	559
51	660
52	115
53	555
54	81
55	271
56	46
57	724
58	297
60	60
61	266
62	718
63	1824
64	677
65	3649
66	305
68	65
69	527
70	84
71	75
72	38
73	343
74	395
75	190
76	89
77	476
78	124
79	57
80	33
81	274
82	395
83	1230
84	213
85	98
86	70
87	98
88	206
89	160
90	57
91	97
92	678
93	468
94	62
95	94
96	70
97	141
98	48
102	142
103	283
104	56
108	392
109	108
111	9999
112	678
113	528
114	95
115	1360
116	155
118	59
119	53
120	278
121	2038
122	497
123	83
131	258
132	72
134	97
135	93
136	82
143	51
144	46
145	75
146	46
147	3170
148	790
149	231
150	2259
151	216
152	127
158	52
159	70
160	97
161	49
163	232
164	30
171	63
175	552
176	985
177	180
178	56
187	89
203	639
204	6751
205	788
206	372
207	55
