Mass Spectrum: 4-Decen-6-yne, (E)-
Formula: C10 H16
CAS: 13343-77-6
Molecular weight: 136
Origin: D.HENNEBERG, MAX-PLANCK INSTITUTE, MULHEIM, WEST GERMANY
m/z	RELATIVE INTENSITY
23	15
25	24
26	142
27	1799
28	275
29	2454
30	53
31	140
33	30
34	19
35	16
36	6
37	72
38	147
39	2176
40	295
41	2253
42	278
43	533
44	275
45	56
46	41
47	31
48	21
49	30
50	350
51	1184
52	689
53	890
54	159
55	1199
56	113
57	158
59	44
60	22
61	52
62	128
63	476
64	166
65	2519
66	642
67	937
68	634
69	112
70	22
71	78
72	9
73	14
74	87
75	355
76	99
77	2651
78	767
79	9999
80	933
81	339
82	40
83	12
84	22
86	34
87	26
88	13
89	121
90	71
91	3773
92	722
93	1939
94	1613
95	192
102	25
103	184
104	62
105	785
106	117
107	1542
108	233
109	17
115	88
116	30
117	72
118	3
119	85
120	17
121	160
122	27
127	14
128	33
129	22
130	30
131	8
132	26
134	90
135	33
136	2862
137	345
138	20
