Mass Spectrum: 2-(2-Pyridyl-2-vinyl)pyridine, trans
Formula: C12 H10 N2
CAS: 13341-40-7
Molecular weight: 182
Origin: V.A.KOPTYUG, ATLAS OF MASS SPECTRA OF ORGANIC COMPOUNDS
m/z	RELATIVE INTENSITY
50	560
51	1790
52	1210
62	110
63	450
64	260
65	120
75	200
76	390
77	1380
78	2590
79	890
80	120
90	590
91	1310
101	140
102	160
103	140
104	2830
105	230
126	130
127	450
128	260
129	170
130	130
152	160
153	210
154	1030
155	250
179	380
180	380
181	9999
182	5109
183	600
