Mass Spectrum: Butane, 1-(2-methoxyethoxy)-
Formula: C7 H16 O2
CAS: 13343-98-1
Molecular weight: 132
m/z	RELATIVE INTENSITY
15	550
16	10
17	20
18	90
19	20
26	70
27	721
28	591
29	3163
30	100
31	1051
32	60
33	140
38	10
39	360
40	50
41	2793
42	230
43	571
44	280
45	3413
46	100
47	100
50	10
51	20
53	50
54	20
55	380
56	621
57	9999
58	601
59	2682
60	1291
61	190
62	10
69	30
70	10
71	330
72	250
73	110
74	20
75	70
76	40
77	410
78	10
82	10
85	70
87	1341
88	80
89	731
90	30
91	10
100	651
101	50
102	10
103	20
104	10
132	80
133	20
