Mass Spectrum: 2H-Inden-2-one, octahydro-3a-methyl-, cis-
Formula: C10 H16 O
CAS: 13351-29-6
Molecular weight: 152
Origin: CARL DJERASSI DEPT OF CHEM STANFORD UNIV STANFORD CALIF 94305
m/z	RELATIVE INTENSITY
37	100
38	400
39	7200
40	1600
41	9000
42	2100
43	1200
50	400
51	1100
52	500
53	3200
54	2800
55	4400
56	2600
57	600
63	200
65	600
66	500
67	6000
68	4100
69	2700
70	1600
71	100
77	700
78	100
79	1200
80	400
81	5200
82	3700
83	500
84	100
91	300
93	600
94	4500
95	9999
96	3000
97	400
108	1600
109	5800
110	1400
119	200
123	400
124	600
137	1100
152	7600
153	800
