Mass Spectrum: 1H-Benzotriazole, 1-methyl-
Formula: C7 H7 N3
CAS: 13351-73-0
Molecular weight: 133
Origin: A. MARQUESTIAU
m/z	RELATIVE INTENSITY
26	190
27	1000
28	1510
37	410
38	700
39	1300
40	180
41	220
42	410
43	150
44	410
50	840
51	920
52	620
53	180
55	280
61	240
62	430
63	2030
64	1730
65	350
66	570
74	320
75	240
76	350
77	2570
78	1300
79	460
88	120
90	4460
91	410
92	140
103	410
104	1890
105	8380
106	680
133	9999
134	860
