Mass Spectrum: Chlorbromuron
Formula: C9 H10 Br Cl N2 O2
CAS: 13360-45-7
Molecular weight: 292
Origin: CATALOGUE OF MASS SPECTRA OF PESTICIDES, APRIL, 1975; J. FREUDENTHAL & L. G. GRAMBERG, NAT'L INST. OF PUBLIC HEALTH, THE NETHERLANDS
m/z	RELATIVE INTENSITY
11	202
13	233
14	266
30	116
33	123
45	542
46	2050
60	571
61	9999
62	339
63	434
73	181
75	133
90	169
97	112
98	173
110	191
124	370
125	325
127	112
177	251
179	289
204	359
206	607
208	203
231	228
233	338
292	582
294	924
296	246
