Mass Spectrum: Quinoline, 4,8-dimethyl-
Formula: C11 H11 N
CAS: 13362-80-6
Molecular weight: 157
m/z	RELATIVE INTENSITY
62	320
63	720
64	280
65	400
74	240
75	280
76	280
77	1040
78	320
89	320
102	320
103	240
115	520
116	280
127	400
128	800
129	480
130	400
131	280
141	400
142	1280
143	280
155	400
156	2720
157	9999
158	1120
