Mass Spectrum: 1-Pentadecene
Formula: C15 H30
CAS: 13360-61-7
Molecular weight: 210
Origin: CONTINENTAL OIL CO., PONCA CITY, OKLA, USA
m/z	RELATIVE INTENSITY
26	171
27	3730
28	735
29	5705
30	134
36	10
37	41
38	85
39	2772
40	502
41	9999
42	2404
43	9230
44	344
45	13
50	51
51	131
52	96
53	945
54	1624
55	8384
56	5256
57	6577
58	293
59	11
62	15
63	31
64	16
65	143
66	144
67	1470
68	1389
69	6282
70	4999
71	2918
72	159
73	12
75	17
77	179
78	65
79	255
80	95
81	792
82	1624
83	6371
84	3585
85	1705
86	119
87	13
89	15
91	77
92	25
93	43
94	39
95	280
96	660
97	4832
98	1935
99	248
100	19
101	11
103	13
105	23
106	13
107	17
108	17
109	96
110	297
111	1910
112	1076
113	137
114	14
115	13
117	14
119	12
120	9
123	37
124	140
125	666
126	641
127	83
128	11
133	10
137	19
138	77
139	200
140	379
141	55
151	11
152	43
153	85
154	191
155	31
165	9
166	29
167	52
168	172
169	29
179	9
180	16
181	31
182	238
183	37
193	6
195	9
207	9
208	30
209	14
210	941
211	165
212	17
