Mass Spectrum: Acetic acid, cyano-, 2-ethylhexyl ester
Formula: C11 H19 N O2
CAS: 13361-34-7
Molecular weight: 197
Origin: NIST Mass Spectrometry Data Center
m/z	RELATIVE INTENSITY
13	50
14	70
15	140
16	10
27	3583
28	921
29	4774
30	200
32	10
39	2512
40	2342
41	8728
42	1952
43	4204
44	230
50	50
51	150
52	100
53	631
55	5245
56	2602
57	9999
58	480
62	10
63	10
65	80
68	3453
69	1461
70	4584
71	871
72	110
73	40
77	30
79	60
80	20
81	110
82	380
83	1772
84	731
85	90
86	220
87	20
88	10
93	10
94	20
95	40
96	90
97	230
98	130
99	230
100	30
101	20
102	10
108	10
109	30
110	160
111	190
112	310
113	100
114	80
115	40
116	20
122	10
124	30
125	10
126	150
127	50
128	30
129	10
136	20
137	10
138	40
139	60
140	180
141	40
142	20
154	160
155	30
168	190
169	60
182	30
