Mass Spectrum: 1-Butanamine, N-ethyl-
Formula: C6 H15 N
CAS: 13360-63-9
Molecular weight: 101
Origin: Japan AIST/NIMC Database- Spectrum MS-NW-3270
m/z	RELATIVE INTENSITY
15	99
26	50
27	499
28	509
29	769
30	3289
31	50
32	30
38	10
39	179
40	30
41	399
42	269
43	149
44	959
45	60
46	10
51	10
52	10
53	20
54	30
55	90
56	259
57	259
58	9999
59	369
68	20
70	50
71	40
72	50
84	60
86	239
87	10
98	10
100	209
101	899
102	60
