Mass Spectrum: Pyrazine, 2-ethyl-5-methyl-
Formula: C7 H10 N2
CAS: 13360-64-0
Molecular weight: 122
Origin: Philip Morris R&D
m/z	RELATIVE INTENSITY
36	21
37	151
38	430
39	2757
40	804
41	363
42	1048
43	40
44	2
46	9
47	60
49	11
50	171
51	349
52	641
53	789
54	935
55	117
56	1880
57	71
60	49
61	3
63	26
64	124
65	89
66	340
67	228
68	122
69	11
75	10
76	24
77	17
78	48
79	52
80	351
81	73
82	5
92	16
93	420
94	1346
95	263
96	39
97	1
104	2
105	15
106	22
107	344
108	17
119	21
120	49
121	9999
122	6745
123	555
124	23
