Mass Spectrum: N-(4-Bromophenyl)maleimide
Formula: C10 H6 Br N O2
CAS: 13380-67-1
Molecular weight: 251
Origin: NIST Mass Spectrometry Data Center, 1994
m/z	RELATIVE INTENSITY
13	74
25	307
26	4722
27	149
28	42
37	880
38	1109
39	1545
40	226
41	152
42	80
45	80
49	147
50	1143
51	472
52	422
53	1162
54	6240
55	301
58	124
60	69
61	556
62	1194
63	3231
64	1409
65	178
72	116
73	151
74	493
75	665
76	442
79	78
80	237
81	107
82	1237
83	73
86	595
87	193
88	427
89	720
90	2844
91	256
92	47
93	150
99	63
100	69
101	58
102	605
103	73
106	66
114	71
115	154
116	2883
117	391
118	143
119	153
127	41
128	120
143	111
144	742
145	122
155	280
157	254
168	57
169	528
170	143
171	504
172	971
173	144
181	1516
182	536
183	1475
184	526
194	69
195	278
196	99
197	724
198	69
199	431
206	105
207	1327
208	237
209	1213
210	112
222	205
223	312
224	232
225	307
251	9999
252	1140
253	9851
254	1115
255	57
256	1
