Mass Spectrum: Phenyl methylphosphonofluoridate
Formula: C7 H8 F O2 P
CAS: 133826-40-1
Molecular weight: 174
Origin: VERIFIN - Methodology B1-1979
m/z	RELATIVE INTENSITY
28	100
36	90
38	200
39	900
40	70
41	70
47	300
50	600
51	600
52	70
53	90
54	100
55	60
61	50
62	100
63	400
64	200
65	900
66	300
67	100
74	200
75	200
76	600
77	1201
78	100
79	300
81	500
82	50
90	300
91	9999
92	900
93	100
94	1000
95	80
99	800
107	300
108	50
146	100
158	50
159	80
173	30
174	4504
175	300
