Mass Spectrum: 2-Cyclohexen-1-one, 4,4,6-trimethyl-
Formula: C9 H14 O
CAS: 13395-73-8
Molecular weight: 138
m/z	RELATIVE INTENSITY
41	2602
42	400
43	300
50	200
51	601
52	300
53	1501
54	601
55	1001
56	100
63	200
65	400
66	200
67	2502
68	1001
69	500
77	500
78	100
79	500
80	100
81	2402
82	3503
83	300
91	200
93	100
95	2502
96	9999
97	701
109	100
110	901
111	100
123	1001
124	100
138	3503
139	300
