Mass Spectrum: Benzaldehyde, 4-hydroxy-3,5-dimethoxy-
Formula: C9 H10 O4
CAS: 134-96-3
Molecular weight: 182
Origin: Japan AIST/NIMC Database- Spectrum MS-NW-2525
m/z	RELATIVE INTENSITY
14	40
15	369
18	20
25	20
26	60
27	159
28	279
29	439
30	20
31	80
36	10
37	139
38	369
39	1159
40	239
41	169
42	60
43	189
45	20
49	109
50	519
51	949
52	339
53	539
54	70
55	269
56	10
57	30
59	30
60	10
61	80
62	149
63	189
64	50
65	1209
66	279
67	589
68	589
69	109
70	10
71	109
73	10
74	20
75	20
76	10
77	239
78	189
79	859
80	159
81	459
82	199
83	129
85	80
90	10
91	90
92	30
93	1179
94	109
95	379
96	1119
97	99
104	20
105	30
106	40
107	249
108	329
109	269
110	289
111	1719
112	109
113	10
119	50
120	50
121	259
122	109
123	309
124	109
125	199
126	20
133	10
134	40
135	349
136	279
137	139
138	249
139	1269
140	99
141	10
149	20
150	20
151	179
152	80
153	439
154	129
155	10
163	10
165	109
166	50
167	1549
168	139
169	20
179	10
180	40
181	5059
182	9999
183	1039
184	129
