Mass Spectrum: Acetamide, N-(2,3-dimethylphenyl)-
Formula: C10 H13 N O
CAS: 134-98-5
Molecular weight: 163
Origin: A.A.Kutin, Moscow, Russia
m/z	RELATIVE INTENSITY
37	68
38	238
39	1315
40	233
41	519
42	640
43	4138
44	85
49	21
50	377
51	944
52	585
53	512
54	205
55	33
59	36
60	7
61	46
62	164
63	468
64	189
65	911
66	225
67	111
68	48
69	1
73	14
74	98
75	109
76	174
77	2189
78	758
79	536
80	238
81	62
82	9
83	15
84	2
86	20
87	25
88	19
89	204
90	125
91	1746
92	346
93	410
94	138
95	35
96	24
97	1
99	1
100	3
101	22
102	180
103	614
104	541
106	7918
107	716
108	31
109	3
111	44
112	5
115	15
116	71
117	204
118	653
119	387
120	4279
121	9999
122	1036
123	50
124	23
126	3
128	3
129	1
130	26
131	21
132	78
133	28
134	53
137	5
138	4
139	7
140	3
144	20
145	14
146	74
147	57
148	333
149	34
150	3
154	3
160	8
161	5
163	4994
164	586
165	43
166	3
