Mass Spectrum: Phenmetrazine
Formula: C11 H15 N O
CAS: 134-49-6
Molecular weight: 177
Origin: Tox21 Consortium/NIST Mass Spectrometry Data Center, 2012
m/z	RELATIVE INTENSITY
15	50
18	40
26	30
27	210
28	1291
29	180
30	140
31	10
37	10
38	50
39	310
40	60
41	280
42	4784
43	3453
44	581
45	20
49	10
50	250
51	761
52	230
53	70
54	140
55	80
56	4634
57	240
58	40
61	10
62	80
63	280
64	80
65	230
66	30
67	10
68	80
69	100
70	581
71	9999
72	500
73	20
74	70
75	70
76	110
77	1411
78	340
79	260
80	20
85	10
86	20
87	20
89	380
90	180
91	721
92	80
93	10
98	10
99	10
101	10
102	70
103	160
104	70
105	1051
106	150
107	30
113	10
114	10
115	500
116	130
117	671
118	210
119	60
120	10
128	10
129	10
130	60
131	20
132	30
133	20
134	10
143	10
144	40
145	10
146	10
161	10
162	10
174	10
175	10
176	20
177	881
178	110
179	10
