Mass Spectrum: Ethanedione, diphenyl-
Formula: C14 H10 O2
CAS: 134-81-6
Molecular weight: 210
Origin: TEXAS A&M UNIVERSITY, COLLEGE STATION, TEXAS, USA
m/z	RELATIVE INTENSITY
26	30
27	139
28	26
29	9
37	91
38	126
39	174
40	9
41	22
43	22
49	100
50	1000
51	2391
52	122
53	52
55	22
57	17
60	13
61	70
62	78
63	61
73	78
74	348
75	196
76	230
77	5217
78	391
79	26
85	22
86	30
87	22
104	22
105	9999
106	783
107	61
117	30
119	17
149	13
150	13
151	17
152	39
153	17
163	9
165	13
181	17
210	391
211	65
212	13
