Mass Spectrum: Methanone, (4-methylphenyl)phenyl-
Formula: C14 H12 O
CAS: 134-84-9
Molecular weight: 196
Origin: Japan AIST/NIMC Database- Spectrum MS-NW-6294
m/z	RELATIVE INTENSITY
26	20
27	129
28	90
29	10
37	20
38	80
39	599
40	50
41	189
43	10
44	40
49	10
50	329
51	1059
52	90
53	30
57	10
61	30
62	119
63	399
64	109
65	1339
66	70
69	20
70	10
71	20
73	10
74	119
75	109
76	179
77	2399
78	159
81	10
82	60
83	119
84	239
85	20
86	40
87	40
88	30
89	339
90	219
91	3019
92	239
97	10
98	20
99	10
101	10
102	20
104	20
105	2989
106	239
107	10
113	20
115	80
118	50
119	9999
120	919
121	50
126	20
127	20
128	30
139	50
140	10
141	20
150	20
151	50
152	209
153	90
154	10
163	30
164	30
165	259
166	70
167	179
168	99
169	10
178	20
179	10
180	10
181	809
182	129
183	10
194	30
195	219
196	6099
197	949
198	80
