Mass Spectrum: 2-Trimethylsilyl-1,3-dithiane
Formula: C7 H16 S2 Si
CAS: 13411-42-2
Molecular weight: 192
Origin: NIST Mass Spectrometry Data Center
m/z	RELATIVE INTENSITY
14	30
15	280
17	10
18	40
26	100
27	540
28	370
29	591
30	50
31	480
32	30
33	20
34	10
35	20
37	10
39	801
40	130
41	1131
42	380
43	1742
44	510
45	4024
46	540
47	470
48	20
49	10
53	290
54	50
55	260
56	40
57	220
58	671
59	1762
60	270
61	380
62	40
63	70
64	40
65	20
66	20
67	50
68	10
69	30
70	40
71	160
73	8968
74	841
75	1551
76	240
77	410
78	60
79	30
83	20
85	561
87	9999
88	571
89	530
90	240
91	611
92	70
93	50
95	10
97	30
101	30
102	30
103	180
104	40
105	130
106	30
107	70
108	30
109	90
110	10
111	10
115	350
116	40
117	200
119	1641
120	110
121	180
122	20
123	10
131	90
132	20
133	70
135	200
136	30
137	20
145	10
149	911
150	110
151	110
152	10
164	20
177	90
178	10
192	891
193	120
194	110
195	10
