Mass Spectrum: 2-Propanol, 1-(2-methoxypropoxy)-
Formula: C7 H16 O3
CAS: 13429-07-7
Molecular weight: 148
m/z	RELATIVE INTENSITY
15	198
16	7
17	17
18	56
19	36
26	21
27	199
28	147
29	685
30	30
31	1024
32	32
33	174
35	36
37	20
39	170
40	43
41	705
42	659
43	668
44	65
45	1052
46	27
47	10
53	5
55	70
56	17
57	196
58	595
59	9999
60	346
61	41
63	7
69	8
71	78
72	202
73	969
74	51
75	98
77	11
79	5
80	8
81	6
82	10
83	23
85	8
87	7
88	11
89	84
90	6
91	26
95	4
97	10
99	4
101	78
102	7
103	324
104	548
105	40
106	4
110	6
115	12
116	11
117	8
129	4
130	21
131	5
133	8
