Mass Spectrum: Furan, tetrahydro-3-methyl-
Formula: C5 H10 O
CAS: 13423-15-9
Molecular weight: 86
Origin: Japan AIST/NIMC Database- Spectrum MS-NW-7687
m/z	RELATIVE INTENSITY
14	30
15	139
18	10
26	189
27	1069
28	1319
29	1439
30	109
31	209
37	40
38	99
39	1159
40	379
41	6769
42	429
43	419
44	469
45	239
47	10
49	10
50	70
51	90
52	30
53	179
54	139
55	1219
56	9999
57	679
58	99
59	20
60	20
65	10
67	70
68	10
69	40
70	10
71	809
72	60
83	20
84	10
85	469
86	2029
87	119
