Mass Spectrum: 2-Ethoxytetrahydrofuran
Formula: C6 H12 O2
CAS: 13436-46-9
Molecular weight: 116
Origin: Japan AIST/NIMC Database- Spectrum MS-IW-1251
m/z	RELATIVE INTENSITY
14	20
15	90
17	10
18	10
26	90
27	779
28	289
29	979
30	169
31	849
32	10
37	20
38	40
39	589
40	309
41	2139
42	3209
43	2929
44	219
45	629
46	129
47	2759
48	30
49	10
50	10
53	20
55	40
56	20
57	949
58	1349
59	99
60	40
61	20
68	20
69	509
70	609
71	9999
72	529
73	50
74	10
75	1159
76	40
85	30
86	99
87	509
88	50
89	10
101	90
115	1449
116	409
117	40
