Mass Spectrum: Hydrazinecarbothioamide, N-ethyl-
Formula: C3 H9 N3 S
CAS: 13431-34-0
Molecular weight: 119
Origin: MASS SPECTROMETRY CENTER, UNIV. OF UTAH; ALDRICH E04930-4
m/z	RELATIVE INTENSITY
12	28
13	64
14	16
15	1162
16	279
26	867
27	5754
28	592
29	9140
30	2255
31	4544
32	9278
33	924
34	378
35	113
36	5
38	144
39	50
40	395
41	622
42	2223
43	3526
44	8046
45	1666
46	626
47	536
48	792
52	102
53	171
54	169
55	641
56	297
57	195
58	700
59	2323
60	9999
61	1553
62	1080
63	34
69	1452
70	177
71	378
72	322
73	65
74	571
75	1006
76	584
86	538
87	312
88	3568
89	334
90	200
102	1559
103	548
104	310
119	9968
120	1131
121	922
