Mass Spectrum: Silanediamine, 1,1-dimethyl-N,N'-diphenyl-
Formula: C14 H18 N2 Si
CAS: 13435-09-1
Molecular weight: 242
Origin: RADIAN CORP
m/z	RELATIVE INTENSITY
15	50
26	130
27	310
29	20
30	60
34	10
37	240
38	710
39	2100
40	660
41	720
42	200
43	50
45	30
46	90
47	370
49	40
50	460
51	510
52	670
53	200
54	540
55	20
61	130
62	290
63	640
64	370
65	2200
66	4160
67	560
68	20
73	50
74	130
75	70
76	110
77	130
78	210
88	10
89	20
90	30
91	160
92	1240
93	9999
94	810
95	10
