Mass Spectrum: N-(3-Methylbutyl)acetamide
Formula: C7 H15 N O
CAS: 13434-12-3
Molecular weight: 129
Origin: NIST Mass Spectrometry Data Center, 1994
m/z	RELATIVE INTENSITY
15	1765
17	84
18	534
26	191
27	1650
28	1931
29	1331
30	9999
31	385
32	57
37	41
39	1230
40	312
41	2088
42	1579
43	7304
44	3689
45	602
50	64
51	76
52	62
53	164
54	140
55	1131
56	370
57	126
58	141
59	62
60	1925
61	51
67	45
68	45
69	75
70	426
71	45
72	3720
73	4644
74	183
84	32
86	1375
87	182
114	695
115	58
129	285
130	36
