Mass Spectrum: Pentane, 1-(1-ethoxyethoxy)-
Formula: C9 H20 O2
CAS: 13442-89-2
Molecular weight: 160
Origin: J.Little, Eastman Chem. Comp.,Kingsport
m/z	RELATIVE INTENSITY
14	80
15	150
16	150
26	100
27	1171
29	2072
31	561
41	1391
42	851
43	4634
44	550
45	7477
47	691
55	721
56	70
59	80
61	150
69	140
70	290
71	2913
73	9999
74	370
75	2002
89	50
99	80
103	40
115	1231
116	50
145	1321
