Mass Spectrum: n-Pentyl methylphosphonofluoridate
Formula: C6 H14 F O2 P
CAS: 13454-59-6
Molecular weight: 168
Origin: VERIFIN - Methodology B1-1979
m/z	RELATIVE INTENSITY
26	60
27	400
28	100
29	300
36	100
39	300
40	80
41	800
42	1000
43	400
47	200
53	100
55	1000
56	70
57	70
67	90
69	60
70	500
71	60
79	100
81	700
82	400
83	60
98	80
99	9999
100	100
111	200
112	100
125	200
139	100
167	80
