Mass Spectrum: Pyrazophos
Formula: C14 H20 N3 O5 P S
CAS: 13457-18-6
Molecular weight: 373
Origin: NIST Mass Spectrometry Data Center, 1998.
m/z	RELATIVE INTENSITY
15	30
25	10
26	80
27	600
28	180
29	1710
30	50
31	30
35	10
37	10
38	50
39	310
40	70
41	120
42	100
43	180
44	30
45	230
46	20
47	140
48	20
49	10
50	110
51	400
52	610
53	690
54	80
55	50
56	20
57	10
58	10
59	30
60	50
61	60
62	20
63	160
64	300
65	970
66	350
67	370
68	350
69	170
70	50
71	40
72	10
73	10
74	10
75	10
76	40
77	50
78	90
79	140
80	110
81	270
82	70
83	50
84	100
85	40
86	10
87	10
88	10
89	20
90	100
91	440
92	220
93	510
94	180
95	60
96	90
97	1710
98	50
99	90
100	10
102	10
103	30
104	80
105	60
106	80
107	60
108	60
109	290
110	180
111	40
112	20
113	140
114	40
115	30
116	10
117	20
118	60
119	260
120	130
121	290
122	70
123	50
124	30
125	300
126	30
127	20
128	10
129	10
130	40
131	50
132	40
133	60
134	60
135	40
136	110
137	140
138	290
139	60
140	10
141	60
142	20
143	10
144	10
145	10
146	110
147	120
148	230
149	520
150	140
151	50
152	30
153	70
154	10
155	10
156	30
157	10
158	20
159	270
160	120
161	110
162	60
163	90
164	140
165	180
166	200
167	60
168	10
169	20
172	10
174	30
175	320
176	1120
177	540
178	120
179	160
180	90
181	360
182	280
183	110
184	30
185	30
186	60
187	10
188	10
190	60
191	100
192	340
193	1180
194	230
195	80
196	60
197	10
198	10
202	30
203	60
204	750
205	280
206	160
207	90
208	120
209	240
210	430
211	110
212	80
213	30
214	10
218	10
221	9999
222	1670
223	190
224	370
225	40
226	30
227	40
228	20
229	10
230	20
231	610
232	3410
233	570
234	130
235	20
236	90
237	1820
238	290
239	130
240	240
241	30
242	10
243	40
244	20
245	10
248	240
249	40
250	20
251	10
252	520
253	70
254	70
255	10
256	30
257	10
259	10
260	20
263	20
264	80
265	900
266	140
267	80
268	710
269	90
270	20
271	20
272	60
273	10
274	20
282	10
283	20
284	90
285	20
287	10
288	20
296	20
298	10
299	30
300	200
301	30
302	20
312	20
316	100
317	130
318	20
319	10
328	420
329	80
330	30
340	10
344	50
345	240
346	30
347	20
358	20
373	1410
374	250
375	100
376	10
