Mass Spectrum: 3-Carene
Formula: C10 H16
CAS: 13466-78-9
Molecular weight: 136
Origin: RESEARCH LABORATORY, STATE ALCOHOL MONOPOLY ALKO, HELSINKI, FINLAND; IRMA NYKANEN ET AL
m/z	RELATIVE INTENSITY
27	137
29	103
39	586
40	68
41	793
43	689
44	310
50	103
51	413
52	172
53	551
54	103
55	413
56	137
63	172
65	689
66	103
67	724
68	206
69	103
77	3172
78	620
79	3206
80	2137
81	448
91	5000
92	3034
93	9999
94	1517
95	172
103	275
104	68
105	1517
106	379
107	931
108	206
109	34
115	103
116	34
117	137
119	517
120	137
121	2413
122	275
134	68
136	1517
137	206
