Mass Spectrum: Iron pentacarbonyl
Formula: C5 Fe O5
CAS: 13463-40-6
Molecular weight: 196
Origin: B.R.CONARD, J. ROY GORDON RES. LAB., MISSISSAUGA, ONT., CANAta
m/z	RELATIVE INTENSITY
40	403
41	32
42	247
54	334
56	4997
57	140
66	43
68	704
69	39
70	224
71	4
72	124
73	3
78	4
80	15
81	2
82	528
84	9999
85	342
94	5
96	79
97	4
110	158
112	2497
113	115
122	1
124	8
125	1
138	70
140	1186
141	61
166	92
168	1536
169	101
194	33
196	532
197	11
