Mass Spectrum: Hexachlorodisilane
Formula: Cl6 Si2
CAS: 13465-77-5
Molecular weight: 266
Origin: Chuck Anderson, Aldrich Chemical Co.
m/z	RELATIVE INTENSITY
28	432
29	31
30	20
32	13
35	265
36	114
37	97
38	46
47	65
56	93
63	7070
64	391
65	2676
66	142
67	104
82	35
85	92
91	91
93	38
98	9999
99	508
100	7120
101	372
102	1350
103	68
104	41
107	15
117	129
119	86
120	14
121	15
126	66
128	50
133	9544
134	445
135	9494
136	457
137	3181
138	151
139	391
140	16
196	47
198	63
200	35
231	366
232	25
233	621
234	53
235	422
236	37
237	144
239	26
247	5
249	19
251	9
266	174
267	16
268	350
269	30
270	293
271	25
272	130
274	34
