Mass Spectrum: Nickel tetracarbonyl
Formula: C4 Ni O4
CAS: 13463-39-3
Molecular weight: 170
Origin: GRC 0029
m/z	RELATIVE INTENSITY
12	70
14	40
15	10
16	20
17	10
18	20
26	10
27	10
28	9999
29	120
30	20
32	10
40	30
43	10
44	150
57	10
58	80
60	30
62	10
70	10
86	40
88	20
114	10
116	10
142	10
144	10
170	10
