Mass Spectrum: 9-Ethynyl-9-fluorenol
Formula: C15 H10 O
CAS: 13461-74-0
Molecular weight: 206
Origin: NIST Mass Spectrometry Data Center, 1994
m/z	RELATIVE INTENSITY
13	79
17	135
18	143
24	79
25	222
26	431
37	140
38	574
39	1609
40	78
50	1750
51	1541
52	284
53	623
55	89
61	443
62	1475
63	2701
64	213
65	123
68	149
73	19
74	1200
75	2516
76	4157
77	704
78	111
82	687
85	330
86	1207
87	1769
88	3222
89	1541
94	1447
97	106
98	1025
99	732
100	284
101	305
102	432
103	376
109	163
110	544
111	518
112	121
113	408
114	89
115	183
121	48
122	318
123	190
124	117
125	274
126	700
127	268
128	118
133	54
134	128
135	154
136	56
137	291
138	147
139	451
149	300
150	1894
151	2302
152	3196
153	488
154	43
161	335
162	415
163	976
164	159
165	59
174	349
175	514
176	3660
177	2265
178	9999
179	1524
180	855
181	154
185	217
186	471
187	2504
188	1732
189	7502
190	1207
191	111
205	2615
206	5706
207	910
208	80
