Mass Spectrum: Phosphoryl fluoride
Formula: F3 O P
CAS: 13478-20-1
Molecular weight: 104
m/z	RELATIVE INTENSITY
16	30
31	260
32	40
36	30
47	220
50	410
66	70
69	1692
85	8538
88	230
104	9999
