Mass Spectrum: Heptane, 2,2,4,6,6-pentamethyl-
Formula: C12 H26
CAS: 13475-82-6
Molecular weight: 170
m/z	RELATIVE INTENSITY
27	400
28	200
29	1241
39	440
41	2622
43	1221
55	671
56	4984
57	9999
58	400
69	220
71	671
83	130
85	490
97	40
98	40
99	470
100	90
112	671
113	270
155	220
170	130
