Mass Spectrum: Hexane, 2,2,3,3-tetramethyl-
Formula: C10 H22
CAS: 13475-81-5
Molecular weight: 142
Origin: SHELL OIL CO., HOUSTON, TEXAS, USA
m/z	RELATIVE INTENSITY
39	2096
40	322
41	5343
42	416
43	8868
44	291
45	5
50	56
51	143
52	60
53	425
54	78
55	1326
56	1821
57	9999
58	455
59	7
61	2
62	8
63	27
64	6
65	68
66	22
67	167
68	32
69	1079
70	74
71	1555
72	85
73	3
79	35
80	7
81	46
82	17
83	583
84	2035
85	4675
86	296
87	9
90	1
91	17
92	4
95	10
96	3
97	23
98	90
99	1163
100	89
101	3
127	94
128	9
129	1
