Mass Spectrum: Eicosane, 9-octyl-
Formula: C28 H58
CAS: 13475-77-9
Molecular weight: 394
m/z	RELATIVE INTENSITY
36	10
37	20
38	20
39	400
40	100
41	3954
42	1011
43	9999
44	330
45	10
49	10
50	10
51	20
52	10
53	150
54	350
55	3483
56	1611
57	9889
58	440
59	10
61	10
62	10
63	10
64	10
65	20
66	20
67	370
68	320
69	2032
70	1001
71	6156
72	340
73	10
74	10
75	10
76	10
77	20
78	10
79	40
80	20
81	200
82	260
83	1451
84	510
85	4444
86	290
87	10
91	10
92	10
93	10
94	10
95	100
96	150
97	961
98	290
99	1161
100	90
101	10
102	10
103	10
104	10
105	10
106	10
107	10
108	10
109	40
110	90
111	470
112	220
113	771
114	70
115	10
118	10
119	10
120	10
121	10
122	10
123	20
124	60
125	250
126	150
127	561
128	60
129	10
137	10
138	50
139	140
140	120
141	450
142	50
143	10
151	10
152	40
153	80
154	120
155	370
156	50
157	10
165	10
166	30
167	60
168	70
169	310
170	40
171	10
179	10
180	30
181	60
182	50
183	250
184	40
185	10
194	20
195	40
196	50
197	190
198	30
199	10
208	10
209	20
210	70
211	130
212	20
213	10
222	10
223	10
224	40
225	100
226	20
227	10
236	10
237	10
238	631
239	631
240	110
241	10
251	10
252	80
253	50
254	10
265	10
266	40
267	40
268	10
279	10
280	1141
281	1481
282	300
283	30
284	10
294	40
295	50
296	10
308	10
309	20
310	10
322	10
323	10
324	10
336	10
337	10
338	10
351	10
352	10
365	10
392	10
393	10
394	10
