Mass Spectrum: Furfuryl formate
Formula: C6 H6 O3
CAS: 13493-97-5
Molecular weight: 126
Origin: MASS SPECTRA OF ORGANIC COMPOUNDS, CSIRO, B.H. KENNETT ET AL
m/z	RELATIVE INTENSITY
26	900
27	4200
29	2500
30	100
31	800
37	600
38	1000
39	2600
40	200
41	1400
42	800
43	200
44	1700
45	100
46	100
49	100
50	1000
51	1400
52	3500
53	5500
54	500
56	300
68	100
69	400
70	300
79	200
80	3400
81	9999
82	1000
95	200
97	200
98	700
126	3600
127	500
