Mass Spectrum: Benzene, (1-methylpropyl)-
Formula: C10 H14
CAS: 135-98-8
Molecular weight: 134
Origin: Japan AIST/NIMC Database- Spectrum MS-NW-4626
m/z	RELATIVE INTENSITY
15	20
26	30
27	339
28	10
29	169
37	10
38	30
39	329
40	20
41	269
42	10
43	20
44	10
49	10
50	149
51	459
52	109
53	99
54	10
55	70
56	20
57	40
58	20
61	10
62	40
63	139
64	40
65	219
66	30
74	60
75	40
76	50
77	969
78	329
79	779
80	50
86	10
87	10
89	70
90	20
91	1389
92	119
101	10
102	80
103	529
104	279
105	9999
106	919
107	30
115	149
116	40
117	159
118	40
119	219
120	40
128	10
129	10
131	20
132	50
133	10
134	1799
135	199
136	10
