Mass Spectrum: Phenoxazine
Formula: C12 H9 N O
CAS: 135-67-1
Molecular weight: 183
Origin: Japan AIST/NIMC Database- Spectrum MS-NW-6870
m/z	RELATIVE INTENSITY
26	30
27	60
28	40
37	40
38	80
39	169
40	10
41	10
49	20
50	279
51	389
52	239
53	50
55	10
61	50
62	70
63	299
64	189
65	80
73	20
74	129
75	159
76	179
77	439
78	159
79	30
80	10
87	20
88	20
89	40
90	20
91	849
92	139
93	10
99	10
100	20
101	119
102	139
103	80
104	20
105	10
106	40
113	10
114	10
115	60
116	10
125	30
126	149
127	549
128	409
129	179
130	30
131	10
132	10
139	20
140	50
141	10
151	10
152	70
153	209
154	2209
155	549
156	70
157	10
165	10
180	10
181	20
182	1749
183	9999
184	1349
185	109
186	10
