Mass Spectrum: 2,6-Heptanedione
Formula: C7 H12 O2
CAS: 13505-34-5
Molecular weight: 128
Origin: James Little,Eastman Chem.Co.,Kingsport,TN
m/z	RELATIVE INTENSITY
29	220
38	310
39	1742
41	571
42	951
43	9999
44	270
53	300
54	651
55	671
58	1431
59	60
65	60
67	230
69	40
71	731
72	90
82	1621
83	110
85	380
86	40
95	300
110	540
111	40
128	80
