Mass Spectrum: Silane, (chloromethyl)ethoxydimethyl-
Formula: C5 H13 Cl O Si
CAS: 13508-53-7
Molecular weight: 152
Origin: V.G. Zaikin, TIPS RAS, Moscow, Russia
m/z	RELATIVE INTENSITY
25	50
26	140
27	520
29	360
30	50
31	571
36	250
38	90
39	90
40	50
41	130
42	220
43	1021
44	390
45	1651
46	170
47	480
48	50
49	270
50	50
51	150
52	50
53	90
54	50
55	150
56	80
57	90
58	230
59	2272
60	280
61	370
62	70
63	520
64	80
65	350
66	80
67	50
70	50
72	80
73	380
74	90
75	5685
76	460
77	320
78	270
79	1071
80	190
81	1621
82	90
83	480
87	120
88	60
89	50
91	60
93	661
94	80
95	1071
96	70
97	320
98	50
101	70
102	50
103	9999
104	891
105	460
106	70
107	530
108	60
109	480
111	150
137	450
138	50
139	130
