Mass Spectrum: O-Methoxy-.alpha.-methylbenzyl alcohol
Formula: C9 H12 O2
CAS: 13513-82-1
Molecular weight: 152
Origin: Japan AIST/NIMC Database- Spectrum MS-NW-7298
m/z	RELATIVE INTENSITY
14	10
15	90
17	10
18	50
26	20
27	159
28	109
29	99
31	60
32	10
37	40
38	139
39	579
40	90
41	99
42	30
43	1079
44	40
45	189
46	10
47	10
49	20
50	309
51	759
52	159
53	159
54	30
55	99
57	10
59	10
60	10
61	50
62	129
63	429
64	239
65	819
66	199
67	40
68	279
69	40
73	20
74	129
75	149
76	349
77	2219
78	489
79	689
80	70
81	70
82	10
83	20
84	20
85	10
86	20
87	20
88	10
89	169
90	99
91	999
92	329
93	289
94	1039
95	119
96	10
98	10
101	40
102	70
103	289
104	199
105	739
106	80
107	5219
108	609
109	2829
110	259
111	20
115	30
117	10
118	90
119	409
120	149
121	1219
122	589
123	90
124	20
129	10
130	10
131	20
132	10
133	139
134	179
135	589
136	99
137	9999
138	919
139	90
148	10
150	10
151	159
152	2669
153	319
154	30
