Mass Spectrum: 5-Amino-2,2-dimethylpentanol
Formula: C7 H17 N O
CAS: 13532-77-9
Molecular weight: 131
Origin: NIST Mass Spectrometry Data Center, 1994
m/z	RELATIVE INTENSITY
10	12
14	25
15	173
16	17
17	40
18	596
19	39
26	65
27	703
28	813
29	1116
30	9999
31	1104
32	39
37	18
39	740
41	1351
42	514
43	1107
44	349
45	450
46	23
48	148
50	30
51	73
52	30
53	199
54	18
55	2196
56	600
57	349
58	226
59	414
60	70
65	34
66	22
67	131
68	46
69	112
70	68
71	86
72	32
73	66
77	15
79	30
80	26
81	124
82	15
83	1037
84	89
85	17
86	14
95	41
96	223
97	22
98	44
99	76
100	402
101	104
111	9
113	17
114	59
116	102
131	24
