Mass Spectrum: 3-(Methylthio)propanoic acid methyl ester
Formula: C5 H10 O2 S
CAS: 13532-18-8
Molecular weight: 134
Origin: Chuck Anderson, Aldrich Chemical Co.
m/z	RELATIVE INTENSITY
12	1
13	6
14	55
15	1282
16	22
24	1
25	18
26	297
27	1770
28	865
29	650
30	93
31	232
32	46
33	92
34	50
35	833
36	14
37	61
38	27
39	237
40	24
41	2994
42	436
43	449
44	118
45	4166
46	1770
47	2786
48	572
49	696
50	31
51	41
53	50
54	17
55	1360
56	214
57	696
58	507
59	2655
60	468
61	6978
62	244
63	403
64	10
65	3
68	6
69	22
70	3
71	112
72	16
73	128
74	9061
75	3046
76	501
77	677
78	28
79	24
84	2
85	24
87	1744
88	481
89	113
90	10
91	80
92	4
93	3
100	2
101	141
102	826
103	3359
104	211
105	157
106	84
107	6
108	3
117	13
118	8
119	598
120	31
121	30
133	8
134	9999
135	650
136	533
137	28
138	4
