Mass Spectrum: Hexyl ethylphosphonofluoridate
Formula: C8 H18 F O2 P
CAS: 135445-19-1
Molecular weight: 196
Origin: VERIFIN - Methodology B1-1979
m/z	RELATIVE INTENSITY
27	100
28	80
29	300
39	200
41	700
42	500
43	500
54	70
55	600
56	700
57	90
67	100
69	300
84	200
85	200
93	50
95	200
96	80
98	100
111	100
112	200
113	9999
114	200
125	100
126	50
139	90
153	70
