Mass Spectrum: 2,3-Dimethylsuccinic acid
Formula: C6 H10 O4
CAS: 13545-04-5
Molecular weight: 146
Origin: Japan AIST/NIMC Database- Spectrum MS-NW-6346
m/z	RELATIVE INTENSITY
12	10
13	10
14	30
15	189
16	40
17	30
18	109
24	10
25	60
26	649
27	1789
28	1489
29	1039
30	50
31	60
32	20
36	10
37	129
38	239
39	1469
40	359
41	4809
42	199
43	149
44	119
45	369
46	20
47	20
49	50
50	199
51	179
52	70
53	229
54	199
55	1349
56	9999
57	559
58	20
59	90
60	10
63	10
65	10
66	99
67	10
68	40
69	289
70	10
71	10
72	20
73	279
74	819
75	30
77	10
79	30
81	10
82	90
83	139
84	40
85	189
86	10
87	529
88	30
91	10
98	10
99	10
100	649
101	99
102	80
113	20
128	169
129	50
