Mass Spectrum: Benzene, 1,2-dimethyl-4-(phenylmethyl)-
Formula: C15 H16
CAS: 13540-56-2
Molecular weight: 196
Origin: CONTINENTAL OIL CO., PONCA CITY, OKLA, USA
m/z	RELATIVE INTENSITY
14	45
15	240
26	72
27	652
28	317
29	143
37	27
38	130
39	1086
40	182
41	449
42	21
43	13
44	11
49	16
50	345
51	930
52	240
53	305
54	23
55	26
57	17
61	30
62	166
63	618
64	208
65	695
66	80
67	43
69	26
70	42
71	43
73	21
74	139
75	217
76	513
77	995
78	318
79	240
80	29
81	69
82	217
83	465
84	86
87	96
88	184
89	1043
91	1739
92	163
93	43
94	21
95	54
96	173
97	325
98	228
99	43
100	18
101	66
102	234
103	398
104	235
105	697
106	72
109	6
110	21
111	21
113	60
114	54
115	695
116	160
117	235
118	257
119	652
120	82
122	10
125	15
126	88
127	176
128	310
129	108
130	21
137	13
138	21
139	217
140	59
141	296
142	149
143	26
149	28
150	61
151	174
152	587
153	400
154	160
155	130
156	55
163	114
164	217
165	2478
166	1815
167	521
168	217
175	68
176	167
177	217
178	856
179	928
180	652
181	9999
182	1608
183	132
189	80
190	42
191	76
192	45
193	73
194	90
195	943
196	6522
197	951
198	15
