Mass Spectrum: 5-Chloro-1,3-dimethyl-4-nitropyrazole
Formula: C5 H6 Cl N3 O2
CAS: 13551-73-0
Molecular weight: 175
Origin: NIST Mass Spectrometry Data Center, 1994
m/z	RELATIVE INTENSITY
12	96
13	92
14	451
15	6470
16	56
17	43
18	172
24	42
25	114
26	594
27	353
28	1886
29	42
30	2947
35	99
36	165
37	404
38	651
39	1285
40	1076
41	488
42	1710
43	6476
44	234
45	99
46	471
47	390
48	170
49	1824
50	1636
51	3679
52	1162
53	589
54	179
55	72
56	216
60	201
61	342
62	322
63	335
64	283
65	653
66	559
67	3275
68	226
69	105
71	70
72	41
73	256
74	41
75	657
76	9999
77	788
78	3136
79	543
80	253
81	266
82	41
83	2146
84	410
85	923
86	995
87	662
88	515
89	287
90	71
91	86
92	71
93	346
94	160
99	40
100	98
101	88
102	484
103	615
104	202
105	196
110	146
115	100
116	118
117	336
118	136
119	108
123	58
128	221
129	49
130	105
144	106
145	127
146	115
147	65
158	5723
159	570
160	1957
161	144
175	4090
176	346
177	1317
178	95
