Mass Spectrum: 2-Bornanone oxime
Formula: C10 H17 N O
CAS: 13559-66-5
Molecular weight: 167
Origin: Japan AIST/NIMC Database- Spectrum MS-IW-2582
m/z	RELATIVE INTENSITY
15	119
16	40
17	109
18	319
26	70
27	1439
28	639
29	1149
30	239
31	70
32	30
37	20
38	80
39	1959
40	399
41	5119
42	1009
43	1649
44	229
45	119
46	50
50	99
51	439
52	309
53	1639
54	669
55	2679
56	499
57	699
58	529
59	359
60	40
61	20
62	30
63	109
64	80
65	749
66	629
67	2599
68	1219
69	3299
70	679
71	409
72	99
73	189
74	50
75	20
76	20
77	1219
78	319
79	2539
80	1269
81	2029
82	1789
83	1399
84	569
85	229
86	80
87	60
89	30
90	30
91	959
92	749
93	1939
94	2579
95	2169
96	1159
97	589
98	639
99	369
100	30
102	20
103	70
104	99
105	379
106	1199
107	1579
108	2239
109	1789
110	3469
111	2479
112	979
113	80
115	30
116	20
117	99
118	99
119	189
120	419
121	419
122	789
123	559
124	6399
125	1699
126	289
127	30
130	10
131	20
132	80
133	309
134	1639
135	739
136	179
137	70
138	1349
139	789
140	60
146	10
148	389
149	229
150	2509
151	359
152	2389
153	249
154	20
165	10
166	489
167	9999
168	1189
169	70
