Mass Spectrum: Benzene, (propylsulfonyl)-
Formula: C9 H12 O2 S
CAS: 13596-75-3
Molecular weight: 184
Origin: H. Luftmann, Org. Chem. Inst., Westfalisch Wilhelms Univ., Munster, Germany
m/z	RELATIVE INTENSITY
38	100
39	1900
40	200
41	5400
42	400
43	9800
44	500
45	100
50	1100
51	4500
52	400
53	100
65	400
66	300
73	100
74	200
75	200
76	200
77	7400
78	9999
79	1000
91	2300
92	600
93	100
94	1800
97	200
105	200
117	300
118	800
119	1300
120	2000
121	200
125	600
126	100
141	600
142	4200
143	1200
144	200
156	200
184	2100
185	200
