Mass Spectrum: Quinalphos
Formula: C12 H15 N2 O3 P S
CAS: 13593-03-8
Molecular weight: 298
Origin: Richard Turcotte. Direction des laboratoires d'expertises et d'analyses alimentaires, Quebec, Canada.
m/z	RELATIVE INTENSITY
50	110
51	170
52	80
59	20
60	40
61	40
62	110
63	480
64	370
65	781
66	20
74	40
75	330
76	290
77	70
78	40
79	50
80	90
81	170
82	40
83	20
88	50
89	80
90	1852
91	540
92	60
93	440
94	20
96	60
97	2262
98	50
99	120
101	60
102	1461
103	210
104	30
105	70
106	20
108	50
109	120
111	30
113	20
114	190
115	110
116	70
117	260
118	3373
119	310
120	20
121	230
122	70
123	40
125	290
126	30
127	20
129	3063
130	480
131	140
132	20
133	40
134	210
135	40
136	60
141	80
142	70
143	30
144	30
145	390
146	9999
147	1491
148	120
149	400
150	120
151	30
152	20
153	40
155	110
156	4134
157	6616
158	2182
159	270
160	30
161	480
162	1832
163	230
164	100
169	20
173	1682
174	1281
175	170
176	20
177	40
178	370
179	50
180	30
184	40
185	20
188	40
189	971
190	1161
191	170
192	100
193	1211
194	120
195	20
209	160
210	50
221	130
222	20
224	40
225	591
226	60
227	30
237	440
238	60
241	1191
242	280
243	90
252	20
253	260
254	50
255	30
265	220
266	30
269	180
270	1001
271	130
272	60
298	2172
299	320
300	130
