Mass Spectrum: Hexylresorcinol
Formula: C12 H18 O2
CAS: 136-77-6
Molecular weight: 194
Origin: Japan AIST/NIMC Database- Spectrum MS-NW-4535
m/z	RELATIVE INTENSITY
14	20
15	10
16	10
18	10
26	20
27	209
28	20
29	179
38	20
39	229
40	50
41	339
42	30
43	129
44	20
50	40
51	109
52	50
53	99
54	20
55	189
56	10
57	20
62	10
63	40
64	20
65	139
66	80
67	209
68	20
69	179
70	10
71	10
74	10
75	10
76	10
77	199
78	40
79	60
80	10
81	70
82	20
83	10
84	10
89	20
91	70
92	10
93	20
94	80
95	149
96	10
102	10
103	20
105	30
106	10
107	80
108	20
109	30
110	149
111	30
112	20
115	20
118	10
119	20
120	20
121	40
122	20
123	9999
124	799
125	80
126	10
127	10
128	10
131	20
133	10
134	10
135	20
136	60
137	60
138	10
141	30
142	10
147	50
148	10
149	70
150	20
151	10
152	10
165	10
190	10
192	20
193	10
194	1259
195	179
196	20
