Mass Spectrum: 2-Benzothiazolamine
Formula: C7 H6 N2 S
CAS: 136-95-8
Molecular weight: 150
Origin: NIST Mass Spectrometry Data Center, 1998.
m/z	RELATIVE INTENSITY
26	30
27	70
28	150
29	10
32	20
33	10
36	10
37	140
38	230
39	330
40	40
41	40
42	80
43	70
44	30
45	520
46	20
47	40
48	10
49	60
50	290
51	350
52	230
53	120
54	40
55	10
56	20
57	130
58	310
59	50
60	220
61	180
62	300
63	810
64	280
65	170
66	30
67	10
68	40
69	1450
70	320
71	140
72	20
73	40
74	140
75	550
76	110
77	60
78	260
79	110
80	50
81	260
82	630
83	70
84	70
85	20
86	20
87	20
88	30
89	20
90	120
91	200
92	50
93	170
94	90
95	270
96	2690
97	240
98	140
99	40
103	10
104	10
105	380
106	380
107	120
108	560
109	90
110	50
111	10
115	10
116	20
117	30
118	530
119	40
120	40
121	40
122	780
123	2410
124	280
125	120
126	10
133	30
134	10
135	10
149	240
150	9999
151	950
152	490
153	40
