Mass Spectrum: 1-Phenanthrenecarboxaldehyde, 1,2,3,4,4a,9,10,10a-octahydro-1,4a-dimethyl-7-(1-methylethyl)-, [1R-(1.alpha.,4a.beta.,10a.alpha.)]-
Formula: C20 H28 O
CAS: 13601-88-2
Molecular weight: 284
m/z	RELATIVE INTENSITY
18	130
27	130
28	43
29	261
39	196
41	783
42	43
43	1935
44	217
51	22
53	174
55	587
56	109
57	130
65	109
67	174
69	304
70	43
71	174
76	43
77	283
78	152
79	152
81	500
82	43
83	326
84	130
85	152
89	43
91	630
92	174
93	65
95	130
97	152
99	413
103	43
105	261
107	43
109	87
111	43
112	43
115	652
116	217
117	1065
118	130
119	130
125	152
127	239
128	848
129	1087
130	174
131	1000
132	152
133	456
139	43
141	1000
142	522
143	1174
144	152
145	283
147	283
151	43
152	283
153	413
154	326
155	804
156	261
157	674
158	130
159	2608
160	348
165	370
166	130
167	630
168	717
169	565
170	152
171	783
172	87
173	3739
174	587
175	87
178	130
179	174
180	43
181	261
182	65
183	739
184	130
185	2261
186	630
187	174
188	109
189	43
193	43
195	130
196	65
197	522
198	152
199	1000
200	261
209	1478
210	239
211	283
212	109
213	283
223	87
225	1217
226	196
227	1065
228	174
239	326
241	3630
242	652
251	1478
252	261
253	130
254	65
255	783
256	239
269	9999
270	2043
271	152
284	7564
285	1717
286	43
