Mass Spectrum: Cycloheptanone, 4-methyl-, (R)-
Formula: C8 H14 O
CAS: 13609-59-1
Molecular weight: 126
Origin: CARL DJERASSI DEPT OF CHEM STANFORD UNIV STANFORD CALIF 94305
m/z	RELATIVE INTENSITY
39	4300
40	900
41	7000
42	5700
43	3500
44	200
48	100
50	200
51	400
52	200
53	900
54	500
55	9999
56	3200
57	1000
63	100
65	200
66	100
67	1100
68	300
69	3200
70	3600
71	600
72	100
77	100
79	200
81	200
82	4400
83	3100
84	800
85	100
91	100
93	400
95	100
97	900
98	1200
99	100
108	200
111	300
126	1700
127	200
