Mass Spectrum: Indolizine, octahydro-
Formula: C8 H15 N
CAS: 13618-93-4
Molecular weight: 125
Origin: CAR 0015
m/z	RELATIVE INTENSITY
14	300
15	480
16	440
26	210
27	2082
29	420
30	731
38	170
39	2132
40	581
41	4654
42	2913
43	1091
50	140
51	300
52	260
53	721
54	1451
55	2232
56	510
57	190
63	140
65	270
66	210
67	881
68	1672
69	5095
70	1141
71	130
77	170
78	110
79	140
80	450
81	450
82	1391
83	4994
84	1041
93	270
94	470
95	420
96	6596
97	8187
98	601
108	180
110	821
120	571
121	330
122	1071
123	470
124	9999
125	4364
126	400
