Mass Spectrum: Ethyl 3-(methylthio)-(Z)-2-propenoate
Formula: C6 H10 O2 S
CAS: 136115-66-7
Molecular weight: 146
Origin: G.Takeoka ET AL,J.Agric.Food Chem.,39,1848(1991)
m/z	RELATIVE INTENSITY
39	350
43	440
44	180
45	4274
46	1121
47	1812
48	290
53	550
54	260
55	310
57	941
58	3503
59	691
60	170
71	671
72	1651
73	4444
74	1031
75	791
85	921
86	250
87	1301
89	130
99	821
100	3924
101	9999
102	741
103	4684
105	320
117	400
118	851
131	2662
132	120
146	5455
147	410
148	330
