Mass Spectrum: 2,4,6-Cycloheptatriene-1-carbonitrile
Formula: C8 H7 N
CAS: 13612-59-4
Molecular weight: 117
Origin: TH. J. DE BOER
m/z	RELATIVE INTENSITY
37	480
38	830
39	2030
40	180
41	100
43	100
49	100
50	830
51	1140
52	430
53	100
61	400
62	800
63	1680
64	970
65	680
66	100
74	120
75	250
76	270
77	850
78	430
86	100
87	160
88	370
89	3690
90	7230
91	1480
92	130
115	100
116	9999
117	9850
118	890
