Mass Spectrum: Benzene, 1,4-diethyl-2-methyl-
Formula: C11 H16
CAS: 13632-94-5
Molecular weight: 148
Origin: NIST Mass Spectrometry Data Center, 1990.
m/z	RELATIVE INTENSITY
15	154
27	347
28	390
29	213
38	86
39	705
40	98
41	566
50	195
51	618
52	168
53	293
55	173
58	85
62	127
63	431
64	298
65	693
66	80
74	100
75	103
76	149
77	1222
78	458
79	526
89	232
91	2516
92	234
93	353
102	206
103	662
104	318
105	2804
106	216
115	1434
116	494
117	1523
118	759
119	5816
120	538
127	126
128	256
129	151
130	126
131	536
132	126
133	9999
134	1055
148	3648
149	427
