Mass Spectrum: Chlorodifluoroamine
Formula: Cl F2 N
CAS: 13637-87-1
Molecular weight: 87
m/z	RELATIVE INTENSITY
14	1081
19	701
33	4884
34	30
35	1261
37	360
49	3713
51	1181
52	9999
53	50
68	3703
70	1211
87	5065
89	1611
