Mass Spectrum: Sulfuryl chloride fluoride
Formula: Cl F O2 S
CAS: 13637-84-8
Molecular weight: 118
m/z	RELATIVE INTENSITY
16	260
19	50
32	1131
33	20
34	70
35	601
36	10
37	180
48	1221
49	20
50	70
51	250
52	10
53	20
64	1061
65	20
66	70
67	2272
68	20
69	140
83	9999
84	90
85	530
86	20
88	10
99	751
100	20
101	280
102	10
103	20
118	6346
119	70
120	2332
121	20
122	110
