Mass Spectrum: 2,4-Octadiene
Formula: C8 H14
CAS: 13643-08-8
Molecular weight: 110
Origin: NIST Mass Spectrometry Data Center, 1990.
m/z	RELATIVE INTENSITY
15	114
26	212
27	1383
28	468
29	675
38	309
39	2811
40	600
41	2881
42	293
43	117
50	539
51	1062
52	589
53	3273
54	570
55	1332
56	152
62	183
63	420
65	1174
66	899
67	4644
68	6395
69	468
74	108
77	1602
79	5539
81	9999
82	774
91	403
93	281
95	1468
110	4387
111	393
