Mass Spectrum: Phosphine, dibutylvinyl-
Formula: C10 H21 P
CAS: 13652-22-7
Molecular weight: 172
Origin: V.G.Zaikin, TIPS, Russian Acad. Sci.
m/z	RELATIVE INTENSITY
53	500
54	200
55	1201
56	400
57	3503
58	900
59	2101
60	900
61	900
62	6605
63	300
65	1000
67	300
69	500
71	1101
72	400
73	3102
74	7606
75	700
76	1201
77	100
78	200
79	100
80	200
81	300
82	100
83	400
85	500
86	200
87	2001
88	9999
89	600
90	300
91	100
92	100
93	1101
101	1801
102	5705
108	200
109	100
113	100
114	200
115	4003
116	4604
117	700
121	300
123	200
127	100
128	100
129	1301
130	3102
131	300
143	3202
144	800
157	2602
158	300
171	700
172	2101
173	400
