Mass Spectrum: Benzyl alcohol, 2,3-dimethyl-
Formula: C9 H12 O
CAS: 13651-14-4
Molecular weight: 136
Origin: A.A.Kutin, Moscow, Russia
m/z	RELATIVE INTENSITY
36	3
37	46
39	2074
40	386
41	691
43	283
44	41
45	64
46	25
50	565
51	1218
52	383
53	576
54	53
55	120
56	21
58	55
59	162
60	209
61	69
62	212
63	666
65	1439
66	223
67	291
69	18
71	2
74	150
75	149
77	3425
78	821
79	1126
80	77
81	17
82	4
86	42
87	42
89	322
91	5689
93	4610
94	261
95	11
98	12
103	1439
104	397
105	1579
107	1700
108	130
115	753
117	5048
118	9999
119	1510
121	2411
122	185
123	10
136	4846
137	402
138	28
