Mass Spectrum: Alprenolol
Formula: C15 H23 N O2
CAS: 13655-52-2
Molecular weight: 249
Origin: R RYHAGE MS-LAB KAROLINSKA INSTITUTET STOCKHOLM SWEDEN
m/z	RELATIVE INTENSITY
15	27
26	67
27	144
29	45
30	2087
31	99
33	22
35	72
36	31
39	202
41	436
42	270
43	400
44	54
45	9
47	36
48	9
49	18
50	49
51	153
52	27
53	27
54	54
55	45
56	436
57	157
58	220
59	58
60	234
63	81
64	18
65	85
66	31
67	36
68	31
69	22
70	243
71	144
72	9999
73	490
74	90
75	58
77	139
78	76
79	157
80	31
82	13
89	49
90	49
91	292
92	54
93	4
94	22
96	40
97	9
98	27
99	27
100	315
101	54
102	355
103	76
104	31
105	94
106	22
107	157
108	85
109	27
112	4
114	189
115	355
116	162
117	99
118	112
119	139
121	27
128	22
129	40
131	126
132	166
133	166
134	207
135	63
139	22
144	18
147	45
155	36
173	49
176	76
177	27
181	18
194	27
205	180
206	40
207	49
234	256
235	58
247	22
248	54
249	342
250	49
