Mass Spectrum: 2-(Cyclopenten-1-yl)acetic acid
Formula: C7 H10 O2
CAS: 13668-61-6
Molecular weight: 126
Origin: NIST Mass Spectrometry Data Center, 1992
m/z	RELATIVE INTENSITY
14	34
15	93
16	17
17	22
18	29
26	251
27	1457
28	506
29	376
30	28
31	198
32	29
37	133
38	436
39	2561
40	500
41	2305
42	419
43	223
44	63
45	666
47	22
49	76
50	445
51	715
52	406
53	923
54	193
55	478
56	50
57	66
60	681
61	89
62	120
63	204
64	22
65	1230
66	5026
67	9999
68	599
69	118
70	76
71	30
73	25
74	47
75	24
77	803
78	282
79	1964
80	1220
81	779
82	99
83	304
84	137
85	19
95	19
97	152
98	18
106	25
108	2615
109	295
110	29
111	51
126	717
127	50
