Mass Spectrum: 1-(p-Chlorophenylthio)-2-propanol
Formula: C9 H11 Cl O S
CAS: 13663-04-2
Molecular weight: 202
Origin: NIST Mass Spectrometry Data Center, 1994
m/z	RELATIVE INTENSITY
14	98
15	524
18	27
19	270
26	120
27	700
28	145
29	745
30	27
31	1107
35	27
36	35
37	83
38	253
39	774
40	110
41	566
42	163
43	1250
44	27
45	9999
46	501
47	429
49	94
50	884
51	572
52	48
53	31
57	218
58	249
59	322
60	58
61	175
62	228
63	735
64	86
65	253
66	27
69	659
70	75
71	131
72	19
73	425
74	451
75	1464
76	274
77	696
78	174
79	102
81	157
82	303
83	66
84	98
85	172
86	35
87	60
89	145
90	79
91	35
93	56
95	32
96	31
97	67
98	31
99	460
100	105
101	123
102	57
103	33
105	46
106	52
107	222
108	1590
109	502
110	128
111	277
112	891
113	178
114	265
115	59
116	26
118	25
120	35
121	171
122	157
123	376
124	25
125	1156
126	117
127	394
128	35
131	36
134	47
143	1532
144	759
145	608
146	254
147	66
148	33
150	40
155	50
157	988
158	5009
159	804
160	1842
161	146
162	77
169	146
171	87
202	2043
203	220
204	766
205	78
206	33
207	3
