Mass Spectrum: Furan, 2-(2-furanylmethyl)-5-methyl-
Formula: C10 H10 O2
CAS: 13678-51-8
Molecular weight: 162
Origin: MASS SPECTRA OF ORGANIC COMPOUNDS, V. 5, B. H. KENNETT ET AL, DIV. OF FOOD RESEARCH, CSIRO, AUSTRALIA
m/z	RELATIVE INTENSITY
26	600
27	4700
29	800
31	100
37	200
38	700
39	2600
40	400
41	1000
42	300
43	8900
45	100
49	100
50	1000
51	2600
52	1700
53	3000
54	300
55	800
61	100
62	300
63	900
64	300
65	1700
66	600
67	300
68	400
69	200
74	100
75	100
76	100
77	1000
78	400
79	1100
80	400
81	2100
82	500
85	100
86	100
89	600
90	400
91	7800
92	900
93	100
94	600
95	1400
96	100
101	100
102	100
103	500
104	100
105	1600
106	300
107	300
108	1400
109	200
115	300
116	200
117	200
118	300
119	3400
120	800
121	200
131	300
132	200
133	1300
134	800
135	100
145	200
147	3100
148	400
160	300
161	2600
162	9999
163	1100
164	100
