Mass Spectrum: Tris(1,3-dichloroisopropyl)phosphate
Formula: C9 H15 Cl6 O4 P
CAS: 13674-87-8
Molecular weight: 428
Origin: Japan AIST/NIMC Database- Spectrum MS-NW-1628
m/z	RELATIVE INTENSITY
14	20
15	289
18	10
26	80
27	759
28	119
29	259
30	10
31	389
35	40
36	329
37	40
38	129
39	2519
40	319
41	2109
42	169
43	669
44	149
45	40
47	219
48	60
49	2839
50	109
51	889
52	30
53	30
55	99
56	40
57	1249
58	50
60	10
61	199
62	189
63	139
64	60
65	169
67	10
69	40
71	10
72	10
73	129
74	99
75	9999
76	589
77	3199
78	229
79	459
80	30
81	669
82	50
83	299
85	159
87	20
89	40
91	149
92	40
93	189
94	10
95	60
97	30
99	7699
100	20
101	90
103	10
105	40
107	50
109	129
110	289
111	1239
112	219
113	769
114	50
115	129
117	419
119	169
121	70
122	10
123	199
124	30
125	119
127	20
129	80
131	30
135	139
136	20
137	579
138	40
139	50
141	99
142	10
143	50
149	20
153	10
155	2009
156	90
157	659
158	20
159	1049
160	20
161	339
163	20
171	40
172	20
173	479
174	20
175	179
177	10
185	20
191	5469
192	199
193	3529
194	129
195	599
196	20
197	10
199	10
207	20
209	3699
210	139
211	2459
212	90
213	409
214	10
233	129
235	80
237	20
247	60
249	40
269	339
270	20
271	339
272	10
273	109
275	10
283	50
285	40
287	20
301	649
302	40
303	809
304	50
305	359
306	30
307	90
319	1229
320	80
321	1609
322	119
323	829
324	60
325	179
326	10
327	10
357	20
359	30
361	10
379	929
380	80
381	1569
382	139
383	1029
384	90
385	279
386	30
387	50
393	40
395	60
397	40
399	10
