Mass Spectrum: 2-Propanol, 1-chloro-, phosphate (3:1)
Formula: C9 H18 Cl3 O4 P
CAS: 13674-84-5
Molecular weight: 326
Origin: NIST Mass Spectrometry Data Center, 1998.
m/z	RELATIVE INTENSITY
15	30
26	40
27	280
29	160
31	60
35	10
37	30
38	80
39	1290
40	280
41	6109
42	690
43	730
44	110
45	1490
46	30
47	110
48	20
49	840
50	30
51	280
52	10
53	40
54	10
55	50
56	10
57	310
58	70
59	110
60	10
61	80
62	20
63	60
64	10
65	180
66	10
67	40
69	10
71	50
73	20
74	10
75	250
76	490
77	1860
78	230
79	720
80	30
81	1280
82	90
83	40
85	10
87	10
89	30
91	50
92	10
93	110
94	10
95	30
96	10
97	10
99	8849
100	20
101	90
103	80
105	20
107	180
108	10
109	10
111	20
113	10
117	3460
119	1140
120	10
121	350
122	30
123	90
124	10
125	9999
126	250
127	90
129	10
135	10
137	140
138	230
139	1590
140	50
141	30
143	20
145	10
149	10
151	50
155	10
157	4140
158	150
159	1630
160	40
161	100
165	40
173	270
175	2520
176	70
177	740
178	20
179	10
201	3410
202	190
203	1130
204	50
205	10
214	30
215	470
216	40
217	160
218	10
233	470
234	30
235	360
236	20
237	90
249	30
251	270
252	20
253	170
254	10
255	20
277	3020
278	290
279	1950
280	180
281	330
282	20
291	370
292	30
293	240
294	20
295	30
311	20
313	20
315	10
327	10
329	10
