Mass Spectrum: Ethanethioic acid, S-(2-furanylmethyl) ester
Formula: C7 H8 O2 S
CAS: 13678-68-7
Molecular weight: 156
m/z	RELATIVE INTENSITY
27	671
39	280
43	2702
45	831
51	280
52	200
53	1752
69	80
81	9999
82	520
85	120
113	360
114	360
156	1631
157	140
158	80
