Mass Spectrum: Furan, 2-(methoxymethyl)-
Formula: C6 H8 O2
CAS: 13679-46-4
Molecular weight: 112
m/z	RELATIVE INTENSITY
14	50
15	220
17	30
18	110
26	160
27	1051
28	200
29	711
30	50
31	110
32	60
37	140
38	280
39	891
40	110
41	530
42	170
43	210
44	70
45	490
49	50
50	340
51	581
52	450
53	3373
54	270
55	290
56	30
58	320
66	30
67	50
68	160
69	360
70	40
71	70
79	50
80	60
81	9999
82	2142
83	180
84	110
95	540
96	220
97	530
98	90
111	2112
112	4314
113	300
114	30
