Mass Spectrum: Cyclohexanemethanol, 4-(1-methylethyl)-, trans-
Formula: C10 H20 O
CAS: 13674-19-6
Molecular weight: 156
m/z	RELATIVE INTENSITY
26	50
27	831
28	240
29	871
30	50
31	631
39	751
40	120
41	2752
42	230
43	1311
44	70
45	200
51	80
53	510
54	500
55	2362
56	250
57	1121
58	50
59	80
65	120
66	140
67	1982
68	370
69	3563
70	370
71	90
74	50
77	260
79	741
80	270
81	1571
82	831
83	1251
84	130
91	160
93	571
94	841
95	9999
96	1121
97	160
108	60
109	971
110	601
111	160
112	60
113	440
121	90
123	561
124	100
125	250
136	80
138	751
139	90
154	50
