Mass Spectrum: Furan, 2,2'-methylenebis[5-methyl-
Formula: C11 H12 O2
CAS: 13679-43-1
Molecular weight: 176
Origin: Japan AIST/NIMC Database- Spectrum MS-IW-2846
m/z	RELATIVE INTENSITY
15	70
26	70
27	479
28	70
29	20
37	20
38	70
39	409
40	80
41	519
42	70
43	6899
44	159
45	30
49	20
50	279
51	729
52	499
53	529
54	70
55	249
56	10
58	10
59	20
60	20
61	20
62	60
63	179
64	60
65	339
66	149
67	159
68	10
69	30
71	10
72	20
73	209
74	90
75	50
76	20
77	549
78	139
79	609
80	249
81	219
82	329
83	20
85	10
86	10
87	119
88	279
89	139
90	60
91	959
92	139
93	50
94	329
95	1829
96	129
97	10
101	10
102	30
103	289
104	90
105	2829
106	309
107	99
108	70
109	119
110	10
113	20
115	149
116	179
117	80
118	80
119	1049
120	99
121	50
122	50
123	10
127	20
128	40
129	60
130	20
131	249
132	179
133	2289
134	1179
135	139
136	10
143	20
145	40
146	30
147	179
148	70
149	10
151	30
157	10
159	70
160	40
161	3209
162	369
163	30
173	10
174	109
175	2499
176	9999
177	1199
178	109
