Mass Spectrum: Furan, 3-phenyl-
Formula: C10 H8 O
CAS: 13679-41-9
Molecular weight: 144
m/z	RELATIVE INTENSITY
39	530
50	250
51	350
62	320
63	881
64	110
65	390
72	490
74	140
75	140
86	110
87	140
88	110
89	851
113	110
114	280
115	7907
116	881
144	9999
145	1091
