Mass Spectrum: Phenethylamine, 3-methoxy-.alpha.-methyl-4,5-(methylenedioxy)-
Formula: C11 H15 N O3
CAS: 13674-05-0
Molecular weight: 209
Origin: Finnigan MAT: Toxicological Library (LIBR-TX)
m/z	RELATIVE INTENSITY
42	220
44	9999
45	278
51	127
53	139
63	72
64	129
65	113
77	194
78	49
79	45
92	85
97	100
107	36
108	22
120	57
121	57
122	40
135	33
136	19
150	14
151	54
152	11
165	469
166	2446
167	227
176	8
192	9
193	14
194	15
208	11
209	25
