Mass Spectrum: Bis(diethyldithiocarbamato)copper
Formula: C10 H20 Cu N2 S4
CAS: 13681-87-3
Molecular weight: 359
Origin: Japan AIST/NIMC Database- Spectrum MS-NW-9172
m/z	RELATIVE INTENSITY
15	20
26	40
27	20
28	20
29	50
32	50
33	10
34	20
35	10
38	30
39	10
40	20
41	50
42	229
43	30
44	759
45	70
46	10
47	10
48	10
52	10
54	50
55	30
56	449
57	40
58	339
59	279
60	1739
61	119
62	90
63	90
64	179
65	50
66	10
67	10
68	20
69	10
70	159
71	80
72	1079
73	149
74	10
76	749
77	139
78	70
79	10
80	20
81	10
82	30
83	10
84	30
85	10
86	409
87	319
88	4459
89	219
90	229
91	40
92	40
93	20
95	20
96	30
97	20
98	40
99	10
100	60
101	20
104	10
105	10
106	10
107	60
108	10
109	30
110	10
111	30
112	10
113	30
114	109
115	20
116	9999
117	819
118	519
119	50
120	70
121	10
122	239
123	90
124	119
125	50
126	10
127	40
128	20
129	20
130	10
132	10
133	10
134	229
135	10
136	99
137	10
139	90
140	40
141	60
142	20
143	10
144	10
145	10
146	30
147	80
148	319
149	339
150	409
151	60
152	179
153	10
154	10
155	10
156	10
160	10
162	10
163	10
166	10
167	10
168	80
169	10
171	10
173	10
174	20
175	10
176	10
177	60
178	199
179	30
180	109
181	10
182	30
183	10
184	10
185	10
194	10
196	10
200	10
203	30
204	20
205	60
206	10
207	50
208	50
209	20
210	149
211	489
212	1059
213	329
214	539
215	60
216	50
217	10
232	20
237	30
239	20
243	70
244	20
245	50
246	10
254	20
256	10
264	159
265	30
266	40
267	10
268	10
272	10
281	10
282	20
283	50
284	10
285	20
287	10
288	20
290	10
291	50
292	10
323	10
351	10
352	99
353	20
354	99
355	429
356	179
357	90
358	40
359	3709
360	609
361	2339
362	379
363	369
364	60
365	30
