Mass Spectrum: 1,10-Undecadiene
Formula: C11 H20
CAS: 13688-67-0
Molecular weight: 152
Origin: NIST Mass Spectrometry Data Center, 1990.
m/z	RELATIVE INTENSITY
27	2091
28	1115
29	2376
39	4581
40	819
41	9999
42	1085
43	994
51	338
52	209
53	1571
54	5318
55	7794
56	868
57	452
65	368
66	715
67	7443
68	3579
69	4520
70	405
77	225
79	481
81	5052
82	4423
83	826
93	105
95	2421
96	1865
97	324
109	833
110	549
123	250
124	406
