Mass Spectrum: .mu.<3>-Phenylmethylidyne-tricobalt nonacarbonyl
Formula: C16 H5 Co3 O9
CAS: 13682-03-6
Molecular weight: 518
Origin: Humboldt-Universitat zu Berlin, Department of Chemistry, Analytical Group
m/z	RELATIVE INTENSITY
12	436
14	40
15	29
16	226
17	313
18	1185
26	42
28	9999
29	210
30	86
31	19
32	27
36	23
37	34
38	54
39	193
40	25
41	107
42	31
43	99
44	97
45	32
49	23
50	140
51	206
52	92
53	19
55	82
56	38
57	90
59	743
60	21
61	27
62	50
63	145
64	25
65	55
67	21
68	15
69	48
70	29
71	42
72	23
73	40
74	80
75	138
76	164
77	162
78	312
79	34
81	27
82	29
83	40
84	55
85	46
86	42
87	447
88	126
89	419
90	48
91	248
92	109
93	61
94	25
95	27
96	170
97	132
98	67
99	40
100	31
101	23
102	42
103	67
104	25
105	63
106	63
107	29
108	57
109	34
110	25
111	34
112	21
113	25
115	201
116	19
118	384
119	38
120	149
121	197
122	61
123	25
124	17
125	31
126	57
127	27
128	21
130	59
131	34
133	331
136	19
137	21
138	19
139	38
142	174
143	271
144	32
145	36
147	325
148	852
149	107
150	57
151	90
152	113
154	141
155	430
156	48
157	19
159	130
160	63
161	266
163	34
164	17
165	138
166	82
167	178
168	52
171	13
173	13
175	151
176	172
177	168
178	761
179	371
180	256
181	241
182	31
189	122
190	32
191	23
192	25
193	19
201	243
202	21
203	42
204	13
205	42
207	1135
208	92
212	96
213	197
214	453
215	61
216	11
217	25
219	32
225	11
226	63
231	17
233	19
235	55
236	10
238	134
239	84
240	457
241	31
247	13
248	159
249	32
250	107
251	27
252	32
253	15
254	11
263	48
264	124
266	2691
267	222
268	23
270	11
278	11
291	29
294	1472
295	128
296	11
300	8
319	21
322	1246
323	132
324	13
347	10
350	1846
351	206
352	27
356	8
378	2561
379	319
380	40
406	1086
407	145
408	21
434	482
435	67
436	13
462	870
463	140
464	23
490	1506
491	250
492	44
493	8
518	52
519	11
