Mass Spectrum: N,N,N',N'-Tetraethylisophthalamide
Formula: C16 H24 N2 O2
CAS: 13698-87-8
Molecular weight: 276
Origin: NIST Mass Spectrometry Data Center, 1994
m/z	RELATIVE INTENSITY
15	240
16	1
17	5
18	420
26	21
27	1273
28	1571
29	4723
30	527
39	128
40	54
41	126
42	1334
43	7
44	2278
50	862
51	643
52	119
53	80
54	146
55	93
56	616
57	72
58	529
63	97
64	51
65	187
66	221
70	273
72	4046
73	199
74	1721
75	1201
76	4157
77	1619
78	219
79	175
81	72
88	197
89	113
90	127
91	321
92	245
93	79
94	72
95	304
100	1732
101	163
102	247
103	1387
104	2821
105	1869
106	174
109	185
115	47
116	144
117	153
118	287
119	248
120	160
123	224
124	44
128	61
130	417
131	163
133	6842
134	650
135	57
145	76
146	265
147	217
148	212
149	80
158	27
160	1480
161	421
162	62
174	761
175	1809
176	1135
177	1122
178	147
188	115
190	36
191	194
192	29
202	1032
204	9999
205	1606
206	158
219	250
220	24
233	68
247	3476
248	672
249	84
261	91
275	2658
276	1406
277	225
278	17
