Mass Spectrum: Benzenemethanol, 2,4-dichloro-.alpha.-(chloromethyl)-
Formula: C8 H7 Cl3 O
CAS: 13692-14-3
Molecular weight: 224
Origin: J.E. WILKINSON S-CUBED, SAN DIEGO, CA.
m/z	RELATIVE INTENSITY
42	82
43	668
44	80
47	35
49	780
50	932
51	854
52	5
55	24
60	27
61	218
62	280
63	385
64	4
65	5
67	4
68	45
72	42
73	387
74	892
75	1960
76	349
77	223
79	4
84	170
85	264
86	140
87	172
88	10
89	351
91	4
97	77
98	51
99	218
100	5
101	101
102	30
108	20
109	380
110	139
111	5056
112	554
113	1517
114	70
118	3
123	185
124	21
125	242
126	12
127	46
133	19
135	107
136	140
137	90
138	17
139	357
140	18
141	26
142	7
145	247
146	74
147	1137
148	64
149	593
150	10
151	43
153	12
159	183
160	3
161	117
163	4
170	2
171	66
172	66
173	421
174	13
175	9999
176	678
177	6079
178	376
179	886
188	14
189	4
190	1
224	326
225	11
226	307
227	3
228	85
