Mass Spectrum: N,N-Dichlorourethan
Formula: C3 H5 Cl2 N O2
CAS: 13698-16-3
Molecular weight: 157
Origin: NIST Mass Spectrometry Data Center, 1994
m/z	RELATIVE INTENSITY
4	43
14	180
15	775
16	54
18	90
19	96
25	86
26	776
27	4456
28	1140
29	9999
30	1137
31	882
32	45
35	311
36	191
37	115
41	72
42	636
43	1750
44	765
45	1093
46	117
49	235
50	1085
51	4500
52	391
53	1524
64	3224
66	976
78	1699
80	621
95	85
108	156
110	84
123	1839
124	107
125	631
