Mass Spectrum: Dimethyldithiocarbamic acid,copper salt
Formula: C6 H12 Cu N2 S4
CAS: 137-29-1
Molecular weight: 303
Origin: Japan AIST/NIMC Database- Spectrum MS-IW- 981
m/z	RELATIVE INTENSITY
14	10
15	149
27	30
32	80
33	10
34	30
38	40
39	20
40	50
41	80
42	619
43	229
44	1089
45	329
46	40
47	139
48	20
54	10
55	30
56	169
57	40
58	30
59	10
60	40
61	60
63	119
64	269
65	60
66	20
67	10
68	20
69	30
70	20
71	50
72	219
73	509
74	70
75	20
76	1069
77	119
78	99
79	10
80	10
81	10
82	10
83	20
85	20
87	30
88	9999
89	819
90	489
91	40
95	30
96	10
97	70
98	10
99	10
100	20
104	70
105	10
106	119
107	80
108	40
109	50
111	20
112	70
113	10
115	10
119	20
120	80
121	299
122	30
123	30
125	10
127	30
129	10
132	20
133	10
135	20
136	289
137	10
138	139
139	99
140	40
141	50
142	40
143	20
144	10
146	10
147	10
149	10
150	80
151	70
152	50
153	30
154	10
161	40
168	20
170	10
176	229
177	70
178	30
179	10
180	10
182	40
183	719
184	759
185	419
186	389
187	60
188	30
208	239
209	70
210	30
211	30
214	10
215	90
216	20
217	60
218	10
219	10
220	20
224	30
226	30
227	70
228	10
229	40
230	10
232	10
239	10
246	10
247	20
248	10
259	10
260	30
261	10
262	20
266	30
268	10
278	10
280	10
292	20
294	10
296	119
297	10
298	60
299	10
300	20
303	3069
304	329
305	1939
306	209
307	289
308	20
309	10
