Mass Spectrum: 1-Butanol, 2-methyl-
Formula: C5 H12 O
CAS: 137-32-6
Molecular weight: 88
Origin: Japan AIST/NIMC Database- Spectrum MS-NW-1090
m/z	RELATIVE INTENSITY
14	30
15	229
16	10
17	30
18	119
19	10
25	10
26	249
27	2229
28	429
29	7009
30	199
31	3699
32	80
33	139
37	70
38	149
39	1659
40	259
41	8779
42	1809
43	1439
44	80
45	729
46	50
49	20
50	119
51	119
52	40
53	249
54	90
55	2819
56	8779
57	9999
58	479
59	389
60	60
67	20
69	159
70	4239
71	349
72	10
73	10
87	30
88	30
