Mass Spectrum: Benzenethiol, 2-methyl-
Formula: C7 H8 S
CAS: 137-06-4
Molecular weight: 124
Origin: Japan AIST/NIMC Database- Spectrum MS-NW-1565
m/z	RELATIVE INTENSITY
15	10
26	40
27	199
28	10
29	10
32	10
33	10
34	10
37	90
38	189
39	969
40	80
41	99
43	30
44	50
45	2129
46	50
47	119
48	10
49	50
50	279
51	599
52	149
53	179
54	10
55	10
57	60
58	129
59	109
60	149
61	249
62	499
63	669
64	169
65	829
66	90
67	20
68	20
69	489
70	109
71	149
72	10
73	30
74	80
75	60
76	30
77	1039
78	309
79	589
80	189
81	70
82	129
83	50
84	159
85	50
86	50
87	40
88	20
89	989
90	1179
91	9999
92	789
93	90
94	20
95	80
96	50
97	229
98	60
99	20
105	10
106	10
107	10
108	129
109	169
110	20
119	10
121	529
122	229
123	1409
124	8919
125	809
126	419
127	30
