Mass Spectrum: 1,3-di-o-Tolyl-2-thiourea
Formula: C15 H16 N2 S
CAS: 137-97-3
Molecular weight: 256
Origin: Japan AIST/NIMC Database- Spectrum MS-NW- 475
m/z	RELATIVE INTENSITY
15	20
26	60
27	319
28	299
29	40
30	179
32	129
33	99
34	269
36	20
37	90
38	189
39	1299
40	129
41	349
42	80
43	40
44	50
45	409
49	30
50	359
51	849
52	449
53	259
54	109
55	50
57	40
58	20
59	30
60	30
61	70
62	189
63	739
64	309
65	2119
66	189
67	60
69	50
70	70
71	30
72	20
73	20
74	90
75	119
76	149
77	1369
78	779
79	799
80	269
81	60
82	20
83	40
84	20
85	30
86	30
87	50
88	40
89	949
90	739
91	3059
92	329
93	159
94	50
95	30
96	40
97	40
102	60
103	109
104	779
105	249
106	5389
107	9999
108	819
109	50
110	60
111	50
115	40
116	669
117	1809
118	349
119	60
120	50
121	479
122	159
123	319
124	699
125	70
126	50
127	109
128	109
129	90
130	649
131	419
132	329
133	599
134	70
135	20
136	70
137	20
138	60
146	20
148	839
149	2789
150	1129
151	239
152	70
163	80
164	40
165	99
166	30
167	30
178	30
179	40
180	80
181	30
192	20
193	40
194	70
195	20
204	189
205	169
206	269
207	389
208	99
209	20
219	90
220	80
221	1049
222	2589
223	1439
224	239
225	50
226	20
236	30
239	30
240	40
241	1939
242	359
243	129
244	20
254	30
255	549
256	4209
257	789
258	249
259	40
