Mass Spectrum: Zinc, bis(dimethylcarbamodithioato-S,S')-, (T-4)-
Formula: C6 H12 N2 S4 Zn
CAS: 137-30-4
Molecular weight: 304
Origin: S.M. Lee, CA Export Lab. Services, CA, USA
m/z	RELATIVE INTENSITY
51	10
52	10
53	10
54	10
55	10
56	180
57	20
58	20
59	20
60	10
61	80
62	10
63	10
64	260
65	10
66	100
67	20
68	60
69	10
70	30
71	10
72	631
73	921
74	90
75	50
76	390
77	340
78	60
79	50
80	10
81	10
82	10
83	10
84	10
85	10
86	20
87	440
88	9999
89	510
90	450
91	30
92	10
93	10
94	10
96	190
97	100
98	90
99	70
100	70
101	50
102	10
103	10
104	10
105	110
106	20
107	50
108	70
109	40
110	60
111	30
112	30
113	10
114	20
115	10
116	10
117	10
118	10
120	2362
121	360
122	260
123	70
124	20
125	20
126	10
127	20
128	60
129	10
130	40
131	10
132	40
133	30
134	10
135	20
136	10
137	120
138	10
139	80
140	120
141	60
142	80
143	40
144	60
145	20
146	20
147	10
148	10
149	20
150	10
151	20
152	270
153	40
154	50
155	10
156	10
157	10
158	10
159	10
160	10
161	10
162	10
163	10
164	10
165	10
166	10
167	10
168	10
169	20
170	110
171	10
172	130
173	40
174	100
175	40
176	50
177	30
178	30
179	20
180	10
181	10
184	2222
185	350
186	1521
187	410
188	991
189	160
190	110
191	40
192	20
193	20
194	10
195	10
196	10
197	10
198	10
199	10
200	10
201	30
202	10
203	30
204	10
205	20
206	10
207	290
208	70
209	40
210	10
211	10
212	10
213	20
214	10
216	1311
217	130
218	921
219	200
220	601
221	80
222	100
223	20
224	10
225	70
226	10
227	661
228	150
229	450
230	150
231	270
232	80
233	40
234	20
235	10
236	10
237	10
238	10
239	10
240	10
241	10
242	10
243	10
244	10
245	10
246	10
247	10
248	10
249	10
250	10
251	10
252	10
253	40
254	10
255	10
256	10
257	150
258	20
259	100
260	110
261	70
262	70
263	30
264	50
265	10
266	20
267	10
268	10
269	10
270	10
271	10
272	10
273	10
274	10
275	10
276	10
277	10
278	10
279	10
281	40
282	10
283	10
284	10
285	10
287	10
289	250
290	20
291	190
292	40
293	130
294	10
295	20
296	40
297	10
298	90
299	10
300	40
301	10
302	10
304	7487
305	811
306	5635
307	1181
308	3703
309	480
310	641
311	70
312	50
313	10
314	10
