Mass Spectrum: 2,5-Cyclohexadiene-1,4-dione, 2,5-dimethyl-
Formula: C8 H8 O2
CAS: 137-18-8
Molecular weight: 136
Origin: Japan AIST/NIMC Database- Spectrum MS-NW-3616
m/z	RELATIVE INTENSITY
13	10
14	20
15	70
18	20
25	40
26	119
27	339
28	99
29	99
31	10
34	10
36	40
37	499
38	1379
39	6119
40	5879
41	509
42	90
43	139
44	30
45	10
46	10
48	20
49	80
50	329
51	429
52	299
53	689
54	109
55	99
60	20
61	99
62	149
63	229
64	70
65	369
66	269
67	729
68	9919
69	1169
70	70
73	40
74	119
75	50
76	20
77	549
78	199
79	3599
80	2399
81	179
82	40
84	10
85	30
86	20
87	20
89	70
90	159
91	129
92	20
93	309
94	30
95	20
96	2639
97	169
98	20
105	10
106	20
107	989
108	3499
109	299
110	20
121	339
122	30
123	50
134	10
135	30
136	9999
137	939
138	179
139	10
