Mass Spectrum: Phenylsuccinonitrile
Formula: C10 H8 N2
CAS: 13706-68-8
Molecular weight: 156
Origin: NIST Mass Spectrometry Data Center, 1994
m/z	RELATIVE INTENSITY
12	29
13	54
14	23
17	11
18	8
25	16
26	151
27	184
28	175
37	226
38	405
39	1148
40	602
41	87
49	95
50	917
51	1283
52	341
53	47
54	9
58	12
61	212
62	472
63	1158
64	359
65	257
66	46
73	52
74	239
75	338
76	345
77	473
78	143
79	16
85	39
86	74
87	157
88	303
89	2090
90	357
91	39
98	24
99	61
100	59
101	146
102	184
103	157
104	33
110	9
111	13
112	11
114	128
116	9999
117	915
118	37
126	17
127	73
128	160
129	134
130	38
154	20
156	1446
157	159
158	11
