Mass Spectrum: Sulfur tetrafluoride oxide
Formula: F4 O S
CAS: 13709-54-1
Molecular weight: 124
m/z	RELATIVE INTENSITY
16	120
19	180
32	520
34	30
48	270
51	250
53	10
54	20
67	931
68	20
69	40
70	170
86	1261
87	20
88	60
89	370
91	20
105	9999
106	80
107	470
108	10
124	40
