Mass Spectrum: Quinoxaline, 5-methyl-
Formula: C9 H8 N2
CAS: 13708-12-8
Molecular weight: 144
m/z	RELATIVE INTENSITY
26	80
27	120
38	160
39	631
40	120
50	200
51	280
52	200
62	280
63	951
64	550
65	160
75	120
76	120
77	80
89	1611
90	2803
91	240
116	320
117	1341
118	200
142	240
143	2242
144	9999
145	1051
