Mass Spectrum: Cholest-5-ene, 3-(1-oxobuthoxy)-
Formula: C31 H52 O2
CAS: 137036-79-4
Molecular weight: 456
Origin: A.A.Kutin, Moscow, Russia
m/z	RELATIVE INTENSITY
33	28
34	20
36	14
37	20
39	465
40	379
41	3343
43	9999
44	352
45	63
50	21
51	43
53	301
55	2551
56	388
57	2395
58	98
59	18
60	75
63	20
64	15
65	136
67	1357
68	217
69	1202
71	3337
73	160
75	12
77	417
78	153
79	1085
81	2325
82	224
83	593
84	85
85	178
86	19
87	14
89	201
91	1373
92	377
93	1243
94	380
95	1304
96	146
97	315
98	41
99	34
100	19
101	12
103	109
104	166
105	1488
106	493
107	1234
108	419
109	645
110	91
111	177
112	61
113	57
115	165
116	87
117	542
118	289
119	887
120	792
121	775
122	192
123	283
124	39
125	64
126	17
127	61
128	157
129	303
130	170
131	707
132	226
133	826
134	248
135	509
136	117
137	117
138	23
139	27
140	19
141	97
142	135
143	588
144	310
145	1386
146	530
147	1564
148	379
149	363
150	51
151	84
152	34
153	34
154	20
155	65
156	62
157	343
158	295
159	699
160	416
161	436
162	133
163	216
164	45
165	66
166	15
167	27
168	18
169	59
170	49
171	247
172	99
173	273
174	113
175	132
176	44
177	73
178	17
179	42
180	15
181	18
182	12
183	51
184	35
185	161
186	71
187	106
188	36
189	59
190	22
191	78
192	31
193	78
194	17
195	11
196	12
197	79
198	36
199	191
200	95
201	118
202	33
203	31
205	170
206	115
207	48
208	11
211	54
212	72
213	467
214	133
215	94
216	33
217	23
218	20
219	46
220	14
225	26
226	27
227	72
228	104
229	80
230	20
231	22
232	12
233	19
239	36
240	25
241	51
242	23
243	26
245	135
246	112
247	619
248	139
249	25
252	16
253	38
254	61
255	479
256	110
257	31
258	33
259	110
260	514
261	167
262	27
267	14
269	14
271	10
273	20
274	50
275	36
282	14
283	82
284	27
285	11
287	12
297	17
298	11
301	20
311	15
313	11
314	16
325	18
326	84
327	30
339	10
340	11
350	15
351	30
353	701
354	177
355	29
366	104
368	4361
369	1280
370	190
371	22
