Mass Spectrum: 1,3,5,2,4,6-Triazatriphosphorine, 2,2,4,4,6,6-hexabromo-2,2,4,4,6,6-hexahydro-
Formula: Br6 N3 P3
CAS: 13701-85-4
Molecular weight: 609
Origin: D.B.SOWERBY, UNIV. OF NOTTINGHAM, U.K
m/z	RELATIVE INTENSITY
45	590
76	640
90	290
100	160
107	260
110	620
124	600
135	60
141	490
155	450
169	430
179	170
186	170
189	1600
203	20
214	140
218	10
234	650
248	30
265	20
273	750
279	70
293	430
304	50
313	40
327	160
358	20
372	3760
423	120
437	30
451	540
530	9999
609	240
