Mass Spectrum: Phosphinous chloride, bis(1,1-dimethylethyl)-
Formula: C8 H18 Cl P
CAS: 13716-10-4
Molecular weight: 180
m/z	RELATIVE INTENSITY
39	306
41	1888
55	510
56	204
57	9999
58	867
60	357
81	408
83	153
124	357
126	102
180	1377
181	120
182	500
183	41
