Mass Spectrum: 1-Phenyl-1-(trimethylsilyloxy)ethylene
Formula: C11 H16 O Si
CAS: 13735-81-4
Molecular weight: 192
Origin: NIST Mass Spectrometry Data Center
m/z	RELATIVE INTENSITY
15	310
18	30
26	40
27	240
28	170
29	360
30	30
31	90
37	20
38	70
39	400
40	40
41	70
42	210
43	1261
44	621
45	2873
46	220
47	1551
48	80
49	70
50	520
51	1511
52	210
53	210
54	20
55	160
56	30
57	180
58	170
59	300
60	190
61	561
62	140
63	380
64	80
65	330
66	60
67	50
68	20
69	30
70	80
71	90
72	631
73	2552
75	9999
76	1171
77	2893
78	260
79	60
81	651
83	20
85	60
86	20
87	50
89	320
91	721
92	60
93	70
95	30
98	20
99	10
101	90
102	540
103	791
104	110
105	470
106	50
107	90
109	20
115	420
116	100
117	440
118	460
119	130
120	90
121	320
122	40
123	10
128	20
129	40
130	10
131	60
132	20
133	110
135	2512
136	380
137	110
138	10
143	10
145	100
146	20
147	130
148	40
149	330
150	40
151	30
159	140
160	30
161	260
162	40
163	20
173	20
174	10
175	100
177	5265
178	841
179	240
180	20
189	20
191	6286
192	3023
193	701
194	130
195	10
