Mass Spectrum: t-Boc-sarcosine
Formula: C8 H15 N O4
CAS: 13734-36-6
Molecular weight: 189
Origin: NIST Mass Spectrometry Data Center
m/z	RELATIVE INTENSITY
13	70
15	540
17	20
18	350
19	90
23	80
26	150
27	801
28	340
29	1792
30	70
31	440
38	180
39	1441
40	400
41	4884
42	2122
43	1732
44	6676
45	961
50	130
51	110
53	160
55	350
56	871
57	9999
58	691
59	921
60	120
88	3353
89	1802
90	1421
91	70
116	1021
130	200
134	290
144	210
145	160
