Mass Spectrum: Gibbane-1,10-dicarboxylic acid, 4a-(hydroxymethyl)-1-methyl-8-methylene-, 1,4a-lactone, 10-methyl ester, (1.alpha.,4a.alpha.,4b.beta.,10.beta.)-
Formula: C21 H28 O4
CAS: 13744-19-9
Molecular weight: 344
Origin: J.MACMILLAN UNIVERSITY OF BRISTOL, UK
m/z	RELATIVE INTENSITY
27	900
28	1900
29	1200
30	100
31	300
32	400
33	100
37	100
38	100
39	1300
40	300
41	4300
42	400
43	1700
44	300
45	400
50	100
51	400
52	200
53	1200
54	300
55	2300
56	200
57	400
58	100
59	1100
63	200
64	100
65	900
66	300
67	1500
68	300
69	1000
70	300
71	400
72	100
73	300
74	100
75	200
76	100
77	2300
78	800
79	2700
80	500
81	1800
82	300
83	300
84	100
85	400
87	100
89	100
90	100
91	3900
92	800
93	1700
94	500
95	1000
96	200
97	300
98	200
99	300
102	200
103	500
104	500
105	2100
106	400
107	800
108	300
109	400
115	1200
116	500
117	1500
118	500
119	1000
120	300
121	500
122	100
123	200
125	100
127	400
128	1300
129	1800
130	800
131	1600
132	500
133	900
134	300
135	300
137	300
141	1300
142	700
143	1300
144	400
145	1200
146	300
147	600
148	100
149	400
151	200
152	300
153	300
154	400
155	1600
156	600
157	1200
158	600
159	1500
160	300
161	200
162	100
163	200
164	200
165	200
166	100
167	300
168	300
169	1200
170	400
171	800
172	200
173	200
174	100
175	100
176	100
177	100
178	100
179	100
180	100
181	400
182	300
183	1300
184	500
185	600
186	200
187	100
188	100
189	100
190	200
191	400
192	200
195	2300
196	1300
197	1900
198	600
199	400
200	100
201	100
202	100
203	100
204	100
205	100
206	100
207	100
208	100
209	400
210	400
211	800
212	200
213	200
214	100
215	200
216	200
217	400
218	200
219	100
223	700
224	200
225	600
226	600
227	500
228	400
229	300
230	200
231	100
237	300
238	1900
239	9999
240	2400
241	900
242	300
243	500
244	100
251	100
254	100
255	500
256	300
257	300
266	400
267	300
268	100
269	200
270	100
271	100
283	300
284	5000
285	1600
286	300
298	1200
299	600
300	100
312	2200
313	1100
314	200
326	200
344	2300
345	600
346	100
