Mass Spectrum: 1H-Imidazole-2-carboxaldehyde, 1-methyl-
Formula: C5 H6 N2 O
CAS: 13750-81-7
Molecular weight: 110
Origin: DC-25-5
m/z	RELATIVE INTENSITY
37	200
38	300
40	1201
41	1001
42	2002
51	200
52	701
53	500
54	2803
55	1201
56	1501
66	200
67	200
79	200
80	200
81	3503
82	5505
83	300
109	1501
110	9999
111	701
