Mass Spectrum: Benzoic acid, 4-nitro-, 1-methylethyl ester
Formula: C10 H11 N O4
CAS: 13756-40-6
Molecular weight: 209
Origin: V.Zaikin,Topchiev Inst.Petrochem.Synth.,Moscow
m/z	RELATIVE INTENSITY
26	40
27	160
28	30
29	40
30	80
31	30
35	20
36	110
37	30
38	60
39	240
40	60
41	480
42	681
43	851
44	110
45	40
49	20
50	480
51	120
52	40
53	40
58	20
59	901
60	30
62	30
63	100
64	130
65	490
66	40
73	30
74	220
75	490
76	1161
77	160
78	70
79	60
81	40
90	10
91	30
92	460
93	130
94	40
103	170
104	1581
105	180
106	20
107	20
109	60
110	10
117	10
118	10
119	10
120	490
121	821
122	220
123	70
124	10
134	330
135	170
136	20
137	150
138	40
148	10
149	20
150	9999
151	2322
152	220
153	20
163	60
164	210
165	40
167	60
168	7447
169	510
170	80
178	10
179	80
191	10
192	20
193	190
194	90
195	10
208	20
209	230
210	30
