Mass Spectrum: Phosphoryl chloride difluoride
Formula: Cl F2 O P
CAS: 13769-75-0
Molecular weight: 120
m/z	RELATIVE INTENSITY
31	350
32	20
35	330
37	100
38	40
42	30
44	30
47	540
50	530
52	50
66	470
69	1561
85	9999
101	1862
103	591
120	8077
122	2602
