Mass Spectrum: Nitrogen fluoride, (E)-
Formula: F2 N2
CAS: 13776-62-0
Molecular weight: 66
m/z	RELATIVE INTENSITY
14	2452
19	540
28	9999
29	80
33	1141
34	10
47	9709
48	70
66	2562
