Mass Spectrum: 2-Phenoxybutyric acid
Formula: C10 H12 O3
CAS: 13794-14-4
Molecular weight: 180
Origin: NIST Mass Spectrometry Data Center, 1994
m/z	RELATIVE INTENSITY
15	256
19	44
26	264
27	1297
29	702
30	35
31	219
37	132
38	516
39	2718
40	376
41	1403
42	168
43	364
44	35
45	1564
46	50
47	13
50	530
51	1757
52	159
53	102
54	13
55	328
56	19
57	87
58	20
59	89
60	14
61	39
62	145
63	430
64	13
65	1568
66	1477
67	113
68	96
69	337
70	26
73	29
74	129
75	91
76	14
77	2458
78	306
79	420
80	27
81	10
87	57
91	336
92	104
94	9999
95	1076
96	74
103	22
105	111
107	1678
108	149
109	12
115	71
116	13
117	18
119	54
120	23
121	16
123	18
133	53
135	3741
136	404
137	27
152	8
180	3802
181	408
182	44
