Mass Spectrum: Salicin
Formula: C13 H18 O7
CAS: 138-52-3
Molecular weight: 286
Origin: Japan AIST/NIMC Database- Spectrum MS-NW-1793
m/z	RELATIVE INTENSITY
14	40
15	329
16	20
17	99
18	409
19	40
25	10
26	129
27	699
28	319
29	1039
30	159
31	1459
32	109
36	20
37	70
38	149
39	979
40	159
41	919
42	449
43	1689
44	349
45	1389
46	40
47	169
49	50
50	309
51	799
52	489
53	419
54	80
55	789
56	409
57	2069
58	119
59	189
60	1699
61	1429
62	99
63	229
64	80
65	409
66	119
67	139
68	90
69	1209
70	269
71	629
72	179
73	2509
74	339
75	139
76	179
77	2019
78	4129
79	689
80	70
81	269
82	50
83	129
84	119
85	1819
86	159
87	1109
88	109
89	319
90	139
91	969
92	99
93	109
94	109
95	359
96	60
97	639
98	189
99	269
100	30
101	249
102	70
103	199
104	90
105	249
106	9999
107	3609
108	1239
109	239
110	40
111	30
112	20
113	109
114	60
115	159
116	40
117	20
118	30
119	239
120	50
121	419
122	409
123	229
124	8759
125	699
126	90
127	429
128	40
129	30
130	10
131	70
132	20
133	60
134	20
135	369
136	50
137	20
138	10
139	10
143	20
144	60
145	349
146	30
147	30
148	20
149	30
150	10
151	10
152	10
160	10
161	30
162	229
163	30
166	10
177	10
179	10
237	10
