Mass Spectrum: dl-Noradrenaline
Formula: C8 H11 N O3
CAS: 138-65-8
Molecular weight: 169
Origin: Japan AIST/NIMC Database- Spectrum MS-NW-8325
m/z	RELATIVE INTENSITY
15	549
27	1109
28	1549
29	829
30	9999
31	829
32	999
39	2219
40	169
41	509
42	249
43	939
44	249
45	459
50	549
51	1379
52	549
53	829
54	269
55	1379
57	829
62	269
63	829
64	549
65	5269
66	829
67	829
68	269
69	549
71	549
76	269
77	1659
78	1379
79	549
80	549
81	829
82	269
83	269
93	7769
94	1379
95	549
97	269
103	269
104	829
105	549
106	549
107	269
108	269
109	549
110	549
111	2219
122	829
123	2499
124	1379
132	549
134	549
135	269
136	549
137	1379
138	1379
139	9999
140	2219
141	269
149	549
150	549
151	4719
152	549
169	1379
