Mass Spectrum: (Z)-Difluorodiazene
Formula: F2 N2
CAS: 13812-43-6
Molecular weight: 66
m/z	RELATIVE INTENSITY
14	1351
19	811
28	4604
29	40
33	581
34	10
47	9999
48	100
66	50
