Mass Spectrum: Diphosphorous tetrafluoride
Formula: F4 O P2
CAS: 13812-07-2
Molecular weight: 154
Origin: A.Pleshkova, Nesmeyanov Inst.Org.Elem.Cpds, Moscow
m/z	RELATIVE INTENSITY
16	40
19	120
25	40
31	591
47	2772
48	120
50	1682
51	120
66	430
69	9999
85	330
88	250
135	260
154	2042
155	10
