Mass Spectrum: Benzenemethanol, 3-phenoxy-
Formula: C13 H12 O2
CAS: 13826-35-2
Molecular weight: 200
Origin: NIST Mass Spectrometry Data Center
m/z	RELATIVE INTENSITY
26	20
27	160
28	20
29	180
30	30
31	250
37	40
38	210
39	1031
40	140
41	210
42	20
43	30
49	30
50	771
51	2452
52	340
53	300
54	20
55	200
56	10
57	30
61	50
62	240
63	921
64	390
65	1982
66	781
67	290
68	60
69	20
70	30
72	10
73	30
74	290
75	270
76	601
77	4134
78	941
79	3313
80	230
81	40
82	20
84	20
85	30
86	50
87	60
88	50
89	1061
90	220
91	550
92	120
93	1531
94	3543
95	771
96	50
97	10
98	40
99	160
101	30
102	90
103	70
104	60
105	510
106	160
107	2262
108	180
109	10
111	10
113	60
114	60
115	1511
116	190
117	30
118	20
119	10
120	10
121	250
122	711
123	150
124	20
125	10
126	50
127	270
128	741
129	260
130	30
131	60
132	10
137	10
138	20
139	420
140	100
141	1261
142	310
143	160
144	50
145	20
150	20
151	160
152	881
153	1742
154	360
155	220
156	30
157	40
158	10
164	20
165	120
166	20
168	310
169	721
170	170
171	1641
172	240
173	20
179	10
181	1952
182	420
183	470
184	80
185	10
197	100
198	80
199	611
200	9999
201	1672
202	160
203	10
