Mass Spectrum: 1-Propanamine, 3-(trimethoxysilyl)-
Formula: C6 H17 N O3 Si
CAS: 13822-56-5
Molecular weight: 179
Origin: RADIAN CORP
m/z	RELATIVE INTENSITY
15	130
27	120
28	640
29	320
30	8420
31	230
39	130
41	150
42	150
43	190
44	980
45	620
46	160
47	290
54	70
55	10
56	470
57	100
58	170
59	2850
60	870
61	1880
62	190
63	120
73	40
74	280
75	210
76	660
77	860
78	40
84	180
85	110
86	130
87	210
88	100
89	350
90	3180
91	6510
92	660
93	270
104	310
105	100
106	4110
107	1550
108	230
109	20
114	880
115	180
116	1250
117	450
118	790
119	1250
120	410
121	9999
122	1140
123	490
132	40
138	20
146	1450
147	3060
148	660
149	230
150	650
151	80
162	240
164	50
