Mass Spectrum: P2F4
Formula: F4 P2
CAS: 13824-74-3
Molecular weight: 138
Origin: A.Pleshkova, Nesmeyanov Inst.Org.Elem.Cpds, Moscow
m/z	RELATIVE INTENSITY
19	330
31	1241
50	2652
69	9999
88	781
119	1031
138	2953
