Mass Spectrum: Cyclohexanemethanol, 4-(1-methylethyl)-, cis-
Formula: C10 H20 O
CAS: 13828-37-0
Molecular weight: 156
m/z	RELATIVE INTENSITY
27	811
28	220
29	901
31	591
39	761
40	120
41	2262
42	220
43	1511
44	80
45	180
51	80
52	60
53	561
54	520
55	3863
56	260
57	1311
59	90
65	120
66	190
67	2142
68	460
69	3453
70	440
71	120
77	250
78	60
79	951
80	370
81	1792
82	1241
83	1311
84	120
91	150
93	571
94	1171
95	9999
96	1311
97	170
108	50
109	631
110	771
111	160
112	70
113	170
121	80
123	761
124	130
125	250
136	90
138	751
139	100
154	60
