Mass Spectrum: Rhenium, pentacarbonyliodo-
Formula: C5 I O5 Re
CAS: 13821-00-6
Molecular weight: 454
Origin: B.F.G.JOHNSON DEPT. OF CHEM., UNIV. OF MANCHESTER, UK
m/z	RELATIVE INTENSITY
199	2000
215	450
227	120
243	330
255	330
271	740
299	480
314	9999
327	1200
342	1890
370	2190
398	2450
426	1830
454	1230
