Mass Spectrum: 3-Cyclohexene-1-ethanol, .beta.,4-dimethyl-, [R-(R*,R*)]-
Formula: C10 H18 O
CAS: 13835-30-8
Molecular weight: 154
Origin: B.A.PAWSON HOFFMANN-LA ROCHE INC., NUTLEY, NEW JERSEY, USA
m/z	RELATIVE INTENSITY
41	2700
43	1000
53	1200
55	1900
65	500
67	3500
68	3800
69	900
77	1400
79	4300
80	1000
81	3800
91	1800
92	1300
93	8000
94	9999
95	6300
96	700
105	700
107	6600
108	1500
121	7900
122	1100
123	4500
124	500
136	5100
137	600
154	6600
155	800
