Mass Spectrum: Acetic acid, (acetyloxy)-
Formula: C4 H6 O4
CAS: 13831-30-6
Molecular weight: 118
Origin: J.Little, Eastman Chem. Comp.
m/z	RELATIVE INTENSITY
16	10
18	30
28	350
29	290
30	70
31	330
32	80
41	70
42	550
43	9999
44	260
45	320
46	20
56	10
58	20
59	280
60	10
61	40
73	1491
74	370
75	130
76	20
86	10
88	100
90	20
101	90
