Mass Spectrum: 3-Cyclohexene-1-ethanol, .beta.,4-dimethyl-, [S-(R*,S*)]-
Formula: C10 H18 O
CAS: 13835-75-1
Molecular weight: 154
Origin: Japan AIST/NIMC Database- Spectrum MS-NW-7326
m/z	RELATIVE INTENSITY
15	30
18	10
26	50
27	1229
28	219
29	1429
30	60
31	1299
32	60
36	10
37	30
38	99
39	2049
40	649
41	3679
42	519
43	1239
44	99
45	149
46	10
47	10
49	10
50	159
51	569
52	329
53	2419
54	419
55	4479
56	629
57	459
58	559
59	229
60	10
61	20
62	50
63	179
64	60
65	809
66	399
67	6279
68	7139
69	1679
70	339
71	409
72	60
73	20
74	30
75	30
76	20
77	2049
78	479
79	6159
80	1379
81	4649
82	549
83	269
84	299
85	179
86	30
87	20
88	10
89	50
90	20
91	2099
92	1279
93	8759
94	9999
95	6929
96	749
97	539
98	90
99	30
101	10
102	20
103	109
104	40
105	599
106	189
107	5349
108	1359
109	239
110	80
111	119
112	50
113	40
115	50
116	20
117	40
118	20
119	129
120	50
121	5949
122	719
123	2869
124	329
125	60
126	20
127	10
129	10
131	10
132	10
133	10
134	20
135	99
136	2809
137	369
138	30
139	70
140	10
152	10
153	10
154	2539
155	299
156	30
