Mass Spectrum: Trifluoroamine oxide
Formula: F3 N O
CAS: 13847-65-9
Molecular weight: 87
Origin: W.B.FOX, ALLIED CHEM. CORP., MORRISTOWN, N.J., USA
m/z	RELATIVE INTENSITY
14	1250
16	370
19	980
30	9999
33	410
49	160
52	130
68	7810
87	20
