Mass Spectrum: 7H-Furo[3,2-g][1]benzopyran-7-one, 2,3-dihydro-2-(1-hydroxy-1-methylethyl)-, (S)-
Formula: C14 H14 O4
CAS: 13849-08-6
Molecular weight: 246
Origin: T.HIGA DEPT. CHEM., UNIV. OF HAWAII, HONOLULU, HAWAII, USA
m/z	RELATIVE INTENSITY
43	2000
51	900
59	4000
69	800
77	1000
103	750
104	500
115	400
131	1600
147	550
149	550
158	550
159	1100
160	2700
175	1600
176	750
187	9999
188	8400
189	1400
213	2150
228	550
229	3100
230	550
244	1100
246	5300
247	1100
