Mass Spectrum: Fenchyl acetate
Formula: C12 H20 O2
CAS: 13851-11-1
Molecular weight: 196
Origin: NIST Mass Spectrometry Data Center, 1994
m/z	RELATIVE INTENSITY
4	23
14	52
15	556
18	23
27	747
28	250
29	737
31	44
32	32
39	1129
40	279
41	2891
42	32
43	9583
44	238
45	183
50	59
51	210
52	120
53	894
54	168
55	1233
56	244
57	472
58	35
59	140
61	50
63	40
65	332
66	149
67	1285
68	288
69	1432
70	169
71	623
72	1002
73	77
77	597
78	132
79	1212
80	4517
81	9999
82	1117
83	564
84	581
85	193
86	164
91	527
92	653
93	2394
94	414
95	644
96	158
97	228
98	181
99	112
105	172
107	1287
108	315
109	702
110	141
111	519
112	74
113	154
114	217
115	263
116	41
117	17
119	52
121	1864
122	178
123	250
124	47
125	96
126	34
135	403
136	2478
137	333
138	54
139	178
140	27
152	24
153	134
154	255
155	35
196	59
