Mass Spectrum: Bicyclo[2.2.1]heptan-2-one, 4,7,7-trimethyl-, (1R)-
Formula: C10 H16 O
CAS: 13854-85-8
Molecular weight: 152
Origin: A. DANIEL
m/z	RELATIVE INTENSITY
38	100
39	200
40	300
41	3300
42	200
43	300
50	200
51	400
52	200
53	1000
54	300
55	1300
56	200
57	300
63	100
65	300
66	200
67	1400
68	1400
69	9999
70	600
77	600
78	100
79	600
80	2500
81	9600
82	1400
83	600
84	300
91	500
92	100
93	500
94	200
95	3000
96	600
97	400
107	600
108	1000
109	3100
110	500
111	100
123	100
124	300
137	700
138	100
152	5000
153	600
