Mass Spectrum: 1H-Pyrazolo[4,3-d]pyrimidin-7-amine
Formula: C5 H5 N5
CAS: 13877-56-0
Molecular weight: 135
m/z	RELATIVE INTENSITY
27	730
28	330
29	410
37	230
38	470
39	580
40	230
42	270
43	1100
51	250
52	540
53	1760
54	3300
55	700
56	540
64	450
65	270
66	1510
78	190
80	240
81	1670
82	160
92	160
93	620
94	160
107	220
108	810
119	240
134	220
135	9999
136	1050
