Mass Spectrum: .beta.-Ocimene
Formula: C10 H16
CAS: 13877-91-3
Molecular weight: 136
Origin: NIST Mass Spectrometry Data Center
m/z	RELATIVE INTENSITY
15	20
26	40
27	981
28	110
29	771
30	10
37	20
38	120
39	2322
40	400
41	3173
42	210
43	1371
44	50
45	10
50	310
51	911
52	460
53	2112
54	220
55	1481
56	130
57	70
58	50
59	10
61	20
62	100
63	320
64	70
65	1001
66	290
67	1371
68	360
69	250
70	30
74	50
75	40
76	30
77	3653
78	561
79	4524
80	3663
81	891
82	90
83	20
85	30
86	10
87	10
89	60
91	5005
92	2492
93	9999
94	1141
95	140
96	10
102	30
103	330
104	90
105	1842
106	480
107	761
108	120
109	40
115	100
116	20
117	70
118	10
119	380
120	80
121	1531
122	150
135	10
136	530
137	60
139	40
