Mass Spectrum: S-Methyl methanethiosulfinate
Formula: C2 H6 O S2
CAS: 13882-12-7
Molecular weight: 110
Origin: J. MADSEN,DEP. ORG. CHEM.,TECH. UNIV. DENMARK,LYNGBY,DENMARK
m/z	RELATIVE INTENSITY
28	450
29	840
31	350
32	3900
33	140
34	210
40	1680
44	290
45	4610
46	2190
47	7350
48	550
49	380
61	250
62	400
63	2590
64	9999
65	360
66	490
77	330
79	420
80	140
94	210
95	3820
97	350
110	6090
111	250
112	570
