Mass Spectrum: Aminomethanesulfonic acid
Formula: C H5 N O3 S
CAS: 13881-91-9
Molecular weight: 111
Origin: Japan AIST/NIMC Database- Spectrum MS-NW-4999
m/z	RELATIVE INTENSITY
12	10
13	10
14	30
15	219
16	1369
17	2029
18	129
24	60
26	10
27	80
28	459
29	169
30	90
31	50
32	459
33	20
34	60
38	20
39	30
40	90
41	119
42	529
43	319
44	109
45	60
48	4269
49	40
50	209
55	10
57	20
58	30
59	10
64	9999
65	90
66	499
69	10
71	10
76	90
96	20
