Mass Spectrum: 1,2,3-Propanetriol, tripropanoate
Formula: C12 H20 O6
CAS: 139-45-7
Molecular weight: 260
Origin: Japan AIST/NIMC Database- Spectrum MS-NW-3943
m/z	RELATIVE INTENSITY
14	20
15	30
18	20
26	50
27	349
28	599
29	1839
30	50
31	50
32	129
39	20
41	40
42	30
43	70
44	10
45	10
55	80
56	189
57	9999
58	339
59	30
71	70
73	10
74	20
75	50
87	60
88	20
89	20
100	50
101	10
112	20
113	30
114	90
115	30
117	259
118	10
129	299
130	169
131	129
149	10
173	579
174	50
186	20
187	179
188	20
