Mass Spectrum: Ethyldiethanolamine
Formula: C6 H15 N O2
CAS: 139-87-7
Molecular weight: 133
Origin: NIST Mass Spectrometry Data Center, 2010
m/z	RELATIVE INTENSITY
15	60
18	20
19	40
26	40
27	390
28	490
29	550
30	1451
31	280
39	30
40	30
41	280
42	1341
43	641
44	661
45	2022
46	50
52	20
53	10
54	120
55	70
56	2082
57	260
58	4664
59	250
60	90
68	20
69	10
70	180
71	90
72	260
73	30
74	871
75	50
84	130
85	20
86	130
87	30
88	270
89	20
100	50
102	9999
103	621
104	70
114	40
116	10
118	110
119	10
132	60
133	160
134	10
