Mass Spectrum: 4-Hexen-3-one, 5-methyl-
Formula: C7 H12 O
CAS: 13905-10-7
Molecular weight: 112
Origin: Insect Chem. Ecol. Lab., USDA, Beltsville, MD 20705
m/z	RELATIVE INTENSITY
41	216
42	88
43	99
45	17
46	8
48	14
49	57
50	135
51	181
52	86
53	581
54	147
55	3034
56	171
57	204
58	17
60	4
61	11
62	20
63	30
64	12
65	43
66	31
67	79
68	12
69	26
73	4
74	25
76	4
77	86
78	19
79	69
81	34
82	141
83	9999
84	651
85	51
86	39
87	9
88	11
89	4
92	5
93	22
94	5
95	21
96	9
97	21
98	3
110	12
111	37
112	2962
113	251
114	17
115	3
