Mass Spectrum: 2',3',4' Trimethoxyacetophenone
Formula: C11 H14 O4
CAS: 13909-73-4
Molecular weight: 210
Origin: Japan AIST/NIMC Database- Spectrum MS-NW-7523
m/z	RELATIVE INTENSITY
14	30
15	559
18	10
26	30
27	129
28	199
29	80
30	10
31	20
37	50
38	299
39	389
40	30
41	60
42	50
43	2499
44	60
45	60
49	40
50	259
51	329
52	149
53	339
54	30
55	80
56	10
57	10
59	40
61	50
62	99
63	189
64	109
65	259
66	339
67	70
68	20
69	50
73	10
74	50
75	109
76	139
77	529
78	239
79	249
80	90
81	199
82	40
83	40
85	10
89	30
90	50
91	149
92	249
93	179
94	349
95	369
96	70
97	179
98	30
101	10
103	30
104	60
105	119
106	309
107	299
108	90
109	469
110	80
111	20
117	20
118	20
119	90
120	199
121	319
122	349
123	229
124	189
125	99
126	10
131	30
132	30
133	60
134	369
135	429
136	99
137	819
138	119
139	209
140	20
145	20
146	10
147	30
148	40
149	289
150	199
151	969
152	1609
153	259
154	50
159	10
160	10
161	30
162	269
163	139
164	99
165	439
166	99
167	279
168	30
169	10
175	10
176	10
177	529
178	70
179	279
180	499
181	219
182	30
183	10
187	10
189	10
190	10
191	50
192	419
193	629
194	90
195	9999
196	1139
197	149
198	10
207	10
208	10
209	99
210	3869
211	489
212	60
