Mass Spectrum: 3-Diethylaminobutyranilide
Formula: C14 H22 N2 O
CAS: 13912-77-1
Molecular weight: 234
Origin: Finnigan MAT: Toxicological Library (LIBR-TX)
m/z	RELATIVE INTENSITY
42	474
44	909
56	507
58	689
70	571
72	3337
77	519
92	309
93	615
100	9999
101	623
112	400
114	194
120	1205
126	382
149	190
161	202
162	478
205	1993
206	305
219	1011
220	203
234	206
235	94
