Mass Spectrum: Pyrazine, 2-ethenyl-6-methyl-
Formula: C7 H8 N2
CAS: 13925-09-2
Molecular weight: 120
m/z	RELATIVE INTENSITY
27	611
39	2002
40	1732
52	5845
54	2182
66	400
79	260
94	1341
105	150
119	2362
120	9999
121	801
