Mass Spectrum: Pyrazine, 2-ethenyl-5-methyl-
Formula: C7 H8 N2
CAS: 13925-08-1
Molecular weight: 120
m/z	RELATIVE INTENSITY
27	631
39	1952
40	1091
52	6105
54	3083
66	250
79	1001
93	881
94	671
105	70
119	1511
120	9999
121	801
