Mass Spectrum: 2-Isobutyl-3-methylpyrazine
Formula: C9 H14 N2
CAS: 13925-06-9
Molecular weight: 150
Origin: Japan AIST/NIMC Database- Spectrum MS-NW-7129
m/z	RELATIVE INTENSITY
14	10
15	129
26	359
27	649
28	149
29	109
30	20
37	30
38	119
39	929
40	469
41	969
42	829
43	619
44	30
50	70
51	149
52	289
53	379
54	129
55	60
56	40
57	30
59	20
60	90
62	10
63	20
64	60
65	109
66	309
67	979
68	179
69	30
76	10
77	50
78	50
79	70
80	209
81	129
82	199
83	20
91	20
92	30
93	379
94	219
95	90
104	10
105	20
106	50
107	1029
108	9999
109	759
110	30
118	20
119	109
120	30
121	60
122	30
131	10
132	20
133	90
134	30
135	1419
136	139
149	359
150	379
151	40
