Mass Spectrum: Pyrazine, 2-ethyl-3,5-dimethyl-
Formula: C8 H12 N2
CAS: 13925-07-0
Molecular weight: 136
Origin: GEORGE R. WALLER AND BOBBY R. JOHNSON, OKLAHOMA STATE UNIV, USA
m/z	RELATIVE INTENSITY
37	83
38	417
39	2833
40	667
41	1167
42	3583
43	1000
50	167
51	500
52	750
53	1333
54	2000
55	500
56	1583
57	333
58	167
60	83
61	250
63	83
64	83
65	167
66	250
67	417
68	167
69	250
70	83
71	167
72	83
75	250
76	83
77	83
78	83
79	83
80	500
81	250
82	83
83	83
85	83
86	83
87	83
88	83
89	250
93	83
94	167
95	333
96	417
97	167
103	83
105	83
106	84
107	383
108	1667
109	417
117	83
119	83
120	83
121	500
122	250
133	167
134	250
135	9999
136	7750
137	667
