Mass Spectrum: Nickel, bis(dibutylcarbamodithioato-S,S')-, (SP-4-1)-
Formula: C18 H36 N2 Ni S4
CAS: 13927-77-0
Molecular weight: 466
Origin: Japan AIST/NIMC Database- Spectrum MS-NW-7113
m/z	RELATIVE INTENSITY
15	40
26	40
27	459
28	259
29	2439
30	659
31	20
32	30
33	20
34	40
37	10
38	20
39	339
40	40
41	2319
42	359
43	229
44	469
45	70
46	20
47	90
49	10
50	20
51	30
52	40
53	109
54	99
55	959
56	269
57	5249
58	329
59	50
60	969
61	40
62	60
63	10
64	20
65	40
66	20
67	60
68	90
69	60
70	269
71	40
72	229
73	40
74	50
75	40
76	129
77	50
78	30
79	40
80	249
81	109
82	109
83	40
84	329
85	169
86	799
87	90
88	60
89	129
90	20
91	60
92	30
93	90
94	219
95	40
96	70
97	40
98	179
99	80
100	60
101	60
102	50
103	60
104	50
105	40
106	30
107	30
108	129
109	329
110	99
111	60
112	119
113	229
114	259
115	169
116	3699
117	309
118	229
119	129
120	90
121	40
122	109
123	60
124	60
125	50
126	209
127	60
128	1959
129	279
130	60
131	40
132	50
133	30
134	109
135	50
136	299
137	70
138	90
139	60
140	419
141	249
142	139
143	159
144	109
145	119
146	119
147	179
148	60
149	219
150	179
151	279
152	109
153	50
154	70
155	40
156	50
157	40
158	60
159	60
160	60
161	129
162	50
163	40
164	50
165	30
166	90
167	30
168	119
169	30
170	109
171	50
172	2439
173	489
174	479
175	159
176	179
177	70
178	119
179	40
180	129
181	139
182	109
183	99
184	80
185	119
186	159
187	799
188	169
189	389
190	99
191	159
192	159
193	60
194	129
195	50
196	99
197	50
198	319
199	90
200	339
201	469
202	319
203	299
204	179
205	199
206	80
207	99
208	30
209	20
210	20
211	20
212	50
213	30
214	139
215	40
216	60
217	20
218	30
219	50
220	20
221	30
222	20
223	50
224	60
225	10
226	179
227	70
228	519
229	479
230	439
231	249
232	149
233	279
234	169
235	70
236	30
237	50
238	10
239	20
245	10
249	10
250	10
251	20
255	10
256	10
257	10
258	20
259	20
260	40
261	30
262	679
263	589
264	379
265	309
266	90
267	60
268	30
269	20
270	10
271	50
272	20
273	40
274	20
275	20
276	10
277	10
278	20
279	10
280	129
281	40
282	10
285	10
287	119
288	30
289	20
290	10
294	30
295	30
296	20
297	20
299	10
300	10
301	20
302	10
304	10
306	10
307	40
308	10
309	20
310	10
311	20
312	40
313	239
314	60
315	139
316	40
317	70
318	20
319	30
320	20
321	10
326	20
330	10
337	10
338	40
340	20
341	10
344	40
345	70
346	30
347	129
348	30
349	50
350	20
351	20
353	10
355	20
356	99
357	109
358	60
359	60
360	30
361	20
362	10
377	20
379	20
389	40
390	20
391	20
399	20
400	10
401	50
402	109
403	50
404	60
405	30
406	20
407	10
409	10
410	10
421	10
431	10
432	80
433	129
434	789
435	239
436	469
437	139
438	109
439	40
440	30
441	10
449	10
451	30
452	10
453	10
455	10
456	10
462	20
464	30
465	199
466	9999
467	2599
468	5859
469	1559
470	1589
471	389
472	349
473	109
474	40
475	10
