Mass Spectrum: Pyrazine, 2-methyl-5-(1-methylethyl)-
Formula: C8 H12 N2
CAS: 13925-05-8
Molecular weight: 136
m/z	RELATIVE INTENSITY
27	961
39	1942
53	901
67	601
80	210
94	781
108	3363
121	9999
122	801
135	2182
136	3863
137	300
