Mass Spectrum: 5-Bromovaleric acid, heptyl ester
Formula: C12 H23 Br O2
CAS: 13931-43-6
Molecular weight: 278
Origin: Zaikin V.G., TIPS RAS, Moscow, Russia
m/z	RELATIVE INTENSITY
26	160
27	1591
28	30
29	2482
30	60
31	90
36	100
38	70
39	1091
40	230
41	4374
42	2042
43	3063
44	330
45	90
50	30
51	60
52	40
53	490
54	761
55	9999
56	7377
57	6656
58	310
59	561
60	50
67	240
68	911
69	3623
70	6306
71	490
73	951
74	70
79	80
80	120
81	230
82	210
83	2843
84	210
85	90
87	110
93	70
95	100
96	90
97	480
98	6856
99	671
100	260
101	8217
102	470
103	60
106	50
107	290
108	60
109	270
113	150
115	70
129	100
135	2752
136	140
137	2692
138	110
139	30
143	280
157	150
162	80
163	4574
164	330
165	4534
166	240
169	70
171	40
180	711
181	5195
182	961
183	5015
184	270
193	30
199	220
207	90
209	90
221	100
223	100
236	30
238	30
