Mass Spectrum: sec-Butylamine
Formula: C4 H11 N
CAS: 13952-84-6
Molecular weight: 73
Origin: Japan AIST/NIMC Database- Spectrum MS-NW- 928
m/z	RELATIVE INTENSITY
14	20
15	249
17	30
18	1009
25	10
26	119
27	529
28	599
29	319
30	539
32	20
37	20
38	40
39	219
40	80
41	979
42	699
43	329
44	9999
45	259
50	20
51	40
52	40
53	40
54	60
55	259
56	239
57	159
58	1159
59	40
70	40
71	10
72	189
73	70
