Mass Spectrum: Manganese, acetylpentacarbonyl-, (OC-6-21)-
Formula: C7 H3 Mn O6
CAS: 13963-91-2
Molecular weight: 238
Origin: ETHYL CORPORATION, FERNDALE, MICHIGAN
m/z	RELATIVE INTENSITY
13	50
14	230
15	460
16	390
26	100
27	140
28	9999
29	220
39	170
40	90
41	120
42	70
43	170
44	40
53	30
54	20
55	660
56	20
59	20
67	50
68	50
69	40
70	200
77	20
79	20
83	110
91	20
98	10
105	10
111	40
126	10
139	30
154	30
167	20
182	50
195	10
