Mass Spectrum: Aluminum tris(acetylacetonate)
Formula: C15 H21 Al O6
CAS: 13963-57-0
Molecular weight: 324
Origin: Japan AIST/NIMC Database- Spectrum MS-NW-5556
m/z	RELATIVE INTENSITY
15	20
18	20
27	70
28	40
39	10
42	10
43	299
44	10
57	20
59	30
61	20
69	10
82	10
83	40
84	10
85	50
97	20
98	20
99	50
100	20
101	70
105	70
111	30
113	10
123	10
125	60
126	159
127	119
140	60
141	689
142	50
143	389
144	20
147	219
151	20
153	40
165	30
166	10
167	159
168	10
181	30
182	30
183	139
184	10
185	10
195	109
196	20
207	70
208	10
209	70
210	10
224	129
225	9999
226	1149
227	139
228	10
251	10
281	10
324	699
325	119
326	10
