Mass Spectrum: Bromine azide
Formula: Br N3
CAS: 13973-87-0
Molecular weight: 121
Origin: J. COMBOURIEU, CEN. RECH. CHIM. COMB., CNRS, ORLEANS, FRANCE
m/z	RELATIVE INTENSITY
14	2500
28	9999
29	100
42	7000
43	150
79	2500
81	2450
93	6500
95	6350
121	1800
123	1760
