Mass Spectrum: 3,5-Dibromo-4-methylphenol
Formula: C7 H6 Br2 O
CAS: 13979-81-2
Molecular weight: 264
Origin: NIST Mass Spectrometry Data Center, 1994
m/z	RELATIVE INTENSITY
14	4
15	37
17	55
18	69
25	148
26	386
27	454
29	4
36	85
37	639
38	1512
39	848
40	69
42	34
43	25
48	59
49	507
50	2883
51	4620
52	1244
53	1814
54	143
55	235
60	133
61	719
62	1104
63	900
64	88
65	42
66	173
67	128
73	341
74	891
75	1165
76	871
77	3338
78	3153
79	834
80	233
81	471
82	209
83	149
84	74
85	151
86	184
87	143
88	74
89	57
91	60
92	408
93	355
95	63
103	76
104	213
105	2418
106	1610
107	257
116	58
117	110
118	76
119	124
128	55
129	77
130	51
131	187
132	69
133	266
134	63
135	44
141	82
143	57
145	97
155	162
156	310
157	325
158	284
159	222
161	40
173	109
183	164
184	695
185	5093
186	1051
187	5011
188	438
190	77
237	72
263	823
264	4997
265	2175
266	9999
267	1649
268	5305
269	374
