Mass Spectrum: Hexanoic acid, 5-oxo-, methyl ester
Formula: C7 H12 O3
CAS: 13984-50-4
Molecular weight: 144
Origin: P. VAINIOTALO, DEPT. CHEM., UNIV. JOENSUU, JOENSUU, FINLAND
m/z	RELATIVE INTENSITY
15	1150
27	500
29	330
39	460
41	600
42	1160
43	9999
44	370
55	2060
58	390
59	2280
69	220
71	530
74	2840
84	820
85	1150
87	680
97	200
101	600
112	2800
113	1780
129	210
144	310
