Mass Spectrum: Hexahydro-1,3,5-trinitroso-1,3,5-triazine
Formula: C3 H6 N6 O3
CAS: 13980-04-6
Molecular weight: 174
Origin: LAC, NIDDK, NIH, Bethesda, MD 20892
m/z	RELATIVE INTENSITY
42	9999
43	209
45	18
46	8
53	69
54	15
55	83
56	110
57	17
58	119
59	49
69	10
70	5
71	3
73	24
82	29
83	7
88	3
100	1350
101	34
117	16
140	3
174	4
