Mass Spectrum: trans-2-Pentenoic acid
Formula: C5 H8 O2
CAS: 13991-37-2
Molecular weight: 100
Origin: NIST Mass Spectrometry Data Center
m/z	RELATIVE INTENSITY
12	90
17	90
18	60
25	170
26	911
27	2823
28	1191
29	731
30	240
36	170
37	601
38	1211
39	6636
40	861
41	2512
42	340
43	1171
44	170
45	891
46	190
49	280
50	1291
51	1101
52	400
53	2612
54	3313
55	9999
56	2412
57	1471
58	1211
60	320
66	90
68	280
69	130
71	601
72	270
73	490
79	70
81	741
82	1782
83	1191
84	140
85	430
100	6266
101	410
