Mass Spectrum: N,N'-Diacetyl-1,4-phenylenediamine
Formula: C10 H12 N2 O2
CAS: 140-50-1
Molecular weight: 192
Origin: NIST Mass Spectrometry Data Center, 1994
m/z	RELATIVE INTENSITY
15	590
16	41
38	122
39	284
40	98
43	3809
50	140
51	340
52	863
53	1115
54	251
62	123
63	299
64	188
65	183
67	127
78	192
79	577
80	2355
81	515
90	171
91	119
92	101
105	357
107	2841
108	9999
109	1033
121	104
134	230
150	2381
151	222
192	3167
193	362
