Mass Spectrum: 2-Propenoic acid, ethyl ester
Formula: C5 H8 O2
CAS: 140-88-5
Molecular weight: 100
Origin: NIST Mass Spectrometry Data Center, 1998.
m/z	RELATIVE INTENSITY
13	10
14	20
15	80
19	10
24	10
25	70
26	630
27	2390
28	300
29	1380
30	80
31	140
37	10
38	20
39	40
40	20
41	220
42	110
43	620
44	220
45	1150
46	30
52	20
53	210
54	680
55	9999
56	1680
57	220
58	520
59	20
60	20
69	10
70	10
71	50
72	150
73	790
74	30
81	40
82	570
83	60
84	10
85	540
86	20
99	840
100	110
101	20
