Mass Spectrum: 1,3-Bis(hydroxymethyl)urea
Formula: C3 H8 N2 O3
CAS: 140-95-4
Molecular weight: 120
Origin: Japan AIST/NIMC Database- Spectrum MS-NW- 361
m/z	RELATIVE INTENSITY
12	70
13	90
14	99
15	70
16	779
17	3159
18	2529
19	50
26	50
27	429
28	2849
29	9999
30	7749
31	3789
32	80
41	129
42	329
43	1609
44	9359
45	549
46	9369
47	589
48	70
53	40
55	70
56	459
57	99
58	90
59	959
60	4629
61	129
62	159
69	50
70	30
71	50
72	769
73	239
74	919
75	40
76	40
83	50
85	99
89	909
90	60
95	40
97	40
101	459
102	509
103	70
119	80
