Mass Spectrum: 2-(2-Diethylaminoethoxy)-ethanol
Formula: C8 H19 N O2
CAS: 140-82-9
Molecular weight: 161
Origin: Japan AIST/NIMC Database- Spectrum MS-NW-1419
m/z	RELATIVE INTENSITY
14	10
15	119
17	10
18	40
26	30
27	339
28	429
29	519
30	1109
31	179
32	10
39	20
40	10
41	99
42	519
43	119
44	539
45	1009
46	20
54	40
55	30
56	399
57	149
58	1469
59	70
60	10
68	10
69	10
70	109
71	70
72	239
73	50
74	20
75	50
76	20
84	80
85	30
86	9999
87	589
88	30
89	30
98	10
99	20
100	369
101	50
102	90
114	10
116	10
130	90
131	10
142	10
146	99
160	30
161	169
162	10
