Mass Spectrum: Acetic acid, 4-methylphenyl ester
Formula: C9 H10 O2
CAS: 140-39-6
Molecular weight: 150
Origin: Japan AIST/NIMC Database- Spectrum MS-NW-3364
m/z	RELATIVE INTENSITY
14	40
15	199
26	40
27	239
28	40
29	10
37	20
38	60
39	279
40	30
41	30
42	80
43	1369
44	30
49	20
50	189
51	389
52	239
53	249
54	20
55	50
61	20
62	60
63	139
64	40
65	149
66	30
68	10
74	30
75	20
76	10
77	839
78	279
79	599
80	339
81	40
86	10
89	60
90	419
91	259
92	20
94	30
105	20
106	60
107	4149
108	9999
109	779
110	40
121	10
150	1019
151	109
152	10
