Mass Spectrum: Aramite
Formula: C15 H23 Cl O4 S
CAS: 140-57-8
Molecular weight: 334
Origin: FDA, Los Angeles District Laboratory
m/z	RELATIVE INTENSITY
51	650
55	300
59	1500
60	300
63	4000
64	4000
65	2150
66	500
74	450
77	1600
78	800
79	750
88	350
89	250
90	250
91	1850
92	200
93	250
94	250
95	1000
103	500
105	950
106	450
107	2650
108	350
109	450
115	450
116	300
117	650
118	800
119	750
120	600
121	850
122	200
123	500
131	250
133	700
134	500
135	5749
136	750
147	350
149	200
150	850
163	550
174	200
175	9999
176	1550
177	350
185	1750
187	900
190	1650
191	1750
192	200
197	800
199	250
211	300
319	1650
320	400
321	750
334	450
