Mass Spectrum: Dibenzyl sebacate
Formula: C24 H30 O4
CAS: 140-24-9
Molecular weight: 382
Origin: NIST Mass Spectrometry Data Center, 1994
m/z	RELATIVE INTENSITY
12	2
13	4
15	7
27	264
29	301
30	9
31	22
37	10
39	450
41	859
42	301
43	624
44	25
45	42
50	80
51	259
52	81
53	81
54	10
55	1008
56	197
57	213
58	29
59	50
60	36
61	12
62	49
63	175
64	12
65	1046
66	74
67	196
68	139
69	746
70	107
71	94
73	94
74	16
75	16
76	12
77	461
78	150
79	530
80	84
81	370
82	75
83	292
84	153
85	58
86	11
87	46
88	11
89	435
90	11
91	9999
92	881
93	200
94	42
95	226
96	11
97	876
98	284
99	47
101	81
102	6
103	14
104	48
105	160
106	6
107	381
108	418
109	53
111	253
112	40
113	10
115	67
117	52
118	13
119	52
120	10
121	702
122	74
123	24
124	7
125	9
127	3
128	4
129	19
130	17
131	72
132	9
133	13
134	8
135	11
137	35
139	1472
140	160
141	27
142	5
143	14
144	6
145	13
147	8
149	111
150	13
151	4
152	7
153	7
155	7
157	24
158	4
159	5
163	17
164	6
165	28
166	23
167	77
168	18
169	11
177	4
178	13
179	21
180	89
181	54
185	9039
186	951
187	103
188	9
195	7
197	21
198	5
209	12
211	27
212	9
219	3
227	7
229	14
230	15
237	9
245	18
246	8
247	5
248	17
249	4
255	31
256	7
257	10
258	7
263	20
264	4
273	9
274	4
275	14
276	29
277	8
291	72
292	13
