Mass Spectrum: Morpholine, 4-[3-(4-butoxyphenoxy)propyl]-
Formula: C17 H27 N O3
CAS: 140-65-8
Molecular weight: 293
Origin: Tox21 Consortium/NIST Mass Spectrometry Data Center, 2012
m/z	RELATIVE INTENSITY
15	20
26	20
27	100
28	170
29	410
30	60
31	10
38	10
39	120
40	20
41	701
42	651
43	230
44	90
45	40
50	20
51	20
52	20
53	60
54	100
55	180
56	581
57	260
58	50
59	10
63	40
64	60
65	110
66	40
67	30
68	120
69	140
70	1071
71	140
72	100
73	20
75	10
76	30
77	40
78	20
79	30
80	30
81	150
82	130
83	40
84	160
85	60
86	180
87	130
88	30
89	10
91	30
92	20
93	80
94	50
95	40
96	80
97	120
98	460
100	9999
101	621
102	40
103	10
105	10
106	10
107	60
108	30
109	300
110	350
111	30
112	90
113	260
114	60
115	10
119	10
120	20
121	30
122	30
123	80
124	10
126	110
128	7196
129	591
130	40
133	30
134	10
135	20
136	40
137	20
142	10
143	20
144	20
149	30
150	40
151	20
163	10
165	10
166	10
176	10
177	10
178	10
179	10
192	10
205	10
206	10
236	10
248	10
291	10
292	20
293	240
294	50
295	10
