Mass Spectrum: Diphenylcarbazide
Formula: C13 H14 N4 O
CAS: 140-22-7
Molecular weight: 242
Origin: Japan AIST/NIMC Database- Spectrum MS-NW- 393
m/z	RELATIVE INTENSITY
16	30
17	20
18	70
26	40
27	159
28	129
29	319
30	20
31	60
37	119
38	279
39	959
40	139
41	139
42	30
43	219
44	919
45	30
46	99
49	40
50	479
51	1569
52	459
53	199
54	99
55	30
56	10
57	30
60	20
61	60
62	109
63	389
64	459
65	2179
66	859
67	109
68	10
69	20
73	30
74	129
75	80
76	159
77	4779
78	1449
79	579
80	409
81	90
82	20
83	20
88	10
90	60
91	1169
92	3139
93	9999
94	1069
95	50
97	10
98	10
105	679
106	939
107	3449
108	7779
109	589
110	20
133	70
134	319
135	50
149	20
150	289
151	3689
152	319
153	20
167	20
168	30
169	70
242	1119
243	169
244	20
