Mass Spectrum: Urea, (4-chlorophenyl)-
Formula: C7 H7 Cl N2 O
CAS: 140-38-5
Molecular weight: 170
Origin: NIST Mass Spectrometry Data Center, 1998.
m/z	RELATIVE INTENSITY
27	80
28	270
29	110
37	230
38	520
39	810
40	140
41	380
42	180
43	600
44	1000
45	100
47	80
49	200
50	460
51	340
52	510
53	70
54	40
61	460
62	660
63	1600
64	880
65	2310
66	240
67	60
72	100
73	880
74	290
75	680
76	100
77	60
86	60
88	120
89	190
90	760
91	760
92	1960
93	120
99	1370
100	1260
101	440
102	320
111	80
125	600
126	500
127	9999
128	850
129	3120
130	210
153	630
155	250
170	1320
171	70
172	340
