Mass Spectrum: Benzyl nitrile
Formula: C8 H7 N
CAS: 140-29-4
Molecular weight: 117
m/z	RELATIVE INTENSITY
14	60
15	60
16	10
17	10
18	30
24	10
25	40
26	270
27	430
28	180
29	10
31	10
32	20
36	30
37	440
38	701
39	1501
40	170
41	130
42	10
43	100
44	40
45	20
46	10
48	10
49	160
50	1201
51	1752
52	310
53	50
54	10
56	20
57	10
58	40
59	30
60	40
61	330
62	641
63	1301
64	540
65	510
66	70
67	10
68	10
69	60
70	30
72	10
73	80
74	310
75	250
76	200
77	781
78	120
79	10
84	20
85	70
86	120
87	170
88	290
89	2302
90	3803
91	851
92	50
97	10
98	10
99	10
100	10
101	10
102	20
103	10
110	10
111	20
112	10
113	10
114	80
115	190
116	3703
117	9999
118	891
119	40
