Mass Spectrum: Cyacetacide
Formula: C3 H5 N3 O
CAS: 140-87-4
Molecular weight: 99
Origin: NIST Mass Spectrometry Data Center, 1998.
m/z	RELATIVE INTENSITY
12	20
13	50
14	140
15	90
16	130
17	70
24	60
25	90
26	180
27	260
28	590
29	1450
30	950
31	9999
32	9949
33	90
38	760
39	1220
40	4750
41	3020
42	3810
43	650
44	200
50	80
51	150
52	130
53	110
54	40
55	50
56	280
57	260
58	120
59	410
65	10
66	160
67	280
68	3390
69	110
70	190
71	1280
72	60
99	1160
100	80
