Mass Spectrum: Butetamate
Formula: C16 H25 N O2
CAS: 14007-64-8
Molecular weight: 263
Origin: Tox21 Consortium/NIST Mass Spectrometry Data Center, 2012
m/z	RELATIVE INTENSITY
15	10
18	20
26	10
27	90
28	160
29	270
30	370
31	10
39	80
40	10
41	220
42	350
43	90
44	300
45	30
50	20
51	70
52	20
53	10
54	30
55	40
56	390
57	170
58	500
59	20
62	10
63	50
64	10
65	80
66	10
68	10
69	20
70	130
71	210
72	100
73	40
74	10
75	10
76	10
77	130
78	80
79	50
84	190
85	60
86	9999
87	591
88	20
89	80
90	100
91	1331
92	100
98	20
99	931
100	220
101	20
102	40
103	90
104	110
105	30
106	10
107	10
109	10
114	10
115	100
116	40
117	100
118	80
119	280
120	30
131	10
146	10
147	10
149	10
162	30
163	10
191	290
192	40
248	40
249	10
262	10
263	20
