Mass Spectrum: 1H-Imidazole, 4-methyl-5-nitro-
Formula: C4 H5 N3 O2
CAS: 14003-66-8
Molecular weight: 127
Origin: W. LUIJTEN, GORLAEUS LAB., LEIDEN UNIV., NETHERL
m/z	RELATIVE INTENSITY
38	200
39	400
40	700
41	2500
42	2900
43	400
51	400
52	1300
53	2300
54	2700
55	1500
69	400
70	400
79	600
80	1300
81	1100
82	1000
83	300
97	400
98	200
109	1500
110	1400
111	200
126	400
127	9999
128	500
