Mass Spectrum: 2(1H)-Quinoxalinone, 3-methyl-
Formula: C9 H8 N2 O
CAS: 14003-34-0
Molecular weight: 160
Origin: Japan AIST/NIMC Database- Spectrum MS-IW-1015
m/z	RELATIVE INTENSITY
15	20
26	40
27	80
28	60
29	10
31	20
37	60
38	169
39	269
40	50
41	119
42	159
43	20
44	20
45	20
49	10
50	219
51	229
52	299
53	50
54	20
55	10
57	20
58	10
61	40
62	139
63	679
64	649
65	639
66	509
69	10
71	10
74	60
75	99
76	189
77	279
78	169
79	40
80	50
81	10
85	10
87	10
88	30
89	40
90	519
91	189
92	359
93	30
97	10
99	10
102	40
103	50
104	409
105	139
106	10
116	20
117	50
118	10
119	10
129	10
130	30
131	4319
132	5829
133	549
134	20
143	10
145	20
159	70
160	9999
161	1129
162	70
