Mass Spectrum: Heptadecanoic acid, ethyl ester
Formula: C19 H38 O2
CAS: 14010-23-2
Molecular weight: 298
Origin: Japan AIST/NIMC Database- Spectrum MS-NW-5915
m/z	RELATIVE INTENSITY
15	30
17	10
18	30
26	40
27	519
28	119
29	1809
30	40
31	70
39	239
40	60
41	2279
42	529
43	3289
44	129
45	569
46	20
47	10
51	10
53	129
54	199
55	2209
56	559
57	2139
58	119
59	109
60	969
61	1269
62	30
65	20
66	20
67	309
68	189
69	1299
70	1259
71	929
72	50
73	1609
74	219
75	70
77	30
78	10
79	70
80	40
81	279
82	149
83	859
84	449
85	469
86	40
87	269
88	9999
89	1459
90	99
91	30
92	10
93	70
94	30
95	249
96	109
97	629
98	619
99	119
100	20
101	5969
102	509
103	50
107	50
108	20
109	149
110	50
111	309
112	139
113	60
114	10
115	569
116	60
117	10
119	10
121	60
122	10
123	70
124	30
125	159
126	40
127	30
128	10
129	259
130	109
131	10
135	50
136	10
137	40
138	20
139	99
140	20
141	20
143	539
144	119
145	20
149	50
151	20
152	10
153	50
154	10
155	10
157	1129
158	139
159	20
163	30
165	10
166	10
167	40
168	10
169	10
171	139
172	30
177	10
181	20
185	99
186	30
191	10
195	10
196	10
199	279
200	60
201	10
205	10
208	10
209	20
210	10
213	269
214	50
215	10
219	10
223	10
224	10
225	10
227	119
228	20
233	20
234	10
241	109
242	30
251	30
252	20
253	589
254	129
255	619
256	129
257	20
269	169
270	50
271	20
297	10
298	609
299	139
300	20
