Mass Spectrum: Bis(acetylacetonato)cobalt
Formula: C10 H14 Co O4
CAS: 14024-48-7
Molecular weight: 257
Origin: Japan AIST/NIMC Database- Spectrum MS-NW-5036
m/z	RELATIVE INTENSITY
14	30
15	199
17	10
18	30
26	40
27	149
28	159
29	50
31	30
37	20
38	40
39	129
40	20
41	80
42	99
43	2639
44	70
45	10
50	10
51	10
53	30
55	70
56	30
57	10
58	30
59	869
60	99
67	30
69	40
71	70
72	99
73	129
74	819
75	30
76	109
77	10
79	10
81	10
82	20
83	10
84	60
85	529
86	149
87	529
88	20
89	20
95	10
96	10
97	50
98	149
99	99
100	379
101	139
102	50
103	70
104	10
106	30
110	10
111	20
112	80
113	139
114	50
115	499
116	99
117	20
118	90
119	10
121	40
124	10
125	10
126	10
127	20
128	99
129	219
130	20
131	169
132	10
137	10
139	30
140	159
141	109
142	349
143	1049
144	80
145	20
149	10
151	10
153	30
154	10
155	399
156	129
157	239
158	8779
159	1049
160	109
161	10
163	20
165	10
167	10
168	10
169	10
170	30
171	30
172	50
173	70
174	10
175	60
176	10
180	10
183	10
184	30
185	20
186	40
187	70
188	10
196	20
197	20
199	10
200	179
201	90
202	10
205	10
207	10
208	10
209	10
211	10
212	10
214	40
215	219
216	30
217	10
224	10
225	40
228	149
229	50
230	10
236	10
237	30
238	10
239	339
240	50
241	40
242	9389
243	999
244	139
245	10
247	30
249	10
250	30
251	20
252	40
253	10
254	519
255	80
256	60
257	9999
258	1159
259	159
260	20
