Mass Spectrum: Magnesium, bis(2,4-pentanedionato-O,O')-, (T-4)-
Formula: C10 H14 Mg O4
CAS: 14024-56-7
Molecular weight: 222
Origin: Japan AIST/NIMC Database- Spectrum MS-NW-5560
m/z	RELATIVE INTENSITY
14	70
15	239
24	879
25	169
26	119
27	199
28	40
29	70
31	40
37	50
38	80
39	869
40	139
41	309
42	199
43	1769
44	60
47	30
49	80
50	40
51	70
52	20
53	60
54	60
55	99
56	20
57	30
58	30
61	109
62	50
63	60
64	20
65	279
66	70
67	179
68	40
69	70
70	20
71	20
72	40
73	20
74	50
75	30
76	20
77	20
79	30
80	80
81	299
82	99
83	219
84	60
85	349
86	20
89	40
91	20
92	10
93	179
94	249
95	80
96	149
97	30
98	20
99	20
100	159
103	40
104	20
105	419
106	99
107	679
108	599
109	229
110	90
111	40
112	20
119	10
120	10
121	20
122	229
123	9999
124	1979
125	1619
126	99
127	20
133	10
135	40
136	60
137	30
138	20
139	20
141	30
147	10
149	40
150	20
151	30
152	20
155	90
156	10
161	20
165	30
166	10
177	20
179	60
180	1389
181	329
182	229
183	30
193	399
194	119
195	80
196	10
201	10
204	20
206	30
207	8649
208	2019
209	1469
210	169
211	30
217	20
219	10
221	30
222	6709
223	1709
224	1209
225	159
226	20
227	10
