Mass Spectrum: Bis(acetylacetonato)zinc
Formula: C10 H14 O4 Zn
CAS: 14024-63-6
Molecular weight: 262
m/z	RELATIVE INTENSITY
43	1923
44	115
85	577
98	115
100	385
104	115
144	192
146	192
147	308
149	115
150	192
151	115
163	4230
164	385
165	2307
166	577
167	1538
189	192
191	115
205	2307
206	192
207	1346
208	308
209	961
221	769
223	385
225	308
233	115
247	8076
248	769
249	4615
250	1154
251	3077
252	385
262	9999
263	1538
264	5769
265	1731
266	4615
267	769
268	192
