Mass Spectrum: Bis(acetylacetonato)manganese
Formula: C10 H14 Mn O4
CAS: 14024-58-9
Molecular weight: 253
Origin: Japan AIST/NIMC Database- Spectrum MS-NW-5032
m/z	RELATIVE INTENSITY
12	10
13	10
14	99
15	279
16	10
17	10
18	30
24	10
25	20
26	60
27	209
28	169
29	99
31	70
32	10
37	50
38	99
39	309
40	60
41	179
42	279
43	3309
44	109
45	20
49	10
50	30
51	40
52	10
53	70
54	20
55	1079
56	199
57	30
58	109
59	10
60	10
61	10
62	10
63	20
64	10
65	20
66	10
67	90
68	40
69	109
70	1509
71	269
72	299
73	40
74	10
77	60
78	10
79	30
80	70
81	30
82	119
83	30
84	40
85	1039
86	50
87	10
89	40
90	10
91	30
93	30
94	50
95	30
96	359
97	50
98	30
99	10
100	789
101	50
102	10
103	10
104	70
105	30
106	10
107	80
108	30
109	10
110	20
111	299
112	179
113	50
114	149
115	40
117	10
119	139
120	20
121	30
122	109
123	249
124	80
125	129
126	60
127	50
128	10
131	10
135	10
136	319
137	80
138	339
139	499
140	60
141	20
142	10
143	10
144	10
145	10
146	20
147	10
148	10
149	50
150	10
151	30
152	20
153	219
154	9999
155	1829
156	209
157	60
158	20
159	10
160	10
162	10
163	70
164	30
165	40
166	60
167	50
168	20
169	10
170	10
171	219
172	149
173	20
176	10
180	99
181	20
182	20
183	10
186	10
192	20
193	30
194	10
195	10
196	20
197	20
205	30
206	10
207	289
208	99
209	70
210	50
211	909
212	109
213	30
220	20
222	269
223	80
224	189
225	329
226	40
227	10
235	40
236	40
237	90
238	6129
239	1789
240	249
241	60
242	10
247	90
248	20
249	60
250	99
251	60
252	149
253	9459
254	1129
255	149
256	20
