Mass Spectrum: Propanedioic acid, propyl-, dimethyl ester
Formula: C8 H14 O4
CAS: 14035-96-2
Molecular weight: 174
Origin: CARL DJERASSI DEPT OF CHEM STANFORD UNIV STANFORD CALIF 94305
m/z	RELATIVE INTENSITY
41	2222
42	606
43	2222
44	1616
45	1010
51	202
52	101
53	1010
54	909
55	7070
56	606
57	404
59	8383
60	202
68	202
69	2525
70	101
71	303
73	2020
74	505
81	202
82	606
83	2121
84	202
85	707
87	404
99	202
100	4747
101	2222
110	707
111	707
113	7575
114	1717
115	808
132	9999
133	404
142	1212
143	2929
144	101
145	101
