Mass Spectrum: 2,6-Bis(1,1-dimethylethyl)-4-(1-oxopropyl)phenol
Formula: C17 H26 O2
CAS: 14035-34-8
Molecular weight: 262
Origin: Humboldt-Universitat zu Berlin, Department of Chemistry, Analytical Group
m/z	RELATIVE INTENSITY
12	17
14	23
15	168
16	120
17	1010
18	3821
19	17
20	15
26	46
27	629
28	269
29	3771
30	88
31	32
32	32
38	19
39	507
40	76
41	1780
42	99
43	644
44	139
45	38
50	44
51	290
52	78
53	320
54	42
55	793
57	5824
58	337
59	78
60	27
62	25
63	156
64	114
65	335
66	86
67	213
68	27
69	173
70	48
71	74
72	63
73	61
74	38
75	59
76	51
77	556
78	189
79	404
80	143
81	76
82	27
83	69
84	23
85	25
86	84
87	877
89	145
90	44
91	993
92	126
93	177
94	57
95	82
96	15
97	32
98	17
99	19
101	366
102	107
103	227
104	76
105	516
106	93
107	238
108	27
109	80
110	15
111	23
112	23
113	21
115	787
116	305
117	349
118	82
119	387
120	72
121	147
122	27
123	57
124	15
126	19
127	168
128	438
129	387
130	189
131	345
132	120
133	246
134	61
135	105
136	15
137	13
139	34
140	17
141	269
142	179
143	130
144	69
145	246
146	88
147	318
148	128
149	400
150	55
151	19
152	36
153	55
154	36
155	63
156	44
157	97
158	88
159	181
160	133
161	137
162	74
163	170
164	32
165	23
167	15
169	21
170	23
171	59
172	46
173	97
174	95
175	261
176	95
177	69
178	11
185	38
186	13
187	208
188	53
189	82
190	162
191	80
192	13
199	13
201	76
202	21
203	284
204	53
205	130
206	27
215	13
217	644
218	105
219	768
220	124
221	19
229	23
230	11
231	137
233	9999
234	1654
235	166
236	15
245	11
247	1683
248	303
249	34
262	1162
263	238
264	27
