Mass Spectrum: Tungsten hexacarbonyl
Formula: C6 O6 W
CAS: 14040-11-0
Molecular weight: 352
Origin: D.HENNEBERG, MAX-PLANCK INSTITUTE, MULHEIM, WEST GERMANY
m/z	RELATIVE INTENSITY
26	66
27	50
28	9999
29	188
30	34
31	14
32	272
39	12
40	272
41	14
43	16
44	74
57	10
69	18
91	44
92	58
93	54
97	48
98	60
99	44
100	10
103	20
104	22
105	430
106	434
107	406
111	242
112	240
113	238
114	12
115	12
117	8
118	8
119	518
120	570
121	528
125	56
126	72
127	68
128	12
129	6
133	324
134	396
135	352
140	12
141	16
147	116
148	140
149	116
161	30
162	48
163	48
175	58
176	68
177	62
180	6
182	1606
183	890
184	1860
186	1786
194	632
195	340
196	780
197	6
198	916
199	124
200	230
202	228
206	82
207	48
208	104
210	1810
211	936
212	1982
213	28
214	1808
215	24
216	6
222	274
223	144
224	320
225	8
226	314
227	10
228	16
230	14
236	10
238	1390
239	806
240	1650
241	52
242	1508
243	44
244	8
250	36
251	22
252	42
254	42
255	6
256	6
264	14
266	3148
267	1762
268	3746
269	142
270	3378
271	106
272	22
278	24
279	12
280	30
282	28
292	8
294	1104
295	648
296	1236
297	66
298	1194
299	50
300	10
308	6
322	190
323	108
324	234
325	14
326	192
327	14
348	8
350	1234
351	752
352	1490
353	102
354	1334
355	100
356	14
