Mass Spectrum: Patchoulene
Formula: C15 H24
CAS: 1405-16-9
Molecular weight: 204
m/z	RELATIVE INTENSITY
27	1932
28	2192
29	2032
30	110
32	160
33	50
34	110
36	80
37	80
38	160
39	2412
40	480
41	8187
42	530
43	1902
44	2492
45	110
50	190
51	721
52	430
53	2142
54	320
55	4224
56	320
57	430
58	160
63	320
64	210
65	1421
66	430
67	4524
68	480
69	3613
70	320
71	210
72	160
73	160
74	110
75	190
76	130
77	3133
78	1261
79	4634
80	1471
81	6636
82	861
83	1071
84	190
88	110
89	190
90	160
91	6796
92	1712
93	5615
94	4444
95	2893
96	430
97	320
102	130
103	591
104	370
105	6075
106	1712
107	6105
108	3373
109	2062
110	290
115	701
116	370
117	991
118	350
119	4714
120	2893
121	7817
122	2222
123	1101
124	210
125	80
126	80
127	290
128	400
129	370
130	190
131	641
132	320
133	4144
134	1551
135	1501
136	400
137	130
141	160
142	130
143	160
144	130
145	480
146	290
147	3483
148	1341
149	530
150	160
151	110
152	110
153	110
154	110
155	110
156	110
157	110
158	110
159	270
160	290
161	9999
162	1521
163	210
175	991
176	561
177	130
188	130
189	5835
190	671
191	130
203	270
204	8327
205	1421
206	160
