Mass Spectrum: 2,4-Bis(trifluoromethyl)benzyl bromide
Formula: C9 H5 Br F6
CAS: 140690-56-8
Molecular weight: 306
Origin: NIST Mass Spectrometry Data Center, 1994
m/z	RELATIVE INTENSITY
18	32
19	15
20	61
25	22
33	117
37	175
38	404
39	592
49	83
50	753
51	723
52	73
56	117
57	407
60	6
61	357
62	975
63	1108
64	131
68	173
69	1885
70	112
75	709
76	56
77	45
78	45
79	954
80	220
81	999
82	124
83	73
84	51
85	186
86	419
87	795
88	652
89	489
90	32
92	74
93	194
94	176
95	114
98	64
99	493
100	73
101	137
104	309
105	150
106	153
107	658
108	351
109	46
111	102
112	202
113	151
114	109
117	98
118	148
119	390
120	73
123	44
124	26
125	210
126	147
127	658
128	50
130	43
131	61
132	345
133	47
135	24
137	548
138	1063
139	407
140	33
143	86
144	105
145	76
150	43
155	44
156	307
157	455
158	1166
159	143
161	24
162	21
163	137
167	43
169	102
174	31
175	60
177	3761
178	342
181	60
182	37
187	944
188	138
189	106
194	24
195	33
205	71
206	86
207	425
208	944
209	95
227	9999
228	962
229	46
237	68
239	62
273	39
275	29
287	394
289	413
290	41
306	125
308	139
