Mass Spectrum: Ethyl-p-tolylacetate
Formula: C11 H14 O2
CAS: 14062-19-2
Molecular weight: 178
Origin: Chuck Anderson, Aldrich Chemical Co.
m/z	RELATIVE INTENSITY
14	2
15	15
16	2
25	2
26	37
27	471
28	55
29	1307
30	40
31	12
37	7
38	40
39	353
40	35
41	47
42	12
43	30
44	21
45	21
46	1
49	4
50	130
51	452
52	207
53	231
54	11
55	12
56	1
58	1
59	1
60	1
61	10
62	58
63	207
64	48
65	180
66	36
67	7
69	1
73	6
74	37
75	40
76	60
77	1218
78	484
79	777
80	50
81	2
85	3
86	10
87	14
88	5
89	121
90	38
91	310
92	47
93	30
94	3
98	5
99	2
101	13
102	121
103	982
104	542
105	9999
106	854
107	48
108	4
115	7
116	2
117	7
118	2
119	91
120	12
121	21
122	2
131	9
132	67
133	141
134	15
135	4
136	2
147	3
148	2
149	16
150	56
151	6
163	11
164	1
176	6
177	1
178	2525
179	290
180	27
181	3
