Mass Spectrum: Benzenamine, 3-(2-phenylethenyl)-, (E)-
Formula: C14 H13 N
CAS: 14064-82-5
Molecular weight: 195
Origin: H. GUSTEN
m/z	RELATIVE INTENSITY
41	100
50	220
51	460
52	200
54	100
64	140
65	410
66	190
72	160
73	410
74	180
75	200
76	270
77	420
78	200
80	100
82	100
87	120
88	130
89	530
90	440
91	200
93	290
97	400
98	160
102	210
115	370
116	130
117	270
127	120
128	220
138	130
139	220
140	110
141	150
151	280
152	660
153	220
154	160
163	130
164	120
165	1100
166	430
167	500
168	120
176	590
177	1000
178	1220
179	470
180	900
181	140
191	170
192	310
193	1920
194	7300
195	9999
196	1520
197	100
