Mass Spectrum: 4-Methoxyphenylacetic acid ethyl ester
Formula: C11 H14 O3
CAS: 14062-18-1
Molecular weight: 194
Origin: Dr. Jiri Zamecnik, DCIEM, North York, Canada, GP Library
m/z	RELATIVE INTENSITY
39	230
50	110
51	400
52	320
63	140
65	160
77	780
78	920
79	100
89	240
90	140
91	430
105	50
106	140
107	70
121	9999
122	950
123	50
135	20
137	10
148	20
149	10
163	0
165	10
166	10
179	0
194	2390
195	270
