Mass Spectrum: tert-Butyl methyl sulfoxide
Formula: C5 H12 O S
CAS: 14094-11-2
Molecular weight: 120
Origin: NIST Mass Spectrometry Data Center, 1994
m/z	RELATIVE INTENSITY
12	53
13	100
14	291
15	996
16	100
17	69
18	50
25	30
26	312
27	1709
28	1614
29	5262
30	149
31	236
32	364
33	154
34	125
35	60
37	185
38	470
39	3515
40	705
41	9999
42	453
43	117
44	187
45	1484
46	611
47	1107
48	566
49	346
50	322
51	257
52	65
53	279
54	101
55	1072
56	1529
57	6190
58	298
59	229
61	42
62	297
63	959
64	2111
65	149
66	92
79	46
81	54
104	49
120	318
121	22
122	14
