Mass Spectrum: Rhenium, pentacarbonylchloro-
Formula: C5 Cl O5 Re
CAS: 14099-01-5
Molecular weight: 362
Origin: B.F.G.JOHNSON DEPT. OF CHEM., UNIV. OF MANCHESTER, UK
m/z	RELATIVE INTENSITY
125	2140
139	2790
153	1290
167	1220
181	50
187	5430
199	1860
215	30
222	5720
243	2000
250	5860
271	2500
278	9999
299	710
306	4930
334	7860
362	7860
