Mass Spectrum: 4,6-Nonanedione
Formula: C9 H16 O2
CAS: 14090-88-1
Molecular weight: 156
Origin: RADIAN CORP
m/z	RELATIVE INTENSITY
15	130
26	240
27	2570
29	910
37	40
38	160
39	1590
41	2960
42	1290
43	6940
45	90
50	10
52	30
53	180
54	30
55	640
56	50
57	430
58	420
65	60
66	50
67	490
68	70
69	890
70	200
71	8780
72	350
81	20
85	510
95	160
97	140
99	110
100	140
111	30
113	9999
114	740
115	50
128	860
129	70
141	240
156	1230
157	330
158	10
