Mass Spectrum: 1-Heptene, 3-methoxy-
Formula: C8 H16 O
CAS: 14093-58-4
Molecular weight: 128
Origin: CARL DJERASSI DEPT OF CHEM STANFORD UNIV STANFORD CALIF 94305
m/z	RELATIVE INTENSITY
41	3400
43	1900
45	400
54	700
55	900
58	700
68	300
69	200
71	9999
72	400
81	100
85	200
86	200
96	300
99	100
