Mass Spectrum: 2-Hexen-4-yne
Formula: C6 H8
CAS: 14092-20-7
Molecular weight: 80
m/z	RELATIVE INTENSITY
12	30
13	20
14	30
15	80
24	20
25	80
26	370
27	1411
28	350
29	40
30	10
36	1191
37	651
38	1141
39	6516
40	1722
41	1101
42	50
48	40
49	230
50	1241
51	1571
52	1882
53	961
54	280
55	20
60	40
61	1301
62	1832
63	300
64	50
65	691
66	40
72	10
73	90
74	250
75	80
76	40
77	3823
78	581
79	9999
80	3793
81	250
82	20
