Mass Spectrum: Valeraldehyde, dimethylhydrazone
Formula: C7 H16 N2
CAS: 14090-57-4
Molecular weight: 128
Origin: ATLAS OF MASS SPECTRA OF ORGANIC COMPOUNDS, V. A. KOPTYUG, ED.
m/z	RELATIVE INTENSITY
27	1940
29	1250
30	1000
39	760
41	1750
42	4620
43	4880
44	9999
45	3620
46	410
55	550
56	750
57	550
58	880
70	280
71	1560
72	320
83	240
84	310
85	8110
86	8390
87	480
99	1750
100	300
113	1130
114	100
127	220
128	6610
129	610
