Mass Spectrum: 2-Propenoic acid, butyl ester
Formula: C7 H12 O2
CAS: 141-32-2
Molecular weight: 128
m/z	RELATIVE INTENSITY
18	20
19	20
25	10
26	180
27	1682
28	360
29	761
30	30
31	170
32	20
37	10
38	20
39	290
40	70
41	1401
42	130
43	320
44	50
45	70
50	10
51	20
52	10
53	90
54	90
55	9999
56	5405
57	591
58	60
59	10
60	30
61	10
67	20
68	170
69	190
70	160
71	60
72	30
73	4254
74	170
75	60
80	20
81	10
82	40
83	70
84	30
85	410
86	60
87	60
88	20
95	10
97	30
98	20
99	160
100	40
101	10
103	10
110	10
113	40
127	10
129	10
