Mass Spectrum: Butanedioic acid, dibutyl ester
Formula: C12 H22 O4
CAS: 141-03-7
Molecular weight: 230
Origin: NIST Mass Spectrometry Data Center, 1994
m/z	RELATIVE INTENSITY
14	5
15	20
16	5
25	6
26	60
27	516
28	540
29	1048
30	41
31	57
37	3
39	240
41	1269
42	140
43	188
44	37
45	106
46	4
51	7
52	5
53	41
55	700
56	1130
57	1152
58	56
59	11
60	6
70	6
71	44
72	42
73	434
74	318
75	131
76	4
82	6
83	30
84	42
85	19
86	9
87	4
97	5
101	9999
102	421
103	71
112	8
114	45
115	5
119	315
120	14
127	15
128	17
130	121
131	13
141	6
145	16
154	4
157	1566
158	131
159	29
175	271
176	26
201	10
