Mass Spectrum: 2-Thiouracil
Formula: C4 H4 N2 O S
CAS: 141-90-2
Molecular weight: 128
Origin: Japan AIST/NIMC Database- Spectrum MS-NW- 642
m/z	RELATIVE INTENSITY
12	20
13	50
14	119
15	80
18	10
24	10
25	50
26	259
27	119
28	1159
29	50
30	20
32	169
33	80
34	20
36	10
37	10
38	119
39	219
40	1149
41	1359
42	2549
43	219
44	139
45	229
46	149
47	70
48	70
50	139
51	60
52	99
53	329
54	60
55	70
56	20
57	90
58	249
59	609
60	429
61	40
62	20
64	129
65	10
66	20
67	179
68	1009
69	3169
70	1999
71	80
72	229
73	219
74	20
75	10
81	10
82	10
83	30
84	40
85	20
86	80
95	499
96	129
97	20
99	80
100	289
101	80
102	10
111	10
112	40
127	20
128	9999
129	609
130	499
131	20
