Mass Spectrum: 4-Methoxy-4-methyl-2-pentanol
Formula: C7 H16 O2
CAS: 141-73-1
Molecular weight: 132
Origin: NIST Mass Spectrometry Data Center, 1994
m/z	RELATIVE INTENSITY
15	1220
16	39
19	202
27	982
28	161
29	1450
30	115
31	566
32	39
33	780
34	11
37	24
39	1039
40	294
41	1997
42	692
43	3109
44	11
45	2192
46	59
50	43
51	90
52	29
53	144
54	24
55	707
56	1520
57	1217
58	107
59	189
61	164
62	11
63	11
65	37
67	160
69	112
70	15
71	85
72	11
73	9999
74	445
75	60
77	130
78	8
79	18
81	14
83	96
85	483
86	22
87	37
99	79
100	35
101	23
117	268
118	14
