Mass Spectrum: Pyridazine, 3,6-dichloro-
Formula: C4 H2 Cl2 N2
CAS: 141-30-0
Molecular weight: 148
Origin: Japan AIST/NIMC Database- Spectrum MS-NW-5041
m/z	RELATIVE INTENSITY
12	99
13	20
14	20
24	109
25	329
26	709
27	99
28	289
29	10
35	279
36	459
37	579
38	449
39	219
40	50
41	20
42	40
43	40
44	50
47	419
48	149
49	669
50	1999
51	2299
52	1549
53	279
54	10
59	50
60	1999
61	459
62	919
63	90
64	109
66	10
67	90
71	50
72	99
73	249
74	70
75	80
76	269
77	689
78	899
79	50
82	10
83	70
84	949
85	9999
86	769
87	3349
88	179
89	40
94	459
95	10
96	299
97	10
98	50
102	119
103	10
104	40
113	20
118	40
119	60
120	6559
121	329
122	4269
123	209
124	709
125	30
148	8539
149	469
150	5439
151	299
152	929
153	50
