Mass Spectrum: Propanoic acid, 3-iodo-
Formula: C3 H5 I O2
CAS: 141-76-4
Molecular weight: 200
Origin: RADIAN CORP
m/z	RELATIVE INTENSITY
25	150
26	540
27	1940
28	940
29	1540
30	20
31	170
32	10
40	70
41	20
42	300
43	610
44	230
45	3450
46	50
53	120
54	30
55	880
56	60
64	10
71	40
72	390
73	9999
74	470
75	30
77	30
91	90
92	10
127	3270
128	3040
129	130
139	60
140	20
141	310
153	30
154	160
155	1530
183	80
200	4650
201	180
