Mass Spectrum: 9-Octadecenoic acid, 12-hydroxy-, methyl ester, [R-(Z)]-
Formula: C19 H36 O3
CAS: 141-24-2
Molecular weight: 312
Origin: Japan AIST/NIMC Database- Spectrum MS-NW-1748
m/z	RELATIVE INTENSITY
14	80
15	649
16	50
17	109
18	359
26	50
27	929
28	2179
29	2079
30	60
31	369
32	669
33	30
37	10
38	20
39	879
40	159
41	4989
42	729
43	3889
44	399
45	399
46	10
50	30
51	90
52	60
53	629
54	2009
55	9999
56	1079
57	1209
58	159
59	1019
60	109
61	40
62	10
63	20
64	20
65	229
66	239
67	3869
68	2439
69	4279
70	749
71	699
72	119
73	369
74	5579
75	699
76	60
77	359
78	169
79	1109
80	809
81	3509
82	3509
83	2759
84	4169
85	779
86	99
87	3199
88	349
89	30
90	10
91	319
92	129
93	689
94	869
95	2359
96	3829
97	3419
98	3749
99	399
100	80
101	609
102	149
103	30
104	90
105	249
106	149
107	439
108	479
109	1189
110	1519
111	1079
112	339
113	529
114	439
115	829
116	219
117	60
118	40
119	439
120	139
121	399
122	1019
123	1639
124	3399
125	1089
126	119
127	219
128	489
129	379
130	149
131	90
132	70
133	219
134	99
135	389
136	309
137	1169
138	679
139	259
140	70
141	409
142	129
143	369
144	50
145	50
146	20
147	139
148	819
149	389
150	369
151	359
152	239
153	119
154	70
155	309
156	60
157	90
158	20
159	70
160	20
161	60
162	20
163	159
164	309
165	359
166	5039
167	739
168	119
169	129
170	20
171	70
172	20
173	50
174	10
175	40
176	10
177	119
178	179
179	139
180	169
181	109
182	60
183	50
184	10
185	70
186	20
187	40
188	10
189	20
191	70
192	70
193	70
194	60
195	389
196	119
197	40
198	1269
199	269
200	50
201	20
203	10
205	40
206	40
207	40
208	40
209	60
210	50
211	20
212	10
213	30
214	10
215	10
217	10
218	20
219	30
220	159
221	80
222	119
223	60
224	40
225	20
227	119
228	20
233	20
234	40
235	30
236	20
237	50
238	20
239	30
240	10
241	30
242	10
245	50
246	30
247	10
248	10
249	10
250	20
251	30
252	10
253	10
255	60
256	10
261	20
262	209
263	319
264	349
265	159
266	30
267	30
269	10
270	80
271	20
278	10
279	40
280	20
281	20
292	60
293	30
294	659
295	149
296	80
297	10
