Mass Spectrum: Heptane, 2,2,6,6-tetramethyl-4-methylene-
Formula: C12 H24
CAS: 141-70-8
Molecular weight: 168
Origin: NIST Mass Spectrometry Data Center, 1990.
m/z	RELATIVE INTENSITY
15	42
27	363
28	290
29	1031
32	36
39	755
41	2709
42	128
43	213
51	75
52	52
53	283
54	106
55	837
56	52
57	9999
58	488
65	76
67	232
68	65
69	457
70	109
71	51
77	94
79	141
80	30
81	259
82	30
83	506
84	89
91	46
95	77
97	958
98	137
112	510
113	111
168	467
169	63
