Mass Spectrum: Diethyl adipate
Formula: C10 H18 O4
CAS: 141-28-6
Molecular weight: 202
Origin: Japan AIST/NIMC Database- Spectrum MS-NW- 838
m/z	RELATIVE INTENSITY
14	30
15	229
16	10
17	50
18	159
19	10
26	309
27	2699
28	1819
29	7469
30	189
31	449
32	149
38	20
39	769
40	139
41	2089
42	969
43	1359
44	90
45	1379
46	40
47	10
50	20
51	40
52	20
53	279
54	499
55	4929
56	1279
57	339
58	149
59	1079
60	1729
61	1149
62	10
65	10
66	10
67	50
68	279
69	589
70	689
71	99
73	2629
74	349
75	50
81	50
82	299
83	2529
84	669
85	139
86	80
87	1099
88	2019
89	109
90	10
98	30
99	439
100	649
101	3349
102	419
103	40
109	40
110	409
111	9999
112	869
113	70
114	169
115	5709
116	389
117	20
127	119
128	5769
129	1749
130	359
131	20
139	20
155	10
156	1319
157	9549
158	829
159	90
174	20
202	109
203	10
