Mass Spectrum: 2,6-Octadien-1-ol, 3,7-dimethyl-, acetate, (Z)-
Formula: C12 H20 O2
CAS: 141-12-8
Molecular weight: 196
Origin: NIST Mass Spectrometry Data Center
m/z	RELATIVE INTENSITY
14	10
15	70
26	20
27	360
28	70
29	280
30	10
31	10
37	10
38	30
39	821
40	240
41	4174
42	300
43	3623
44	110
45	60
50	50
51	170
52	100
53	911
54	120
55	450
56	100
57	80
58	10
59	30
60	40
61	40
62	10
63	50
64	10
65	310
66	130
67	2092
68	4154
69	9999
70	611
71	150
72	30
73	10
74	10
75	10
77	530
78	110
79	761
80	2192
81	1001
82	150
83	270
84	721
85	530
86	130
87	10
89	10
91	771
92	1061
93	5055
94	821
95	360
96	50
97	170
98	80
99	20
101	40
102	10
103	50
104	20
105	330
106	80
107	721
108	200
109	150
110	40
111	110
112	30
113	10
114	10
115	30
116	10
117	30
118	10
119	120
120	40
121	2352
122	240
123	260
124	30
125	10
126	60
127	110
128	10
134	10
135	40
136	1641
137	260
138	40
139	100
140	10
153	20
154	260
155	30
196	10
