Mass Spectrum: Acetaldehyde, hydroxy-
Formula: C2 H4 O2
CAS: 141-46-8
Molecular weight: 60
m/z	RELATIVE INTENSITY
12	40
13	120
14	320
15	621
16	20
17	90
18	310
24	20
25	60
26	110
27	40
28	1271
29	4044
30	561
31	9999
32	4854
33	80
36	60
38	10
40	60
41	150
42	480
43	80
44	20
45	30
56	90
58	70
60	711
61	40
