Mass Spectrum: Rhodanine
Formula: C3 H3 N O S2
CAS: 141-84-4
Molecular weight: 133
Origin: GFS Chemicals / NIST MS Data Center.
m/z	RELATIVE INTENSITY
15	51
18	116
25	61
26	85
28	110
29	193
32	140
33	129
34	57
38	72
39	58
40	94
41	177
42	1111
43	275
44	794
45	1992
46	5766
47	377
48	317
49	43
56	36
57	66
58	457
59	1503
60	975
61	97
62	57
63	36
64	1249
65	59
66	111
70	61
72	64
74	2321
75	189
76	790
77	96
78	358
79	42
80	65
82	32
86	206
88	56
90	158
91	283
92	44
105	422
106	83
117	109
133	9999
134	615
135	980
136	62
