Mass Spectrum: 3-Penten-2-one, 4-methyl-
Formula: C6 H10 O
CAS: 141-79-7
Molecular weight: 98
Origin: Japan AIST/NIMC Database- Spectrum MS-NW- 29
m/z	RELATIVE INTENSITY
14	50
15	429
17	30
18	149
25	10
26	149
27	1379
28	239
29	2269
30	50
31	249
32	50
37	99
38	249
39	1989
40	219
41	759
42	239
43	4049
44	99
45	50
49	40
50	259
51	329
52	129
53	909
54	169
55	8499
56	459
57	60
58	149
59	679
60	20
61	30
62	40
63	50
64	10
65	70
66	10
67	70
68	10
69	40
70	20
71	20
73	20
74	20
77	70
78	10
79	189
80	20
81	20
82	119
83	9999
84	559
85	40
95	10
97	30
98	5359
99	389
100	20
