Mass Spectrum: Butanoyl chloride
Formula: C4 H7 Cl O
CAS: 141-75-3
Molecular weight: 106
Origin: NIST Mass Spectrometry Data Center
m/z	RELATIVE INTENSITY
14	30
15	80
25	40
26	360
27	1591
28	440
29	280
30	10
33	10
35	110
36	50
37	290
38	430
39	1812
40	270
41	3543
42	2062
43	6085
44	230
45	10
47	30
48	30
49	200
50	90
51	90
52	20
53	110
54	20
55	480
56	120
57	10
60	30
61	60
62	30
63	981
64	30
65	330
66	10
67	10
68	10
69	50
71	9999
72	550
73	50
75	20
76	10
77	60
78	1862
79	60
80	631
81	20
91	480
92	20
93	160
94	10
105	10
106	110
107	20
108	40
109	10
