Mass Spectrum: Bis-(3,5,5-trimethylhexyl) phthalate
Formula: C26 H42 O4
CAS: 14103-61-8
Molecular weight: 418
Origin: Japan AIST/NIMC Database- Spectrum MS-NW-5324
m/z	RELATIVE INTENSITY
15	70
17	20
18	60
26	40
27	729
28	239
29	2249
30	50
31	50
36	10
37	80
38	99
39	849
40	169
41	4879
42	1019
43	2279
44	80
45	10
49	40
50	449
51	139
52	40
53	339
54	169
55	3089
56	969
57	9999
58	449
59	20
61	10
62	10
63	20
64	20
65	289
66	40
67	299
68	189
69	2319
70	1659
71	3189
72	169
73	30
74	129
75	129
76	1029
77	279
78	30
79	80
80	10
81	119
82	80
83	929
84	199
85	149
86	10
87	20
91	40
92	20
93	189
94	20
95	259
96	40
97	129
98	109
99	40
103	20
104	1029
105	329
106	30
109	30
110	90
111	849
112	90
113	20
115	10
119	10
121	179
122	149
123	60
124	10
125	20
126	259
127	1539
128	159
129	70
130	10
131	10
132	40
133	30
135	10
141	20
145	10
146	10
147	20
148	70
149	5299
150	569
151	60
159	319
160	50
161	10
162	10
163	10
164	10
167	459
168	40
173	10
174	729
175	99
176	149
177	20
179	20
190	10
193	20
194	30
203	20
205	60
206	10
218	10
219	20
236	20
237	10
259	20
275	139
276	80
277	10
293	759
294	139
295	20
307	10
320	30
362	60
363	20
403	20
418	20
419	10
