Mass Spectrum: Methylthio-2-propanone
Formula: C4 H8 O S
CAS: 14109-72-9
Molecular weight: 104
Origin: NIST Mass Spectrometry Data Center
m/z	RELATIVE INTENSITY
12	30
13	130
14	601
15	1972
16	20
25	50
26	370
27	2442
28	60
29	440
30	20
31	60
33	40
35	2332
36	30
37	160
38	100
39	270
40	30
41	190
42	941
43	9999
44	380
45	1962
46	1141
47	1071
48	100
49	60
53	20
57	150
58	350
59	200
61	7377
62	3183
63	410
64	170
69	20
71	10
72	10
73	40
75	10
76	80
104	2492
105	120
106	80
