Mass Spectrum: 2,4-Difluorophenyl isothiocyanate
Formula: C7 H3 F2 N S
CAS: 141106-52-7
Molecular weight: 171
Origin: NIST Mass Spectrometry Data Center, 1994
m/z	RELATIVE INTENSITY
26	57
31	831
32	258
33	57
36	47
37	273
38	200
39	101
44	334
45	272
46	42
49	132
50	463
51	313
52	49
55	73
56	304
57	570
58	151
59	45
60	42
61	366
62	625
63	2962
64	227
68	472
69	468
70	649
71	41
72	62
73	85
74	349
75	645
76	264
77	62
79	51
80	120
81	424
82	215
83	82
84	41
85	802
87	290
88	235
89	69
92	127
93	433
94	211
95	63
99	189
100	424
101	357
102	35
106	71
107	93
108	126
111	58
112	429
113	1854
114	166
119	45
120	95
124	46
125	27
126	357
127	957
128	69
139	2272
140	192
144	753
145	110
146	46
151	863
152	116
153	34
171	9999
172	904
173	483
174	33
