Mass Spectrum: Phosphorocyanidous difluoride
Formula: C F2 N P
CAS: 14118-40-2
Molecular weight: 95
Origin: A.Pleshkova, Nesmeyanov Inst.Org.Elem.Cpds, Moscow
m/z	RELATIVE INTENSITY
14	250
19	160
26	961
27	1261
28	20
31	1331
38	140
43	180
47	130
50	1762
57	190
69	9999
76	1421
77	20
95	2712
96	40
