Mass Spectrum: Pyridine, 3-(2-methylpropyl)-
Formula: C9 H13 N
CAS: 14159-61-6
Molecular weight: 135
Origin: Philip Morris R&D
m/z	RELATIVE INTENSITY
36	5
37	39
38	238
39	1506
40	190
41	971
42	57
43	2445
44	108
45	8
46	35
47	7
49	16
50	190
51	411
52	210
53	104
54	29
55	34
56	6
57	3
59	101
60	15
61	37
62	87
63	343
64	181
65	1301
66	520
67	231
68	8
73	9
74	30
75	26
76	49
77	137
78	158
79	85
80	64
81	2
86	1
88	3
89	69
90	54
91	205
92	2624
93	9999
94	722
95	13
102	9
103	40
104	74
105	41
106	42
107	13
119	39
120	175
121	14
130	11
131	7
132	13
133	3
134	43
135	3686
136	376
137	16
