Mass Spectrum: 3-(Ethoxycarbonylmethylene)-2(1H)-quinoxalinone
Formula: C12 H12 N2 O3
CAS: 14152-56-8
Molecular weight: 232
Origin: T.INAGAKI,NITTO CHEM. IND. CO. LTD.,TSURUMI-KU,YOKOHAMA, JAP
m/z	RELATIVE INTENSITY
50	1460
51	2860
52	2860
53	1350
62	850
63	3160
64	2440
65	2560
75	850
76	2560
77	5110
78	1570
89	510
90	5720
91	1350
92	610
102	1420
103	6530
104	2290
105	780
119	370
129	790
130	5510
131	8970
132	5390
133	570
145	270
147	370
157	610
158	6750
159	4100
160	3470
173	370
174	60
175	450
186	9999
187	2440
232	3580
233	660
