Mass Spectrum: N,N'-Bis(salicylidene)ethylenediiminocobalt (II)
Formula: C16 H14 Co N2 O2
CAS: 14167-18-1
Molecular weight: 325
Origin: Japan AIST/NIMC Database- Spectrum MS-NW-9955
m/z	RELATIVE INTENSITY
27	10
28	10
39	20
51	40
52	10
59	409
63	20
64	20
65	20
73	30
77	60
78	50
79	10
84	20
85	10
86	50
89	10
90	10
91	50
92	30
97	40
98	10
100	10
102	10
104	30
105	30
107	20
109	10
110	20
111	10
112	10
117	10
118	10
119	20
120	10
122	10
123	129
124	50
125	10
132	60
133	10
134	10
135	60
136	119
137	189
138	20
146	10
148	20
149	159
150	30
151	139
152	50
153	10
161	10
162	259
163	60
164	99
165	629
166	60
167	10
175	10
176	20
177	289
178	339
179	489
180	579
181	50
188	60
190	20
191	20
192	269
193	99
194	30
203	10
204	30
205	80
206	99
207	10
211	10
213	10
214	10
220	10
224	10
225	20
228	10
229	10
230	20
238	10
240	10
241	10
242	20
250	10
251	70
252	50
253	10
262	10
267	10
268	50
269	60
270	70
271	20
279	40
280	40
281	10
282	10
283	70
284	30
285	20
296	50
297	839
298	219
299	20
322	10
323	219
324	139
325	9999
326	1839
327	199
328	10
