Mass Spectrum: Tritriacontane, 3-methyl-
Formula: C34 H70
CAS: 14167-69-2
Molecular weight: 478
Origin: NIST Mass Spectrometry Data Center
m/z	RELATIVE INTENSITY
27	40
29	270
39	90
40	20
41	1401
42	360
43	4264
44	140
53	50
54	190
55	2202
56	3783
57	9999
58	420
67	250
68	330
69	2152
70	1571
71	7076
72	380
82	380
83	1902
84	591
85	4444
86	290
96	240
97	1692
98	320
99	1531
100	110
110	120
111	971
112	240
113	1191
114	100
124	90
125	470
126	140
127	911
128	70
138	50
139	190
140	90
141	591
142	60
152	30
153	120
154	70
155	450
156	40
166	30
167	60
168	40
169	330
170	50
180	40
181	40
182	40
183	270
184	30
194	30
195	20
196	30
197	200
198	30
209	30
211	200
212	30
222	20
223	30
224	20
225	140
226	30
236	20
238	20
239	130
240	30
250	20
252	20
253	110
264	20
265	20
267	110
278	30
281	90
292	20
295	90
296	20
306	20
309	70
310	20
320	20
321	10
323	80
324	20
334	20
337	60
338	20
350	10
351	60
352	20
362	10
363	10
365	60
366	20
376	10
378	10
379	40
380	10
392	20
393	30
406	10
407	20
420	150
421	250
422	70
423	10
434	10
435	30
448	751
449	2793
450	911
451	150
452	10
462	20
463	100
464	40
465	10
478	10
