Mass Spectrum: Nickel tetraphenylporphyrin
Formula: C44 H28 N4 Ni
CAS: 14172-92-0
Molecular weight: 670
Origin: Japan AIST/NIMC Database- Spectrum MS-NW-9969
m/z	RELATIVE INTENSITY
27	10
36	50
38	10
41	10
42	10
43	30
44	50
45	10
51	10
55	10
57	10
58	30
60	20
64	10
77	20
78	10
80	10
82	10
91	10
126	10
139	10
188	10
189	10
191	10
192	20
196	20
197	30
198	10
201	10
202	10
204	10
208	20
209	20
212	20
213	30
214	20
215	10
216	10
217	20
218	10
219	10
220	10
221	10
222	10
223	30
224	20
225	10
226	10
227	10
237	10
238	10
239	20
240	10
241	10
242	10
243	30
244	50
245	30
246	10
249	10
250	40
251	30
252	20
253	10
254	10
255	20
256	129
257	1359
258	1029
259	309
260	60
261	20
262	30
263	30
264	20
265	20
266	10
267	20
268	30
269	60
270	30
271	10
273	10
274	60
275	119
276	70
277	50
278	30
279	20
280	60
281	189
282	249
283	139
284	40
285	10
286	40
287	299
288	349
289	239
290	80
291	30
292	40
293	209
294	1519
295	2289
296	2689
297	1209
298	269
299	60
300	30
301	20
302	20
303	30
304	20
305	30
306	60
307	40
308	20
310	10
311	40
312	99
313	80
314	70
315	30
316	20
317	30
318	99
319	149
320	119
321	80
322	30
323	20
324	119
325	159
326	169
327	169
328	80
329	30
330	60
331	329
332	449
333	489
334	619
335	2209
336	1039
337	229
338	50
339	10
353	10
378	10
402	10
403	10
427	10
428	10
429	10
440	10
453	10
464	10
475	20
476	10
477	20
478	10
479	10
486	10
487	10
488	20
489	10
490	10
501	20
502	10
503	20
504	10
511	10
512	40
513	40
514	609
515	329
516	849
517	349
518	319
519	109
520	60
521	20
522	10
523	10
525	10
527	10
528	10
536	10
537	10
538	20
539	10
540	10
549	10
550	10
551	20
552	10
553	20
554	10
560	10
561	10
562	40
563	30
564	50
565	30
566	30
567	10
568	10
575	20
576	10
577	30
578	20
579	20
580	10
581	10
584	10
585	10
586	50
587	40
588	439
589	279
590	949
591	619
592	1809
593	969
594	809
595	379
596	179
597	60
598	30
599	10
607	10
608	30
609	20
610	20
612	10
622	10
623	10
624	10
625	10
636	10
637	10
638	10
639	10
640	10
641	10
642	10
651	10
653	10
660	10
662	70
663	40
664	139
665	90
666	209
667	179
668	549
669	519
670	9999
671	4979
672	5089
673	2259
674	1109
675	369
676	209
677	80
678	20
