Mass Spectrum: 3,5-Difluorobenzyl bromide
Formula: C7 H5 Br F2
CAS: 141776-91-2
Molecular weight: 206
Origin: NIST Mass Spectrometry Data Center, 1994
m/z	RELATIVE INTENSITY
12	14
13	21
14	7
18	10
20	25
25	29
26	118
31	598
33	90
36	32
37	294
38	444
39	415
40	7
44	111
48	18
49	151
50	726
51	818
52	48
53	58
55	36
56	240
57	1070
58	41
60	37
61	325
62	441
63	512
68	246
69	159
70	128
72	6
73	45
74	178
75	832
76	182
77	586
78	6
79	581
80	285
81	1177
82	170
83	177
84	73
85	128
86	131
87	126
88	105
89	20
91	9
92	47
93	180
94	179
95	41
96	97
99	192
101	1969
102	96
103	56
104	84
105	174
106	9
107	1192
108	134
112	12
113	14
123	21
125	763
127	9999
128	711
129	21
206	504
207	69
208	490
209	32
