Mass Spectrum: Bis-(4-methoxyphenyl)phenylphosphine
Formula: C20 H19 O2 P
CAS: 14180-51-9
Molecular weight: 322
Origin: NIST Mass Spectrometry Data Center, 1994
m/z	RELATIVE INTENSITY
15	718
17	75
18	260
38	206
39	390
47	53
50	545
51	1080
52	160
53	101
55	74
56	59
57	235
62	132
63	817
64	784
65	338
66	104
68	147
69	462
70	86
71	44
75	122
76	236
77	872
78	278
79	103
80	106
81	204
82	62
83	135
87	40
88	50
89	169
90	33
91	494
92	537
93	127
94	244
95	586
96	82
97	79
101	53
102	266
103	100
104	40
105	54
106	33
107	1089
108	1113
109	247
110	47
113	271
115	757
116	121
117	39
119	38
120	144
121	94
122	76
123	305
124	38
126	121
127	185
128	580
129	97
130	37
131	85
132	74
133	495
134	57
135	78
136	37
137	558
138	5233
139	872
140	264
141	277
142	45
144	114
145	177
146	131
151	122
152	597
153	152
154	38
155	57
156	136
157	363
158	142
159	138
160	35
161	233
163	93
165	80
167	60
168	189
169	277
170	1278
171	1110
172	181
173	47
181	110
182	163
183	903
184	277
185	83
186	145
187	259
189	47
195	53
196	30
197	53
198	225
199	1512
200	372
201	175
202	221
203	74
207	56
211	44
213	1051
214	3410
215	1107
216	183
217	107
218	31
220	60
221	45
228	75
229	247
230	84
231	45
233	74
243	374
245	1588
246	320
247	56
264	140
279	154
280	46
292	89
307	514
308	144
322	9999
323	2193
324	278
