Mass Spectrum: Arabinitol, 5TMS derivative
Formula: C20 H52 O5 Si5
CAS: 14199-73-6
Molecular weight: 512
Origin: O A MAMER, MCGILL UNIVERSITY, MONTRE
m/z	RELATIVE INTENSITY
26	54
29	53
41	45
43	110
44	145
45	571
46	51
47	76
54	51
55	79
58	99
59	300
61	53
69	59
72	232
73	9999
74	892
75	494
76	52
81	51
87	52
88	59
89	183
101	183
103	2767
104	271
105	131
113	65
115	54
117	840
118	95
119	88
121	63
122	61
123	77
124	88
129	868
130	130
131	234
133	482
134	80
135	56
137	114
138	114
143	156
145	52
147	2091
148	366
149	248
150	68
157	105
161	61
171	57
175	139
176	144
177	63
179	173
189	346
190	113
191	261
192	70
194	56
203	309
204	644
205	1743
206	405
207	103
211	88
217	2860
218	633
219	415
220	58
221	75
222	167
226	497
229	76
242	71
243	249
244	73
249	94
263	54
277	197
278	72
291	114
306	77
307	1038
308	363
309	153
317	93
318	57
319	818
320	186
321	177
332	66
