Mass Spectrum: Xylitol, 5TMS derivative
Formula: C20 H52 O5 Si5
CAS: 14199-72-5
Molecular weight: 512
Origin: NIST Mass Spectrometry Data Center, 2010
m/z	RELATIVE INTENSITY
15	10
26	10
27	10
28	20
29	30
31	10
39	20
41	130
42	10
43	70
44	100
45	500
46	30
47	60
49	10
52	10
53	30
54	30
55	50
56	10
57	30
58	80
59	350
60	30
61	40
63	10
65	10
66	30
67	20
68	10
69	60
70	30
71	30
72	270
73	9999
74	1301
75	1031
76	50
77	90
78	10
81	70
82	10
83	30
85	30
87	50
88	60
89	240
90	20
91	10
93	10
95	10
97	10
99	30
101	260
102	50
103	7807
104	771
105	300
106	10
111	10
113	70
114	10
115	50
116	190
117	1551
118	160
119	110
120	10
125	10
127	30
128	10
129	2302
130	280
131	350
132	50
133	751
134	100
135	70
136	10
141	20
142	20
143	120
144	10
145	70
146	20
147	5035
148	791
149	500
150	50
151	20
153	10
155	50
156	10
157	250
158	30
159	50
160	10
161	70
162	10
163	70
164	10
165	10
169	10
170	10
171	40
172	10
173	20
175	150
176	30
177	100
178	20
179	10
185	10
187	10
189	1061
190	250
191	761
192	130
193	60
194	10
201	30
202	10
203	420
204	1161
205	4894
206	1001
207	470
208	60
209	20
213	10
214	30
217	7327
218	1722
219	761
220	130
221	180
222	50
223	30
229	220
230	60
231	40
232	10
233	10
237	10
242	20
243	611
244	140
245	70
246	10
247	20
249	10
265	20
266	10
277	571
278	180
279	100
280	20
281	10
291	150
292	50
293	30
294	10
303	10
304	10
305	80
306	180
307	3373
308	991
309	490
310	100
311	30
317	240
318	100
319	1962
320	611
321	290
322	50
323	20
331	10
332	150
333	80
334	30
335	10
351	10
395	60
396	20
397	10
407	30
408	10
409	20
410	10
422	80
423	30
424	20
