Mass Spectrum: n-Dodecyl methacrylate
Formula: C16 H30 O2
CAS: 142-90-5
Molecular weight: 254
Origin: NIST Mass Spectrometry Data Center, 1994
m/z	RELATIVE INTENSITY
15	64
18	34
27	936
28	404
29	2086
30	67
31	104
39	2257
41	9520
42	1632
43	4782
44	223
45	90
51	32
53	329
54	709
55	4584
56	3038
57	3155
58	195
59	333
65	57
66	97
67	833
68	1387
69	9999
70	3948
71	1305
72	84
73	63
74	139
77	30
79	87
81	424
82	1248
83	3257
84	1622
85	667
86	30
87	7579
88	1991
89	123
94	35
95	202
96	759
97	2786
98	946
99	257
100	46
109	153
110	440
111	1613
112	522
113	432
114	55
115	34
123	130
124	218
125	596
126	250
127	329
128	72
137	87
138	138
139	163
140	421
141	188
142	65
143	31
151	36
152	44
155	41
156	58
166	105
168	598
169	101
181	76
183	32
193	27
195	30
211	77
