Mass Spectrum: Cyclopentene
Formula: C5 H8
CAS: 142-29-0
Molecular weight: 68
Origin: Japan AIST/NIMC Database- Spectrum MS-NW-3720
m/z	RELATIVE INTENSITY
14	10
15	70
25	20
26	189
27	809
28	129
29	109
31	139
32	50
33	40
36	20
37	229
38	459
39	2429
40	1289
41	1569
42	799
43	70
44	30
45	10
49	40
50	159
51	219
52	119
53	2219
54	179
55	159
56	50
57	90
58	20
60	30
61	109
62	149
63	199
64	40
65	549
66	609
67	9999
68	4439
69	259
70	10
