Mass Spectrum: Iminodiacetic acid
Formula: C4 H7 N O4
CAS: 142-73-4
Molecular weight: 133
Origin: Japan AIST/NIMC Database- Spectrum MS-NW- 631
m/z	RELATIVE INTENSITY
12	20
13	30
15	669
16	30
17	30
21	20
26	20
27	109
28	125
29	229
30	1769
31	419
32	35
35	20
36	20
38	30
39	60
40	169
41	509
42	9999
43	1119
44	739
45	509
46	60
47	10
51	10
54	10
55	10
56	10
57	20
58	159
59	109
60	1799
61	50
68	10
69	50
70	109
71	10
74	99
81	10
83	10
86	80
87	60
88	5899
89	249
90	30
115	289
116	10
133	349
134	20
