Mass Spectrum: Acetamide, N-(2-hydroxyethyl)-
Formula: C4 H9 N O2
CAS: 142-26-7
Molecular weight: 103
Origin: NIST Mass Spectrometry Data Center, 2009
m/z	RELATIVE INTENSITY
14	50
15	380
16	10
18	60
19	40
25	10
26	60
27	290
28	951
29	621
30	9639
31	1071
32	50
33	10
38	20
39	40
40	140
41	270
42	1762
43	9999
44	931
45	721
46	20
52	30
53	10
54	90
55	100
56	80
57	90
58	260
60	6456
61	180
62	20
68	10
70	380
72	3313
73	2963
74	120
75	20
85	1772
86	90
87	10
88	70
102	10
103	10
104	10
