Mass Spectrum: 1-Propanamine, N-propyl-
Formula: C6 H15 N
CAS: 142-84-7
Molecular weight: 101
Origin: Japan AIST/NIMC Database- Spectrum MS-NW-6371
m/z	RELATIVE INTENSITY
15	109
26	60
27	739
28	559
29	179
30	6529
31	99
39	379
40	50
41	1029
42	319
43	1679
44	589
45	10
52	10
54	50
55	10
56	199
57	30
58	589
59	20
68	30
69	10
70	159
71	30
72	9999
73	479
74	10
84	10
86	20
100	229
101	1629
102	119
