Mass Spectrum: Dodecanoic acid, 2,3-dihydroxypropyl ester
Formula: C15 H30 O4
CAS: 142-18-7
Molecular weight: 274
Origin: Japan AIST/NIMC Database- Spectrum MS-NW-6010
m/z	RELATIVE INTENSITY
14	30
15	539
16	10
17	99
18	439
19	639
20	20
25	20
26	119
27	1899
28	849
29	3969
30	139
31	1319
32	70
33	20
36	10
37	20
38	30
39	1029
40	259
41	6449
42	1679
43	8099
44	1219
45	1239
46	99
47	70
48	10
49	10
50	20
51	60
52	40
53	389
54	599
55	5769
56	2179
57	7879
58	439
59	369
60	1729
61	1689
62	80
63	50
64	10
65	80
66	70
67	949
68	599
69	2649
70	889
71	3369
72	239
73	2389
74	8189
75	2229
76	109
77	90
78	30
79	269
80	149
81	949
82	419
83	2049
84	5039
85	2279
86	219
87	1969
88	259
89	219
90	20
91	99
92	20
93	519
94	149
95	1349
96	389
97	1649
98	7069
99	809
100	169
101	669
102	189
103	179
104	30
105	20
106	10
107	119
108	60
109	759
110	239
111	829
112	2249
113	329
114	50
115	639
116	1759
117	269
118	30
119	20
120	10
121	189
122	50
123	229
124	60
125	329
126	1429
127	179
128	30
129	1359
130	159
131	50
132	10
133	10
134	5119
135	419
136	90
137	40
138	229
139	209
140	499
141	99
142	10
143	619
144	80
145	30
147	679
148	60
149	50
150	10
151	10
152	10
153	119
154	119
155	30
156	20
157	469
158	70
159	20
161	40
162	10
163	109
164	109
165	90
166	10
167	50
168	10
169	20
170	10
171	519
172	80
173	10
174	10
175	20
176	289
177	30
178	10
179	10
180	40
181	119
182	999
183	9999
184	1349
185	299
186	50
187	10
189	20
190	60
191	10
197	10
198	40
199	50
200	1549
201	3439
202	479
203	60
204	20
211	20
213	109
214	1359
215	249
216	30
217	10
225	10
226	10
227	50
228	20
229	10
231	10
239	10
240	10
241	30
242	10
243	2649
244	449
245	60
246	10
255	30
256	99
257	189
258	30
259	10
273	10
274	30
275	80
276	20
