Mass Spectrum: Tetrahydropyran
Formula: C5 H10 O
CAS: 142-68-7
Molecular weight: 86
Origin: Japan AIST/NIMC Database- Spectrum MS-NW-1046
m/z	RELATIVE INTENSITY
14	40
15	209
17	30
18	109
25	20
26	429
27	1989
28	4359
29	2349
30	289
31	429
32	30
37	70
38	129
39	1539
40	569
41	9999
42	439
43	679
44	179
45	6439
46	139
47	10
49	30
50	109
51	149
52	50
53	299
54	259
55	2169
56	6439
57	869
58	219
59	20
65	30
67	479
68	90
69	20
71	269
72	20
83	20
84	10
85	5459
86	4939
87	279
88	10
