Mass Spectrum: Pimeloylchloride
Formula: C7 H10 Cl2 O2
CAS: 142-79-0
Molecular weight: 196
Origin: NIST Mass Spectrometry Data Center, 1994
m/z	RELATIVE INTENSITY
12	31
13	86
14	406
15	1134
16	9
26	1489
27	6065
28	2035
29	2472
30	55
31	74
33	49
34	215
35	410
36	76
37	342
38	754
39	5512
40	1275
41	9796
42	5255
43	1001
48	1211
49	899
50	284
51	557
52	221
53	1206
54	221
55	9999
56	629
57	98
60	60
61	137
63	3249
65	1034
66	99
67	765
68	1835
69	7653
70	820
71	63
73	5
75	176
76	79
77	326
78	1141
79	778
80	397
81	504
82	5
83	4905
84	317
88	48
89	112
90	65
91	278
92	45
93	72
95	70
97	3173
98	206
103	58
104	247
105	113
106	81
107	49
119	91
125	4323
126	356
127	33
132	1353
133	143
134	447
135	46
161	5136
162	468
163	1746
164	103
