Mass Spectrum: n-Butyl ether
Formula: C8 H18 O
CAS: 142-96-1
Molecular weight: 130
Origin: Japan AIST/NIMC Database- Spectrum MS-NW- 563
m/z	RELATIVE INTENSITY
15	40
17	10
18	30
26	40
27	599
28	249
29	1899
30	60
31	179
32	10
38	10
39	309
40	40
41	2189
42	139
43	279
44	80
45	209
51	10
53	40
54	20
55	349
56	1599
57	9999
58	449
59	30
60	10
69	30
71	90
72	40
73	169
74	10
75	40
87	1329
88	70
89	30
91	10
101	199
102	10
130	109
131	10
