Mass Spectrum: Propanoic acid, octyl ester
Formula: C11 H22 O2
CAS: 142-60-9
Molecular weight: 186
m/z	RELATIVE INTENSITY
27	240
28	510
29	1361
32	150
39	130
41	1361
42	971
43	1902
44	90
53	90
54	240
55	2382
56	4094
57	9999
58	350
67	310
68	701
69	2823
70	5425
71	1601
72	270
73	100
74	390
75	7357
76	200
79	80
81	110
82	1311
83	4094
84	4464
85	370
87	380
97	460
101	110
112	5205
113	410
115	150
127	130
130	70
139	310
157	240
