Mass Spectrum: 2-Propenoic acid, 2-methyl-, hexyl ester
Formula: C10 H18 O2
CAS: 142-09-6
Molecular weight: 170
Origin: NIST Mass Spectrometry Data Center
m/z	RELATIVE INTENSITY
15	20
26	50
27	651
28	110
29	831
30	20
31	60
37	30
38	130
39	2422
40	561
41	6316
42	1591
43	2692
44	130
45	130
50	20
51	40
52	20
53	240
54	240
55	2722
56	4824
57	520
58	80
59	530
60	20
65	20
66	10
67	170
68	210
69	9999
70	801
71	110
72	10
73	30
74	170
79	20
81	50
82	100
83	390
84	3883
85	330
86	310
87	8438
88	470
89	40
94	20
95	60
96	60
97	591
98	80
99	150
100	50
101	30
109	20
110	70
111	60
112	30
113	170
114	40
115	10
123	50
124	40
125	20
127	140
128	50
129	40
137	20
141	40
142	10
152	10
170	10
