Mass Spectrum: Propanidid
Formula: C18 H27 N O5
CAS: 1421-14-3
Molecular weight: 337
Origin: R.E.Ardrey ET AL.Pharmaceutical Mass Spectra,L.,1985
m/z	RELATIVE INTENSITY
27	801
29	1802
30	1001
31	100
39	300
41	901
42	801
43	5405
44	1501
46	100
51	200
52	100
55	100
56	601
57	200
58	601
63	100
65	200
70	200
71	300
72	9408
73	500
74	100
76	100
77	400
78	200
79	100
85	100
86	1301
87	100
89	100
90	400
91	100
92	100
100	3103
101	200
105	400
106	200
107	300
114	9999
115	1101
121	200
122	100
128	100
135	300
136	100
137	500
149	100
151	100
167	100
195	100
237	400
250	400
251	100
264	1201
265	200
337	1301
338	400
339	100
