Mass Spectrum: Urea, N'-[4-(4-methoxyphenoxy)phenyl]-N,N-dimethyl-
Formula: C16 H18 N2 O3
CAS: 14214-32-5
Molecular weight: 286
Origin: CATALOGUE OF MASS SPECTRA OF PESTICIDES, APRIL, 1975; J. FREUDENTHAL & L. G. GRAMBERG, NAT'L INST. OF PUBLIC HEALTH, THE NETHERLANDS
m/z	RELATIVE INTENSITY
39	573
42	591
43	276
44	1145
45	436
51	510
52	411
56	452
63	627
64	484
65	517
72	9999
73	587
77	1049
90	1021
91	532
92	987
95	413
123	465
142	416
170	520
200	470
226	685
241	3756
242	570
286	2293
287	579
