Mass Spectrum: Barbituric acid, 5-ethyl-5-(3-hydroxyisopentyl)-
Formula: C11 H18 N2 O4
CAS: 1421-07-4
Molecular weight: 242
Origin: Finnigan MAT: Toxicological Library (LIBR-TX)
m/z	RELATIVE INTENSITY
41	1417
43	1946
44	276
55	583
56	305
59	9999
60	285
69	1128
71	1264
83	206
85	94
97	411
98	407
112	195
114	192
141	2374
142	200
156	4200
157	4913
158	307
214	102
227	1009
228	96
