Mass Spectrum: 4-Pyridinol, acetate (ester)
Formula: C7 H7 N O2
CAS: 14210-20-9
Molecular weight: 137
Origin: L.BAUER UNIV. OF ILLINOIS, CHICAGO, ILLINOIS, USA
m/z	RELATIVE INTENSITY
38	900
39	2700
40	2300
41	1700
42	1600
43	9999
52	500
53	700
66	500
67	8200
68	1000
69	400
95	7200
96	2100
108	300
109	1400
137	6200
138	600
