Mass Spectrum: 3-Butyn-2-one
Formula: C4 H4 O
CAS: 1423-60-5
Molecular weight: 68
Origin: NIST Mass Spectrometry Data Center, 1990.
m/z	RELATIVE INTENSITY
15	845
18	8
24	253
25	711
26	237
27	50
28	96
29	145
32	6
36	312
37	848
38	722
39	885
40	1070
41	189
42	726
43	907
44	24
48	147
49	418
50	496
51	176
52	24
53	9999
54	366
55	27
66	21
68	1665
69	72
