Mass Spectrum: [1,2]Azaborino[1,2-a][1,2]azaborine
Formula: C8 H8 B N
CAS: 1425-58-7
Molecular weight: 129
m/z	RELATIVE INTENSITY
48	671
49	1071
50	2672
51	1471
52	671
61	270
62	1331
63	671
64	1071
65	671
73	671
74	1601
75	2402
76	2402
77	671
100	1071
101	1331
102	1331
103	1331
127	671
128	4674
129	9999
130	1071
