Mass Spectrum: .alpha.-D-Xylopyranose, 4TMS derivative
Formula: C17 H42 O5 Si4
CAS: 14251-20-8
Molecular weight: 438
Origin: NIST Mass Spectrometry Data Center, 2010
m/z	RELATIVE INTENSITY
27	10
28	20
29	20
31	10
39	10
41	70
42	10
43	100
44	110
45	671
46	50
47	80
53	30
54	20
55	60
56	10
57	30
58	50
59	370
60	30
61	60
66	10
67	20
68	10
69	300
70	30
71	30
72	140
73	7987
74	671
75	811
76	50
77	40
81	10
83	10
85	40
86	10
87	30
88	10
89	60
90	10
91	10
97	50
98	10
99	60
100	10
101	540
102	80
103	500
104	50
105	50
111	30
112	10
113	50
114	10
115	140
116	420
117	350
118	50
119	100
120	10
121	10
125	20
127	70
128	10
129	951
130	120
131	480
132	70
133	1091
134	150
135	110
136	10
140	10
141	50
142	50
143	320
144	40
145	100
146	20
147	4174
148	651
149	470
150	50
151	30
155	10
156	10
157	90
158	20
159	30
160	10
161	70
162	10
163	30
169	160
170	20
171	30
173	20
175	60
176	10
177	70
178	10
179	10
185	10
187	30
188	10
189	561
190	130
191	4034
192	711
193	330
194	40
195	10
201	20
202	10
203	220
204	9999
205	1922
206	841
207	160
208	30
209	10
215	110
216	40
217	3633
218	731
219	360
220	50
221	150
222	30
223	20
229	10
230	40
231	100
232	30
233	10
243	60
244	10
245	10
258	10
259	180
260	40
261	20
265	100
266	30
267	10
279	80
280	20
281	10
289	10
290	10
291	190
292	50
293	30
304	10
305	270
306	80
307	40
308	10
317	10
318	10
319	10
320	10
333	100
334	30
335	10
348	10
367	10
393	30
394	10
395	10
