Mass Spectrum: Bicyclo[4.2.1]nonan-9-one
Formula: C9 H14 O
CAS: 14252-11-0
Molecular weight: 138
Origin: D.G.I.KINGSTON POLYTECH. INST., BLACKSBURG, VIRGINIA, USA
m/z	RELATIVE INTENSITY
39	2500
41	5900
54	6000
55	1500
67	9999
68	2900
69	700
70	200
81	3300
82	8400
95	1000
110	1700
120	1400
138	7900
139	600
