Mass Spectrum: Ethane, 1,1-bis(ethylthio)-
Formula: C6 H14 S2
CAS: 14252-42-7
Molecular weight: 150
m/z	RELATIVE INTENSITY
15	40
16	20
26	150
29	1161
30	30
32	60
33	50
34	130
35	581
37	30
39	30
41	50
43	50
44	350
45	831
46	140
47	300
53	30
54	40
55	430
56	30
57	80
58	300
59	1441
60	751
61	4944
62	300
63	240
64	70
65	50
66	50
73	120
75	70
76	110
77	30
78	20
79	20
87	20
88	230
89	9999
90	540
91	480
92	50
93	240
94	30
95	20
103	50
107	30
118	10
122	90
123	40
124	10
136	30
150	1872
151	150
152	170
153	10
154	10
