Mass Spectrum: Propane, 2,2-bis(ethylthio)-
Formula: C7 H16 S2
CAS: 14252-45-0
Molecular weight: 164
m/z	RELATIVE INTENSITY
15	50
16	20
26	140
27	791
29	921
30	30
32	60
33	50
34	160
35	280
37	30
38	40
39	440
40	70
41	1852
42	90
43	140
44	310
45	791
46	170
47	881
48	30
49	40
53	50
55	30
56	20
57	961
58	250
59	1722
60	170
61	701
62	450
63	320
64	40
65	30
66	40
67	40
69	160
71	50
73	621
74	1081
75	2833
76	230
77	140
78	10
85	20
87	90
89	80
93	20
101	10
102	430
103	9999
104	651
105	470
106	30
107	10
117	10
121	10
122	20
135	40
136	10
149	20
164	330
165	30
166	30
167	10
