Mass Spectrum: 1,3-Benzodioxol-5-amine
Formula: C7 H7 N O2
CAS: 14268-66-7
Molecular weight: 137
Origin: Japan AIST/NIMC Database- Spectrum MS-NW-7899
m/z	RELATIVE INTENSITY
14	30
17	20
18	70
26	99
27	149
28	109
29	119
30	40
33	179
36	30
37	90
38	159
39	259
40	129
41	239
42	30
43	30
44	40
49	60
50	259
51	669
52	2469
53	789
54	159
55	50
57	20
61	60
62	119
63	129
64	50
65	99
66	50
67	99
68	759
69	80
74	20
75	30
76	90
77	80
78	599
79	4599
80	869
81	229
83	20
91	129
92	90
93	40
94	30
95	80
96	40
101	20
105	20
106	359
107	609
108	669
109	239
110	20
119	20
121	30
122	40
135	159
136	2559
137	9999
138	849
139	80
