Mass Spectrum: Thiophene, 2-bromo-3-methyl-
Formula: C5 H5 Br S
CAS: 14282-76-9
Molecular weight: 176
Origin: NIST Mass Spectrometry Data Center
m/z	RELATIVE INTENSITY
12	30
13	10
14	10
15	70
18	20
24	10
25	60
26	340
27	691
32	120
33	20
34	10
36	80
37	460
38	561
39	581
40	30
44	170
45	3103
46	110
47	310
48	180
49	250
50	721
51	911
52	240
53	2182
54	90
56	60
57	380
58	260
59	60
60	60
61	160
62	180
63	220
64	20
65	10
68	270
69	1912
70	801
71	420
72	50
73	10
79	120
80	70
81	420
82	270
83	30
88	80
89	70
91	30
92	60
93	200
94	40
95	340
96	881
97	9999
98	691
99	470
100	20
105	20
106	10
107	10
111	10
116	30
117	90
118	40
119	80
123	180
125	200
128	10
130	10
131	50
133	50
135	10
136	10
137	10
138	10
149	20
151	10
175	1351
176	4664
177	1752
178	5085
179	380
180	190
