Mass Spectrum: Allyl methallyl ether
Formula: C7 H12 O
CAS: 14289-96-4
Molecular weight: 112
Origin: NIST Mass Spectrometry Data Center, 1990.
m/z	RELATIVE INTENSITY
14	88
15	287
26	542
27	3337
28	1147
29	3161
30	117
31	313
32	45
37	210
38	690
39	5880
40	1216
41	9999
42	2301
43	3457
44	157
45	56
50	182
51	241
52	136
53	1036
54	459
55	5233
56	2339
57	1164
58	833
65	50
67	536
68	955
69	2026
70	981
71	664
79	239
81	66
82	122
83	1243
84	709
85	56
97	721
98	70
