Mass Spectrum: Benzylmorphine
Formula: C24 H25 N O3
CAS: 14297-87-1
Molecular weight: 375
Origin: Patti Price, Georgia Bureau of Investigation, Decatur, Georgia
m/z	RELATIVE INTENSITY
42	950
44	420
50	30
51	240
52	70
53	160
54	40
55	380
56	80
57	150
58	230
59	390
60	50
63	280
64	80
65	1151
66	80
67	160
68	100
69	70
70	460
71	50
75	70
76	60
77	430
78	170
79	120
80	130
81	2932
82	550
83	140
84	50
86	10
88	20
89	300
90	90
91	6856
92	510
93	110
94	550
95	110
96	190
97	30
99	10
101	30
103	200
104	60
105	150
106	60
107	180
108	100
109	50
110	220
111	10
112	30
113	30
115	1121
116	180
117	190
118	90
119	120
120	80
121	60
122	170
123	90
124	400
125	40
126	90
127	380
128	500
129	310
130	110
131	250
132	300
133	130
134	170
135	50
136	50
137	20
139	180
140	110
141	280
142	150
143	160
144	260
145	180
146	410
147	260
148	110
149	40
151	130
152	510
153	340
154	140
155	160
156	70
157	200
158	110
159	90
160	390
161	400
162	1451
163	210
164	130
165	340
166	110
167	180
168	180
169	220
170	120
171	270
172	70
173	210
174	200
175	1511
176	330
177	90
178	80
179	70
180	50
181	380
182	200
183	140
184	180
185	110
186	120
187	60
188	40
189	50
190	40
191	40
192	20
195	130
196	100
197	290
198	190
199	200
201	50
202	160
203	60
204	60
205	30
206	20
207	100
208	50
209	170
210	150
211	130
212	90
213	90
214	700
215	200
216	130
219	10
221	30
222	30
223	100
224	90
225	470
226	230
227	360
228	90
231	10
235	30
236	30
237	30
238	140
239	90
240	120
242	60
243	10
248	10
253	20
254	220
255	70
256	180
257	30
262	10
263	10
264	20
266	530
267	180
268	180
269	100
273	10
280	10
282	520
283	180
284	9999
285	1751
286	170
287	20
288	10
300	10
301	10
314	10
317	20
318	120
319	40
329	10
347	30
356	50
358	60
359	20
360	10
373	200
374	220
375	3323
376	800
377	110
