Mass Spectrum: (2,5-Dimethoxyphenyl)acetone
Formula: C11 H14 O3
CAS: 14293-24-4
Molecular weight: 194
Origin: Dr. Jiri Zamecnik, DCIEM, North York, Canada, GP Library
m/z	RELATIVE INTENSITY
39	1490
43	5620
51	1180
53	540
63	500
65	2350
77	3260
78	1770
79	860
91	3730
92	610
93	380
106	480
107	420
108	750
121	7910
122	800
123	980
135	210
136	230
137	1250
149	620
151	9999
152	1440
163	110
194	5330
195	960
