Mass Spectrum: Cyclohexane, 1,2,4-tris(methylene)-
Formula: C9 H12
CAS: 14296-81-2
Molecular weight: 120
Origin: D.HENNEBERG, MAX-PLANCK INSTITUTE, MULHEIM, WEST GERMANY
m/z	RELATIVE INTENSITY
25	7
26	132
27	1635
28	40
29	186
32	9
33	14
34	15
35	18
36	9
37	114
38	292
39	3086
40	679
41	1636
42	81
43	13
44	101
45	39
46	16
47	11
48	14
49	58
50	592
51	1692
52	904
53	1193
54	155
55	266
56	60
58	346
59	184
60	41
61	63
62	217
63	631
64	173
65	1334
66	500
67	366
68	89
69	44
70	27
71	32
72	15
73	26
74	101
75	233
76	84
77	3701
78	1552
79	4711
80	603
81	92
82	7
85	15
86	40
87	57
88	23
89	185
90	199
91	6932
92	2850
93	563
94	60
96	14
97	13
98	23
100	19
101	124
102	148
103	1473
104	576
105	9999
106	1035
107	34
111	16
113	34
114	27
115	442
116	132
117	534
118	228
119	1206
120	7881
121	887
122	45
