Mass Spectrum: 1-Decanethiol
Formula: C10 H22 S
CAS: 143-10-2
Molecular weight: 174
Origin: U.S. BUREAU OF MINES, LARAMIE, WYO, USA
m/z	RELATIVE INTENSITY
15	149
16	23
25	9
26	123
27	3048
28	672
29	4100
30	100
32	74
33	71
34	170
35	390
36	37
37	43
38	70
39	2700
40	482
41	9999
42	3571
43	9314
44	317
45	1004
46	381
47	3641
48	151
49	187
50	48
51	113
52	63
53	734
54	1043
55	9184
56	7137
57	4429
58	250
59	307
60	545
61	1776
62	141
63	108
64	11
65	101
66	76
67	847
68	2449
69	6013
70	7357
71	1492
72	79
73	126
74	58
75	95
76	26
77	55
78	15
79	66
80	17
81	214
82	1617
83	5064
84	3702
85	799
86	51
87	173
88	174
89	1608
90	96
91	84
95	46
96	571
97	2844
98	1644
99	150
100	7
101	54
102	12
103	173
104	13
110	206
111	1551
112	1756
113	170
114	11
115	14
117	60
126	38
140	1561
141	182
142	13
173	192
174	2878
175	367
176	157
177	17
