Mass Spectrum: Tetraglyme
Formula: C10 H22 O5
CAS: 143-24-8
Molecular weight: 222
Origin: Japan AIST/NIMC Database- Spectrum MS-NW-3830
m/z	RELATIVE INTENSITY
14	10
15	569
16	10
18	20
26	40
27	219
28	439
29	1279
30	70
31	1349
32	40
33	50
41	109
42	80
43	619
44	259
45	1529
46	40
56	10
57	99
58	2849
59	9999
60	339
61	30
70	99
71	50
72	159
73	189
74	20
75	60
77	20
86	30
87	569
88	109
89	579
90	30
91	20
100	10
101	119
102	269
103	1629
104	99
105	10
115	30
117	30
119	20
131	60
133	249
134	20
147	40
177	50
