Mass Spectrum: Metopon
Formula: C18 H21 N O3
CAS: 143-52-2
Molecular weight: 299
Origin: Drug Lab
m/z	RELATIVE INTENSITY
42	2032
43	1041
44	721
45	110
50	70
51	360
52	150
53	310
54	180
55	931
56	260
57	400
58	621
59	901
60	190
62	60
63	310
64	100
65	330
66	150
67	300
68	420
69	290
70	1011
71	220
72	100
73	120
74	90
75	170
76	200
77	1061
78	370
79	330
80	170
81	330
82	1001
83	400
84	561
85	150
86	350
87	130
88	70
89	290
90	130
91	791
92	170
93	160
94	460
95	210
96	2692
97	370
98	310
99	180
100	130
101	160
102	330
103	430
104	200
105	350
106	170
107	310
108	230
109	150
110	320
111	140
112	180
113	280
115	1421
116	330
117	270
118	180
119	150
120	180
121	510
123	190
124	320
125	150
126	200
127	771
128	1181
129	510
130	170
131	520
132	220
133	130
134	220
135	100
136	100
137	120
138	90
139	390
140	130
141	561
142	190
143	270
144	310
145	310
146	280
147	340
148	410
149	380
151	140
152	420
153	380
154	220
155	310
156	150
157	440
158	190
159	160
160	240
161	290
162	320
163	200
164	200
165	300
166	140
167	220
168	230
169	360
170	180
171	651
172	260
173	641
174	290
175	360
176	671
177	210
178	90
179	60
180	50
181	310
182	180
183	190
184	350
185	2102
186	761
187	621
188	691
189	350
190	90
191	40
193	80
194	60
195	260
196	130
197	400
198	1071
199	1341
200	731
201	460
202	571
203	1181
204	220
205	50
207	40
208	40
209	80
210	140
211	220
212	811
213	901
214	1421
215	510
216	280
217	100
223	70
224	350
225	280
226	320
227	290
228	2212
229	561
230	701
231	300
232	150
233	100
238	70
239	70
240	571
241	450
242	3163
243	2392
244	540
245	180
246	60
253	40
254	210
255	90
256	911
257	190
258	40
268	50
270	681
271	490
272	80
282	170
283	60
284	480
285	90
298	1581
299	9999
300	2012
301	310
