Mass Spectrum: Benzoic acid, 4-nitro-, pentyl ester
Formula: C12 H15 N O4
CAS: 14309-42-3
Molecular weight: 237
Origin: V.Zaikin,Topchiev Inst.Petrochem.Synth.,Moscow
m/z	RELATIVE INTENSITY
27	1121
28	460
29	1922
30	1071
31	120
35	30
36	70
37	360
38	621
39	2122
40	260
41	2893
42	4164
43	2032
44	270
45	410
46	290
49	140
50	3213
51	1261
52	200
53	671
54	120
55	3843
56	330
57	220
58	40
59	30
61	140
62	230
63	591
64	581
65	4064
66	320
67	160
68	150
69	2973
70	9999
71	721
72	30
73	370
74	1571
75	2402
76	4584
77	641
78	140
79	30
81	530
82	40
83	50
84	30
85	50
87	60
88	30
89	30
90	70
91	60
92	1822
93	390
94	50
95	40
96	60
97	50
101	30
102	50
103	661
104	4044
105	430
106	40
107	30
108	30
109	500
110	40
111	40
115	30
117	20
119	40
120	691
121	1661
122	360
123	60
125	20
134	310
135	110
136	20
137	490
138	80
145	60
148	40
149	170
150	6856
151	1351
152	380
153	40
164	20
165	50
166	30
167	1792
168	2552
169	721
170	60
173	100
178	20
179	30
180	20
190	20
191	50
193	20
194	40
207	50
208	30
209	50
221	30
237	50
238	40
