Mass Spectrum: Benzoic acid, 4-amino-, octyl ester
Formula: C15 H23 N O2
CAS: 14309-41-2
Molecular weight: 249
Origin: A.A.Kutin, Moscow, Russia
m/z	RELATIVE INTENSITY
42	70
43	2873
44	490
50	40
51	60
52	50
53	180
54	90
55	1451
56	681
57	2092
58	70
59	2893
60	340
63	50
64	70
65	1561
66	180
67	200
68	90
69	851
70	160
71	130
72	90
73	260
74	20
75	70
76	120
77	30
78	30
80	100
81	40
82	300
83	110
84	50
89	30
90	40
91	290
92	2512
93	611
94	450
95	70
98	160
99	10
100	30
101	631
102	60
103	40
104	40
105	120
106	80
107	290
108	50
109	20
110	90
111	20
115	30
117	40
118	40
119	290
120	4824
121	1461
122	170
128	10
130	60
131	20
134	20
135	20
136	150
137	9999
138	3353
139	791
140	70
141	30
146	40
147	10
148	180
149	260
150	60
151	40
152	30
154	20
155	40
157	30
160	40
162	30
163	50
165	20
169	40
177	30
178	40
180	20
181	40
183	20
193	10
195	20
205	10
219	20
232	30
248	30
249	3083
250	671
251	100
