Mass Spectrum: 4-Nitrobenzoic acid, heptyl ester
Formula: C14 H19 N O4
CAS: 14309-44-5
Molecular weight: 265
Origin: V.Zaikin,Topchiev Inst.Petrochem.Synth.,Moscow
m/z	RELATIVE INTENSITY
27	2012
28	530
29	3133
30	1011
31	120
36	110
37	160
38	360
39	2212
40	510
41	6856
42	3183
43	4184
44	440
45	140
46	120
49	90
50	2662
51	751
52	170
53	701
54	851
55	6806
56	9999
57	3023
58	110
61	80
62	170
63	440
64	550
65	1882
66	250
67	380
68	1421
69	5205
70	8708
71	601
72	50
73	150
74	861
75	1702
76	4574
77	691
78	230
79	80
80	30
81	320
82	80
83	971
84	90
85	50
87	30
89	20
90	60
91	160
92	1822
93	350
94	110
95	50
96	270
97	2172
98	5575
99	490
100	20
103	601
104	5215
105	721
106	30
107	40
109	150
110	20
115	40
116	20
117	20
119	30
120	891
121	881
122	340
123	100
127	20
131	20
134	581
135	160
136	30
137	330
138	70
145	50
147	30
148	30
149	120
150	8688
151	1902
152	420
153	50
165	150
166	40
167	450
168	2502
169	1251
170	140
171	20
173	90
178	50
194	90
195	30
205	30
206	40
207	50
208	60
209	40
223	30
235	20
249	70
265	30
266	50
