Mass Spectrum: Benzene, 1-methoxy-4-(2-phenylethyl)-
Formula: C15 H16 O
CAS: 14310-21-5
Molecular weight: 212
m/z	RELATIVE INTENSITY
39	480
40	520
41	280
50	120
51	400
52	160
53	100
63	220
64	80
65	701
66	40
77	741
78	540
79	80
89	200
90	100
91	1611
92	180
121	9999
122	881
123	40
182	120
183	40
212	1041
213	180
