Mass Spectrum: 1,1,3-Trimethoxypropane
Formula: C6 H14 O3
CAS: 14315-97-0
Molecular weight: 134
Origin: NIST Mass Spectrometry Data Center, 1990.
m/z	RELATIVE INTENSITY
12	6
13	20
14	144
15	1572
16	41
17	24
18	12
19	11
26	180
27	783
28	621
29	2297
30	199
31	1738
32	64
33	291
37	13
38	44
39	302
40	63
41	775
42	295
43	708
44	13
45	9204
46	281
47	2236
48	60
49	7
51	14
53	35
54	22
55	189
56	99
57	365
58	365
59	496
60	26
61	20
69	29
71	2023
72	443
73	760
74	20
75	9999
76	365
77	48
85	42
87	217
88	11
89	7
101	358
102	589
103	1776
104	94
105	15
117	5
119	142
120	14
133	25
