Mass Spectrum: Benzo[b]thiophene, 5-methyl-
Formula: C9 H8 S
CAS: 14315-14-1
Molecular weight: 148
m/z	RELATIVE INTENSITY
39	921
40	50
41	40
42	10
43	30
44	40
45	1071
46	40
47	60
48	10
49	80
50	520
51	661
52	120
53	60
54	10
55	20
56	10
57	110
58	180
59	260
60	90
61	250
62	440
63	821
64	110
65	150
66	20
67	10
68	30
69	1031
70	130
71	210
72	160
73	651
74	981
75	300
76	140
77	641
78	100
79	10
80	10
81	120
82	190
83	40
84	30
85	70
86	120
87	150
88	90
89	300
90	40
91	40
92	20
93	230
94	50
95	90
96	20
97	40
98	40
99	20
100	10
101	70
102	300
103	571
104	90
105	30
106	40
107	20
108	80
109	30
110	20
111	10
112	10
113	70
114	50
115	801
116	80
117	30
118	10
119	50
120	40
121	360
122	30
123	20
124	10
125	10
126	10
127	10
128	10
129	10
130	10
131	10
132	40
133	10
134	30
135	10
136	10
141	10
142	10
143	10
144	10
145	210
146	260
147	9999
148	8267
149	1251
150	410
151	40
152	10
