Mass Spectrum: Benzene, 1-nitro-4-(2-phenylethyl)-
Formula: C14 H13 N O2
CAS: 14310-29-3
Molecular weight: 227
m/z	RELATIVE INTENSITY
39	170
40	20
41	50
50	70
51	200
63	200
64	80
65	671
76	90
77	170
78	140
89	300
90	200
91	9999
92	771
106	80
165	110
178	110
179	50
180	20
181	20
197	10
227	721
228	120
