Mass Spectrum: Benzene, 1-iodo-4-(2-phenylethyl)-
Formula: C14 H13 I
CAS: 14310-25-9
Molecular weight: 308
m/z	RELATIVE INTENSITY
38	140
39	931
40	130
41	240
43	140
50	460
51	901
52	210
53	60
62	250
63	961
64	410
65	1571
66	80
74	150
75	220
76	450
77	601
78	180
89	1972
90	3023
91	9619
92	821
102	200
103	220
104	120
115	150
127	120
128	90
141	200
152	190
165	450
166	200
167	50
178	460
179	360
180	180
181	1271
182	210
217	9999
218	831
306	150
307	40
308	5535
309	891
310	70
