Mass Spectrum: Pyrimidine, 2,4-dimethyl-
Formula: C6 H8 N2
CAS: 14331-54-5
Molecular weight: 108
Origin: A.J. MACLEOD, DEP. CHEM., QUEEN ELIZ. COLL., UNIV. LONDON, U
m/z	RELATIVE INTENSITY
39	7400
40	8400
41	7000
42	4600
51	2500
52	2700
66	1800
67	5700
81	1100
93	2500
107	1500
108	9999
109	900
