Mass Spectrum: Kresoxim-methyl
Formula: C18 H19 N O4
CAS: 143390-89-0
Molecular weight: 313
Origin: Richard Turcotte. Direction des laboratoires d'expertises et d'analyses alimentaires, Quebec, Canada.
m/z	RELATIVE INTENSITY
50	90
51	250
52	150
53	150
54	20
59	2092
60	50
61	20
62	60
63	310
64	100
65	340
66	40
74	30
75	60
76	130
77	1311
78	380
79	390
80	50
87	20
88	70
89	1661
90	651
91	1051
92	130
102	130
103	190
104	170
105	480
106	80
107	831
108	280
109	20
114	70
115	330
116	9999
117	1672
118	931
119	430
120	40
121	110
122	120
127	40
128	40
130	801
131	5335
132	2182
133	240
134	20
143	350
144	110
145	20
146	921
147	210
148	30
152	40
153	20
162	190
163	30
165	60
166	20
167	20
168	40
175	200
176	90
177	30
178	40
179	20
180	50
181	20
190	40
191	20
192	20
193	30
194	120
195	50
204	20
206	5165
207	661
208	110
220	20
222	90
223	200
224	40
254	50
282	320
283	60
313	280
314	50
