Mass Spectrum: Citric acid, 4TMS derivative
Formula: C18 H40 O7 Si4
CAS: 14330-97-3
Molecular weight: 480
Origin: NIST Mass Spectrometry Data Center
m/z	RELATIVE INTENSITY
15	10
27	10
28	20
29	30
31	10
39	30
40	10
41	10
42	30
43	240
44	200
45	1091
46	80
47	150
48	10
53	20
54	10
55	80
56	20
57	60
58	140
59	210
60	40
61	90
62	10
65	10
66	20
67	370
68	40
69	120
70	50
71	70
73	8978
74	1041
75	1451
76	100
77	50
81	10
82	10
83	20
84	10
85	30
86	10
87	30
88	30
89	30
91	10
95	40
96	10
97	80
98	20
99	190
100	20
101	80
102	20
103	120
104	20
105	30
106	10
111	90
112	10
113	50
114	30
115	270
116	170
117	280
118	40
119	80
120	10
121	10
124	10
125	10
126	10
127	20
128	10
129	540
130	80
131	540
132	100
133	1051
134	150
135	120
136	10
137	10
139	60
140	10
141	150
142	40
143	310
144	40
145	60
147	6886
148	1261
149	1301
150	170
151	90
152	10
153	10
155	30
156	20
157	140
158	20
159	50
160	10
161	60
162	20
163	110
164	20
165	10
169	90
170	20
171	150
172	20
173	80
174	20
175	40
176	10
177	40
178	10
179	10
183	831
184	130
185	250
186	40
187	30
189	150
190	180
191	160
192	40
193	40
194	10
195	10
197	10
199	10
200	10
201	100
202	20
203	40
204	130
205	130
206	40
207	290
208	60
209	40
211	1211
212	190
213	240
214	40
215	310
216	80
217	661
218	130
219	90
221	911
222	210
223	120
224	20
225	10
227	10
228	20
229	290
230	90
231	671
232	140
233	80
234	10
235	10
241	30
242	10
243	50
244	90
245	90
246	30
247	10
255	10
257	901
258	210
259	230
260	40
261	30
262	10
271	10
273	9999
274	3193
275	1361
276	210
277	50
278	10
279	10
285	340
286	80
287	120
288	30
289	20
290	10
291	60
292	20
293	20
294	10
299	10
301	270
302	70
303	300
304	100
305	1331
306	380
307	210
308	40
309	10
317	10
319	450
320	130
321	80
322	20
331	130
332	40
333	330
334	100
335	70
336	20
337	10
345	50
347	3984
348	1221
349	731
350	160
351	50
352	10
359	10
361	10
363	4344
364	1341
365	671
366	140
367	30
368	10
373	50
375	3823
376	1171
377	661
378	140
379	50
380	10
389	10
390	10
393	30
394	10
395	10
403	10
421	100
422	40
423	20
424	10
437	50
438	20
439	10
447	10
463	10
465	2112
466	841
467	460
468	120
469	40
470	10
