Mass Spectrum: (R)-(-)-2,2-Dimethyl-1,3-dioxolane-4-methanol
Formula: C6 H12 O3
CAS: 14347-78-5
Molecular weight: 132
Origin: Chuck Anderson, Aldrich Chemical Co.
m/z	RELATIVE INTENSITY
14	56
15	620
16	12
17	14
18	55
19	114
26	113
27	633
28	222
29	1298
30	104
31	1233
32	41
36	62
37	20
38	66
39	580
40	141
41	1103
42	1168
43	9999
44	369
45	175
47	16
53	14
55	215
56	52
57	2613
58	263
59	1882
60	98
61	1623
62	35
71	21
72	1055
73	616
74	39
75	119
83	243
84	12
85	86
86	46
99	49
101	2353
102	125
103	7
115	12
117	4090
118	214
119	29
