Mass Spectrum: 1-Chloro-2,4-difluorobenzene
Formula: C6 H3 Cl F2
CAS: 1435-44-5
Molecular weight: 148
Origin: NIST Mass Spectrometry Data Center
m/z	RELATIVE INTENSITY
12	10
17	10
18	10
19	10
24	10
25	30
26	40
31	861
33	20
35	110
36	90
37	460
38	200
39	50
44	50
45	20
47	60
48	40
49	170
50	450
51	80
55	70
56	270
57	290
60	100
61	540
62	781
63	2172
64	120
65	10
66	10
67	70
68	561
69	230
70	20
71	30
72	100
73	220
74	781
75	350
76	10
78	10
79	50
80	120
81	410
82	40
84	60
85	10
86	60
87	100
88	160
90	10
91	170
92	270
93	500
94	150
95	20
96	30
97	330
98	80
99	130
100	30
101	20
102	40
103	20
104	50
105	10
106	10
108	10
109	50
110	20
111	90
112	861
113	3753
114	250
115	60
117	100
119	20
122	60
124	20
127	10
128	70
129	60
130	20
131	10
148	9999
149	711
150	3233
151	210
