Mass Spectrum: Benzene,1,3-dichloro-5-fluoro-
Formula: C6 H3 Cl2 F
CAS: 1435-46-7
Molecular weight: 164
Origin: NIST Mass Spectrometry Data Center, 1994
m/z	RELATIVE INTENSITY
14	18
25	76
26	76
31	687
33	51
35	355
36	317
37	1044
38	469
39	81
44	112
45	40
47	287
48	147
49	582
50	1477
51	98
55	133
56	194
57	176
60	406
61	926
62	751
63	630
64	667
65	201
66	57
67	102
68	1075
69	370
70	50
71	93
72	308
73	901
74	1936
75	556
76	32
79	41
80	42
81	120
82	702
83	521
84	547
85	144
86	158
87	55
90	71
91	201
92	672
93	2071
94	1235
95	158
96	106
97	239
98	54
99	69
102	83
103	130
104	160
105	50
106	68
107	54
108	163
109	1403
110	168
111	486
112	30
115	36
117	43
127	99
128	706
129	4308
130	485
131	1394
132	93
133	38
164	9999
165	772
166	6507
167	437
168	1055
169	86
