Mass Spectrum: 1,3-Dichloro-4-fluorobenzene
Formula: C6 H3 Cl2 F
CAS: 1435-48-9
Molecular weight: 164
Origin: NIST Mass Spectrometry Data Center, 1994
m/z	RELATIVE INTENSITY
25	94
26	130
31	957
35	524
36	414
37	1194
38	479
39	109
44	66
45	53
47	368
48	174
49	717
50	1579
51	158
55	117
56	288
57	206
60	442
61	1134
62	823
63	664
64	646
65	206
66	64
67	126
68	1371
69	405
70	40
71	179
72	423
73	1057
74	2104
75	557
76	42
78	44
79	65
80	86
81	40
82	735
83	566
84	552
85	180
86	151
87	51
90	30
91	254
92	744
93	2139
94	1295
95	173
96	139
97	265
98	51
99	109
102	161
103	235
104	202
105	79
106	69
107	79
108	181
109	1566
110	180
111	432
112	47
114	35
115	51
117	52
118	28
127	121
128	735
129	4361
130	530
131	1488
132	113
133	48
138	43
140	34
164	9999
165	884
166	6823
167	436
168	949
169	84
