Mass Spectrum: 1,2-Dichloro-4-fluorobenzene
Formula: C6 H3 Cl2 F
CAS: 1435-49-0
Molecular weight: 164
Origin: NIST Mass Spectrometry Data Center
m/z	RELATIVE INTENSITY
25	10
26	30
31	240
33	10
35	130
36	90
37	430
38	150
39	30
44	30
45	20
47	130
48	60
49	310
50	891
51	70
55	60
56	110
57	140
59	10
60	160
61	520
62	420
63	380
64	330
65	100
66	20
67	40
68	701
69	230
70	30
71	60
72	230
73	530
74	1241
75	380
76	20
79	20
80	30
81	60
82	470
83	320
84	410
85	130
86	120
87	30
90	20
91	120
92	430
93	1682
94	1091
95	100
96	70
97	200
98	30
99	60
102	130
103	170
104	170
105	60
106	40
107	60
108	110
109	1351
110	130
111	430
112	30
114	20
115	20
116	10
117	30
118	10
119	10
120	10
126	10
127	80
128	741
129	4894
130	561
131	1692
132	100
133	40
135	10
138	30
140	10
143	10
144	10
145	20
147	10
164	9999
165	741
166	6526
167	440
168	1041
169	60
