Mass Spectrum: Aluminum, tris(1,1,1-trifluoro-2,4-pentanedionato-O,O')-
Formula: C15 H12 Al F9 O6
CAS: 14354-59-7
Molecular weight: 486
Origin: Japan AIST/NIMC Database- Spectrum MS-IW-4857
m/z	RELATIVE INTENSITY
15	10
27	30
28	70
39	50
40	10
41	10
42	30
43	1399
44	40
45	20
47	10
53	80
55	90
57	10
58	10
59	20
63	10
67	90
69	249
72	10
78	10
85	70
86	10
87	50
91	10
102	10
105	10
107	50
115	30
119	10
127	10
128	10
129	50
132	20
139	10
147	40
148	20
149	849
150	40
154	20
170	10
171	30
174	329
180	70
199	419
200	20
201	30
213	10
221	10
233	239
234	10
236	10
241	20
249	40
255	10
263	50
264	40
271	10
282	10
283	1789
284	179
285	20
305	10
314	99
315	10
333	9999
334	1109
335	139
336	10
405	50
417	50
467	40
486	489
487	80
488	10
