Mass Spectrum: Methylcyclohexylacetate
Formula: C9 H16 O2
CAS: 14352-61-5
Molecular weight: 156
Origin: Japan AIST/NIMC Database- Spectrum MS-NW-7609
m/z	RELATIVE INTENSITY
14	10
15	359
26	30
27	429
28	80
29	359
30	20
31	169
32	30
33	10
38	30
39	589
40	109
41	1119
42	109
43	2489
44	109
45	60
46	10
47	10
48	10
50	20
51	60
52	40
53	309
54	379
55	1669
56	109
57	30
58	10
59	269
60	10
61	10
63	10
65	50
66	40
67	559
68	149
69	90
70	10
71	50
72	10
73	10
74	9999
75	2989
76	139
77	80
78	30
79	149
80	269
81	549
82	379
83	349
84	20
85	20
87	60
88	10
91	40
92	10
93	20
94	20
95	129
96	60
97	409
98	30
99	30
100	20
101	10
102	10
106	10
109	10
113	199
114	20
123	20
124	109
125	509
126	50
127	10
155	10
156	60
157	10
