Mass Spectrum: 2-Hexanoylfuran
Formula: C10 H14 O2
CAS: 14360-50-0
Molecular weight: 166
Origin: NIST Mass Spectrometry Data Center, 1994
m/z	RELATIVE INTENSITY
6	1
8	9
10	8
11	9
13	2
14	31
15	119
16	5
18	15
19	7
20	6
22	4
24	6
26	217
27	1764
28	342
29	1267
30	30
31	15
32	4
37	195
38	741
39	4086
40	368
41	1324
42	456
43	772
44	33
46	8
47	5
50	113
51	348
52	138
53	722
54	495
55	939
56	79
57	20
58	11
59	6
61	6
62	35
63	70
64	40
65	137
66	190
67	774
68	588
69	106
70	92
71	52
74	14
75	13
77	122
78	34
79	69
80	13
81	735
82	226
83	41
84	12
89	10
90	5
91	27
92	13
93	62
94	5
95	8405
96	524
97	145
98	20
99	11
103	7
104	6
105	17
107	35
110	9999
111	690
112	56
113	10
115	10
119	10
120	9
121	11
123	1013
124	109
125	15
133	13
134	7
135	20
137	72
138	90
139	12
148	6
149	16
151	20
166	75
167	12
