Mass Spectrum: cis-1,2-Cyclohexanediamine
Formula: C6 H14 N2
CAS: 1436-59-5
Molecular weight: 114
Origin: H. SUESS, CIBA-GEIGY AG, MUNCHWILEN, SWITZER
m/z	RELATIVE INTENSITY
30	7200
41	2500
42	3000
43	9999
44	1600
45	1400
56	9500
57	1000
58	800
59	600
69	6000
70	2500
71	1400
72	700
82	1000
96	700
97	3000
114	2000
