Mass Spectrum: Oxirane, butyl-
Formula: C6 H12 O
CAS: 1436-34-6
Molecular weight: 100
Origin: NIST Mass Spectrometry Data Center, 1990.
m/z	RELATIVE INTENSITY
13	15
14	232
15	616
16	30
18	51
26	610
27	4182
28	1431
29	4490
30	266
31	1610
32	118
37	141
38	468
39	3944
40	908
41	6855
42	5962
43	2220
44	431
45	305
49	38
50	192
51	241
52	85
53	582
54	409
55	4111
56	553
57	1421
58	3393
59	180
62	37
65	63
67	519
68	314
69	368
70	37
71	9999
72	582
73	65
79	35
81	50
82	45
85	556
86	36
99	38
