Mass Spectrum: Heptafluoromethanetriamine
Formula: C F7 N3
CAS: 14362-68-6
Molecular weight: 187
Origin: A.Pleshkova, Nesmeyanov Inst.Org.Elem.Cpds, Moscow
m/z	RELATIVE INTENSITY
14	360
26	240
31	2783
32	30
33	1621
34	10
45	891
46	10
50	430
51	10
52	4034
53	20
64	9999
65	150
69	701
70	10
83	3043
84	50
116	390
117	10
135	1321
136	30
