Mass Spectrum: Cyclopropanecarboxamide, N-n-butyl
Formula: C8 H15 N O
CAS: 14372-00-0
Molecular weight: 141
Origin: Vladimir Zaikin, TIPS RAS, Moscow, Russia
m/z	RELATIVE INTENSITY
30	900
31	70
36	250
37	440
38	760
39	5695
40	1101
41	8087
42	1231
43	1371
44	650
45	230
49	70
50	200
51	180
52	160
53	180
54	230
55	800
56	570
57	660
58	630
59	200
60	80
63	120
67	100
68	570
69	9999
70	750
71	130
72	250
75	110
76	130
77	120
78	80
79	70
81	70
82	80
83	190
84	270
85	190
86	1211
87	140
98	4093
99	650
100	100
101	70
102	200
103	80
105	130
112	70
113	100
126	1321
127	150
140	50
141	1131
142	810
143	80
