Mass Spectrum: Aminoacethydrazide
Formula: C2 H7 N3 O
CAS: 14379-80-7
Molecular weight: 89
Origin: James Little,Eastman Chem.Co.,Kingsport,TN
m/z	RELATIVE INTENSITY
27	330
28	3703
29	1231
30	9999
31	1491
32	3463
41	140
42	400
43	661
44	611
45	470
46	631
61	350
72	170
73	360
89	420
90	150
