Mass Spectrum: Cyclobutanecarbonitrile, 1-phenyl-
Formula: C11 H11 N
CAS: 14377-68-5
Molecular weight: 157
Origin: MASS SPECTROMETRY CENTER, UNIV. OF UTAH ALDRICH 12571-7
m/z	RELATIVE INTENSITY
15	47
16	29
25	108
26	814
27	951
37	96
38	242
39	853
40	114
41	302
49	60
50	814
51	1358
52	537
53	136
61	75
62	266
63	665
64	313
65	244
74	297
75	438
76	607
77	888
78	861
79	17
86	12
87	84
88	146
89	445
90	297
91	254
101	324
102	1373
103	821
104	530
105	71
114	80
115	619
116	812
117	693
118	37
127	288
128	1150
129	9999
130	1469
131	133
140	146
141	28
142	246
153	34
154	27
156	141
157	1540
158	212
