Mass Spectrum: Cyclohexanone, 3,3,5,5-tetramethyl-
Formula: C10 H18 O
CAS: 14376-79-5
Molecular weight: 154
Origin: NIST Mass Spectrometry Data Center, 1990.
m/z	RELATIVE INTENSITY
15	225
27	1104
28	1050
29	1335
39	1794
40	395
41	3085
42	527
43	558
44	56
50	79
51	166
52	82
53	610
54	56
55	4435
56	2768
57	682
62	33
65	111
66	47
67	259
68	33
69	1201
70	1089
71	65
77	140
79	157
81	187
83	9999
84	543
85	47
91	49
95	50
97	1504
98	435
99	53
111	96
121	35
126	144
139	1217
140	133
154	1168
155	116
