Mass Spectrum: Pyridine, 2,2'-(1,2-ethenediyl)bis-
Formula: C12 H10 N2
CAS: 1437-15-6
Molecular weight: 182
Origin: J.E. WILKINSON S-CUBED, SAN DIEGO, CA.
m/z	RELATIVE INTENSITY
49	9
50	684
51	1513
52	692
53	13
63	214
64	30
75	51
76	128
77	632
78	1837
79	73
90	60
91	474
104	1752
127	56
128	17
154	799
155	34
179	150
181	9999
182	3465
