Mass Spectrum: Cinnamaldehyde, (E)-
Formula: C9 H8 O
CAS: 14371-10-9
Molecular weight: 132
Origin: NIST Mass Spectrometry Data Center, 1998.
m/z	RELATIVE INTENSITY
25	10
26	70
27	200
28	10
29	300
36	10
37	100
38	200
39	540
40	20
41	20
42	10
43	10
48	10
49	130
50	1460
51	3270
52	790
53	190
54	120
55	120
57	10
60	20
61	190
62	410
63	860
64	100
65	150
66	100
72	10
73	140
74	810
75	660
76	780
77	4260
78	3430
79	230
80	10
84	10
85	50
86	80
87	110
88	30
89	150
90	20
91	220
92	20
97	30
98	120
99	30
100	10
101	160
102	1240
103	5849
104	2780
105	360
106	20
109	10
110	10
113	20
114	10
115	90
116	10
129	20
131	9999
132	5759
133	570
134	40
