Mass Spectrum: Cyclopentane, 1,2-dichloro-, trans-
Formula: C5 H8 Cl2
CAS: 14376-81-9
Molecular weight: 138
Origin: NIST Mass Spectrometry Data Center, 1990.
m/z	RELATIVE INTENSITY
26	192
27	484
28	68
31	48
35	56
36	79
37	248
38	485
39	1989
40	435
41	1760
42	226
48	55
49	340
50	206
51	369
52	86
53	295
55	55
60	48
61	248
62	823
63	367
64	267
65	830
66	48
67	9999
68	724
73	159
75	908
76	1092
77	316
78	337
87	40
89	206
91	57
96	174
98	104
102	1452
103	188
104	460
105	53
109	41
110	77
112	59
138	95
140	62
