Mass Spectrum: Aziridinone, 1,3-bis(1,1-dimethylethyl)-
Formula: C10 H19 N O
CAS: 14387-89-4
Molecular weight: 169
m/z	RELATIVE INTENSITY
37	100
38	200
39	1501
40	300
41	4704
42	1201
43	500
50	50
51	200
52	300
53	300
54	200
55	1201
56	801
57	9999
58	1001
59	50
60	50
66	100
67	200
68	1001
69	601
70	1201
71	200
72	200
73	50
74	100
82	100
83	100
84	500
85	100
86	801
87	100
96	100
97	50
98	100
99	100
112	100
113	30
114	30
126	430
127	70
141	400
142	50
154	10
169	60
170	20
