Mass Spectrum: Oxirane, (1-methylethyl)-
Formula: C5 H10 O
CAS: 1438-14-8
Molecular weight: 86
Origin: P.F.DIAMOND SHELL RESEARCH LIMITED THORNTON RESEARCH CENTRE
m/z	RELATIVE INTENSITY
26	161
27	1260
28	1105
29	826
30	93
31	192
37	105
38	229
39	2049
40	478
41	8322
42	422
43	652
44	86
45	93
50	124
51	124
52	55
53	273
54	186
55	1198
56	9999
57	515
58	55
71	900
85	118
86	49
