Mass Spectrum: Disiloxane, pentamethyl-
Formula: C5 H16 O Si2
CAS: 1438-82-0
Molecular weight: 148
Origin: P. BRUCK, MAGYAR TUDOMANYOS AKADEMIA, HUNGARY
m/z	RELATIVE INTENSITY
43	200
45	440
51	270
53	270
59	1000
66	720
73	1100
103	130
117	270
119	1000
120	110
131	140
133	9999
134	1380
135	720
147	1970
148	300
149	160
