Mass Spectrum: 1H-Pyrrole, 1-(2-furanylmethyl)-
Formula: C9 H9 N O
CAS: 1438-94-4
Molecular weight: 147
Origin: Japan AIST/NIMC Database- Spectrum MS-NW-7404
m/z	RELATIVE INTENSITY
18	10
26	60
27	509
28	80
29	80
37	70
38	149
39	439
40	109
41	119
42	20
43	10
49	20
50	179
51	429
52	239
53	2099
54	99
55	10
58	199
59	50
60	10
62	20
63	70
64	40
65	109
66	60
67	139
68	20
73	70
74	10
75	10
76	10
77	20
78	70
79	40
80	119
81	9999
82	579
83	30
89	50
90	60
91	119
92	30
93	10
94	10
96	10
104	20
116	20
117	209
118	99
119	10
145	10
146	30
147	4459
148	489
149	30
