Mass Spectrum: 1-Naphthalenepropanol, .alpha.-ethenyldecahydro-.alpha.,5,5,8a-tetramethyl-2-methylene-, [1S-[1.alpha.(R*),4a.beta.,8a.alpha.]]-
Formula: C20 H34 O
CAS: 1438-62-6
Molecular weight: 290
m/z	RELATIVE INTENSITY
17	271
18	1146
19	21
27	667
28	167
29	625
31	42
39	792
40	208
41	4750
42	417
43	4208
44	250
45	125
51	146
52	104
53	1458
54	187
55	4166
56	354
57	750
58	167
65	500
66	292
67	2666
68	875
69	4791
70	604
71	4062
72	292
77	1250
78	333
79	875
80	2458
81	6770
82	1250
83	1208
84	250
85	146
91	2229
92	875
93	4270
94	2125
95	5874
96	917
97	1250
98	146
103	146
104	83
105	1875
106	771
107	3479
108	1187
109	3021
110	375
111	792
112	62
113	21
115	125
116	42
117	333
118	167
119	1625
120	1000
121	2625
122	958
123	3625
124	917
125	292
128	42
129	62
130	21
131	354
132	146
133	1500
134	1666
135	1750
136	2229
137	9999
138	1125
139	125
145	292
146	83
147	917
148	917
149	917
150	375
151	167
152	21
153	42
159	333
160	83
161	1125
162	375
163	792
164	167
165	104
173	312
174	104
175	1208
176	583
177	1791
178	271
179	229
187	667
188	229
189	1500
190	1250
191	812
192	354
193	21
195	42
201	458
202	708
203	1250
204	1312
205	271
215	229
216	333
217	354
218	42
219	21
229	312
230	167
231	104
232	21
243	250
244	958
245	312
257	2687
258	521
259	21
272	1375
273	271
275	125
