Mass Spectrum: trans-1,2-Diphenylethylene oxide
Formula: C14 H12 O
CAS: 1439-07-2
Molecular weight: 196
Origin: PET07 P.H. Peterman, U.S. Fish Wildlife Serv., Columbia, Mo., USA
m/z	RELATIVE INTENSITY
38	200
39	1600
44	500
50	1100
51	2800
52	700
53	200
55	200
61	200
62	600
63	2000
64	600
65	800
66	100
69	200
70	100
71	200
73	100
74	700
75	700
76	1100
77	4000
78	700
81	200
82	700
83	750
84	100
85	100
86	250
87	400
88	300
89	2500
90	1200
91	1000
92	150
98	200
99	150
100	100
101	150
102	500
103	200
105	3400
106	400
113	250
115	1200
116	100
126	200
127	200
128	600
139	700
140	100
141	200
151	400
152	2900
153	600
163	500
164	700
165	6100
166	1900
167	9999
168	1700
169	200
176	200
177	200
178	1000
179	1100
180	1000
181	200
194	200
195	500
196	700
197	100
