Mass Spectrum: Sulfapyridine
Formula: C11 H11 N3 O2 S
CAS: 144-83-2
Molecular weight: 249
Origin: Tox21 Consortium/NIST Mass Spectrometry Data Center, 2012
m/z	RELATIVE INTENSITY
15	10
26	20
27	40
28	150
29	10
30	10
36	20
37	60
38	270
39	1441
40	300
41	260
42	80
43	20
44	10
45	40
47	10
48	50
49	10
50	100
51	210
52	310
53	150
54	90
55	10
58	10
59	10
60	10
61	30
62	100
63	410
64	520
65	3573
66	981
67	490
68	50
69	50
70	20
71	10
72	10
73	10
74	30
75	70
76	50
77	50
78	380
79	160
80	330
81	70
82	10
83	10
84	30
85	20
87	10
88	10
89	30
90	90
91	350
92	4714
93	731
94	470
95	100
96	30
97	30
98	10
102	10
103	30
104	30
105	40
106	30
107	180
108	2422
109	180
110	20
112	30
113	10
114	10
115	20
116	10
117	30
118	60
119	40
120	10
121	10
122	10
123	70
124	60
125	70
127	10
128	20
129	10
130	120
131	50
132	30
139	10
140	360
141	80
142	50
143	40
144	20
145	20
155	50
156	420
157	130
158	90
159	10
166	20
167	180
168	140
169	60
170	20
181	10
182	50
183	240
184	9999
185	5925
186	711
187	40
249	20
