Mass Spectrum: Silane, chloromethyldiphenyl-
Formula: C13 H13 Cl Si
CAS: 144-79-6
Molecular weight: 232
Origin: J.VOTH UNIV. OF CALIFORNIA, DAVIS, CALIFORNIA, 95616, USA
m/z	RELATIVE INTENSITY
14	37
15	99
16	24
17	16
18	53
26	66
27	235
28	200
29	48
32	43
35	32
36	142
37	39
38	109
39	361
40	32
41	73
42	28
43	145
44	22
49	23
50	1059
51	2109
52	222
53	765
54	80
55	51
61	41
62	113
63	3684
64	220
65	1415
66	162
67	117
73	36
74	219
75	159
76	138
77	921
78	445
79	365
80	95
81	61
86	28
87	41
88	66
89	165
90	76
91	1354
92	129
93	109
94	23
97	32
98	558
99	40
101	78
102	66
103	322
104	65
105	529
106	67
107	31
108	30
109	20
113	64
114	32
115	158
116	48
117	73
119	184
120	34
121	52
126	44
127	70
128	69
129	160
130	26
131	22
139	210
140	146
141	145
142	65
143	39
150	32
151	85
152	336
153	239
154	557
155	1424
156	192
157	431
158	54
165	266
166	102
167	86
175	66
177	55
178	29
179	110
180	253
181	674
182	135
183	38
189	25
191	25
193	38
195	128
196	52
197	115
198	23
203	38
215	246
216	85
217	9999
218	1826
219	3622
220	622
232	2609
233	527
234	958
235	180
236	43
