Mass Spectrum: 1,3-Pentanediol, 2,2,4-trimethyl-
Formula: C8 H18 O2
CAS: 144-19-4
Molecular weight: 146
m/z	RELATIVE INTENSITY
15	60
17	20
18	70
19	10
26	20
27	671
28	280
29	1121
30	40
31	651
32	30
33	10
38	20
39	530
40	140
41	2672
42	180
43	4064
44	160
45	1041
46	30
47	100
50	10
51	30
52	10
53	180
54	60
55	2843
56	9999
57	3183
58	160
59	1291
60	50
61	120
65	30
66	10
67	170
68	40
69	200
70	150
71	2182
72	500
73	2662
74	160
75	30
77	20
79	20
81	40
82	10
83	460
84	60
85	1762
86	110
87	30
89	120
91	100
92	10
95	50
96	10
97	100
98	110
99	60
100	10
101	30
102	10
103	1551
104	90
105	10
109	10
111	80
112	10
113	30
114	20
115	50
116	10
117	10
127	10
128	30
129	100
130	10
131	10
145	10
