Mass Spectrum: Trihexyphenidyl
Formula: C20 H31 N O
CAS: 144-11-6
Molecular weight: 301
Origin: Japan AIST/NIMC Database- Spectrum MS-IW-5139
m/z	RELATIVE INTENSITY
17	60
18	149
27	40
28	50
29	90
30	90
32	20
39	60
40	10
41	349
42	259
43	109
44	189
50	10
51	50
52	20
53	40
54	40
55	429
56	149
57	99
58	20
63	10
65	30
67	90
68	40
69	139
70	139
71	20
76	20
77	229
78	60
79	109
80	30
81	60
82	60
83	90
84	379
85	339
86	50
89	10
91	239
92	30
93	30
94	30
95	90
96	169
97	149
98	9999
99	789
100	30
102	30
103	99
104	299
105	379
106	50
107	70
108	10
109	10
110	70
111	40
112	179
113	60
114	80
115	119
116	30
117	149
118	309
119	40
120	10
125	10
127	30
128	99
129	249
130	80
131	239
132	40
133	30
141	30
142	40
143	139
144	109
145	50
155	10
157	30
158	20
165	10
167	10
171	199
172	30
186	299
187	50
188	20
189	10
190	20
198	30
200	30
216	60
217	10
218	929
219	529
220	60
224	10
228	10
282	10
283	40
284	20
300	10
301	30
