Mass Spectrum: Anileridine
Formula: C22 H28 N2 O2
CAS: 144-14-9
Molecular weight: 352
Origin: Patti Price, Georgia Bureau of Investigation, Decatur, Georgia
m/z	RELATIVE INTENSITY
41	40
42	270
43	30
44	30
51	10
52	10
53	20
54	10
55	10
56	40
57	10
59	50
65	40
66	10
67	10
68	30
69	40
70	30
77	200
78	40
79	60
80	20
81	10
82	20
83	50
84	30
85	30
86	10
89	20
90	10
91	280
92	30
93	50
94	30
95	10
96	20
99	10
102	30
103	250
104	60
105	50
106	440
107	50
112	20
115	200
116	50
117	110
118	130
119	140
120	590
121	50
127	50
128	130
129	150
130	50
131	110
132	40
133	10
139	10
141	30
142	10
143	110
144	60
145	50
146	10
155	10
156	20
158	120
159	30
160	10
161	10
162	10
170	40
171	120
172	320
173	80
174	60
175	10
190	130
191	10
200	20
207	10
216	40
218	410
219	50
233	10
244	320
245	60
246	9999
247	1551
248	160
249	10
275	30
277	310
278	80
279	120
280	20
307	50
308	10
350	80
351	20
352	20
