Mass Spectrum: Benzene, 1-(1,1-dimethylethyl)-3-ethyl-
Formula: C12 H18
CAS: 14411-56-4
Molecular weight: 162
Origin: Philip Morris R&D
m/z	RELATIVE INTENSITY
36	23
38	32
39	313
40	35
41	747
42	33
43	14
49	5
50	68
51	254
52	88
53	123
55	120
57	147
58	89
59	15
62	16
63	163
64	179
65	399
66	152
67	10
70	10
71	39
72	4
73	4
74	33
75	26
76	42
77	463
78	147
79	657
80	29
84	2
87	22
89	94
90	22
91	1515
92	113
93	54
101	17
102	72
103	223
104	130
105	443
106	41
107	258
108	37
113	11
115	513
116	226
117	401
118	76
119	2069
120	203
121	16
126	1
127	53
128	173
129	85
130	28
131	269
132	58
133	143
134	3
145	37
146	39
147	9999
148	1310
149	65
150	1
160	4
162	2069
163	305
164	26
