Mass Spectrum: Pentachlorophenyl acetate
Formula: C8 H3 Cl5 O2
CAS: 1441-02-7
Molecular weight: 306
Origin: NIST Mass Spectrometry Data Center, 2010
m/z	RELATIVE INTENSITY
15	170
26	10
27	10
29	30
35	40
36	120
37	20
38	30
39	10
40	30
41	50
42	250
43	9999
44	300
45	40
47	90
48	20
49	30
50	10
52	10
56	10
59	20
60	300
61	40
63	10
65	70
66	50
67	10
69	10
71	180
72	50
73	110
74	10
75	10
77	20
78	10
79	10
83	100
84	10
85	40
87	90
89	30
94	50
95	731
96	110
97	250
98	30
99	10
100	50
101	60
102	30
103	10
106	170
107	150
108	130
109	70
110	30
111	20
114	10
115	10
116	10
117	200
118	110
119	210
120	80
121	70
122	10
123	20
124	10
130	781
131	130
132	530
133	80
134	90
135	10
141	370
142	160
143	370
144	110
145	130
146	20
147	20
153	10
155	10
158	20
159	10
160	10
165	981
166	60
167	931
168	50
169	300
170	20
171	30
177	50
178	10
179	60
180	20
181	20
182	10
193	10
194	10
195	10
196	10
200	200
201	80
202	270
203	100
204	130
205	50
206	30
207	10
212	50
213	10
214	70
215	10
216	30
218	10
228	160
229	20
230	210
231	20
232	110
233	10
234	30
235	330
236	20
237	550
238	30
239	340
240	20
241	110
242	10
243	20
247	50
248	10
249	70
250	20
251	40
252	10
253	20
263	50
264	2172
265	210
266	3503
267	260
268	2272
269	150
270	761
271	50
272	120
273	10
274	10
306	290
307	20
308	470
309	30
310	290
311	30
312	100
313	10
314	10
