Mass Spectrum: 2,4,5-Trifluorobenzyl alcohol
Formula: C7 H5 F3 O
CAS: 144284-25-3
Molecular weight: 162
Origin: NIST Mass Spectrometry Data Center
m/z	RELATIVE INTENSITY
17	10
19	10
20	10
25	10
26	30
27	40
28	50
29	1471
30	250
31	1661
32	30
33	30
36	20
37	250
38	210
39	230
40	10
41	10
42	20
43	20
44	80
45	80
46	20
47	60
48	20
49	270
50	671
51	550
52	30
53	60
54	10
55	110
56	470
57	941
58	40
60	60
61	771
62	951
63	2752
64	210
65	40
66	50
68	581
69	510
70	150
71	70
73	160
74	661
75	1692
76	110
77	50
79	210
80	661
81	3053
82	280
83	1031
84	180
85	130
86	210
87	260
88	450
89	50
90	10
91	30
92	350
93	721
94	631
95	1321
96	100
97	20
98	60
99	621
100	100
101	370
102	60
103	40
104	70
105	170
106	150
107	90
108	10
110	50
111	170
112	791
113	7537
114	3954
115	2873
116	190
117	50
119	941
120	60
121	30
122	20
123	330
125	2172
126	200
127	10
128	40
129	20
130	170
131	1742
132	2102
133	8157
134	921
135	40
139	20
141	9999
142	3323
143	1832
144	571
145	6166
146	490
147	20
159	1531
160	260
161	4754
162	9959
163	771
164	40
