Mass Spectrum: 4-Amino-2-chloropyridine
Formula: C5 H5 Cl N2
CAS: 14432-12-3
Molecular weight: 128
Origin: Japan AIST/NIMC Database- Spectrum MS-NW-2925
m/z	RELATIVE INTENSITY
12	10
13	10
15	50
17	10
18	40
24	10
25	30
26	179
27	80
28	519
29	20
30	10
32	40
33	10
35	30
36	70
37	219
38	379
39	1079
40	659
41	639
42	479
43	60
44	20
45	10
46	40
47	60
48	20
49	90
50	169
51	199
52	729
53	109
54	90
55	10
60	60
61	20
62	70
63	70
64	239
65	409
66	3539
67	749
68	50
71	10
72	30
73	179
74	70
75	129
76	119
77	20
78	10
79	10
81	10
84	20
85	40
86	60
87	30
88	80
89	10
90	30
91	40
92	149
93	6119
94	389
95	10
99	10
100	169
101	189
102	60
103	60
127	60
128	9999
129	649
130	3099
131	199
