Mass Spectrum: Benzonitrile, 4-acetyl-
Formula: C9 H7 N O
CAS: 1443-80-7
Molecular weight: 145
Origin: Japan AIST/NIMC Database- Spectrum MS-NW-6192
m/z	RELATIVE INTENSITY
14	40
15	289
18	10
26	40
27	139
28	50
29	20
36	10
37	119
38	129
39	199
40	10
41	10
42	149
43	1799
44	50
48	10
49	99
50	649
51	779
52	169
53	20
57	10
60	20
61	90
62	129
63	189
64	109
65	109
72	10
73	80
74	279
75	1019
76	709
77	70
78	10
80	10
85	20
86	30
87	40
88	60
89	109
90	40
91	10
98	20
99	90
100	70
101	90
102	4759
103	509
104	40
114	20
115	20
116	70
117	10
127	20
128	10
129	20
130	9999
131	959
132	70
145	1719
146	189
147	30
