Mass Spectrum: Phosphorocyanidic diamide, tetramethyl-
Formula: C5 H12 N3 O P
CAS: 14445-60-4
Molecular weight: 161
Origin: A.A.Kutin, Moscow, Russia
m/z	RELATIVE INTENSITY
28	901
29	200
41	300
42	2192
43	791
44	9999
45	1181
47	611
58	410
70	300
71	300
76	300
90	510
91	500
92	2993
93	300
108	200
117	2102
118	300
135	400
160	300
161	1401
162	200
