Mass Spectrum: 1-sec-Butyladamantane
Formula: C14 H24
CAS: 14449-42-4
Molecular weight: 192
Origin: V.G.Zaikin, TIPS, Russian Acad. Sci.
m/z	RELATIVE INTENSITY
53	200
55	400
57	200
65	200
67	600
69	200
77	350
78	200
79	1101
80	150
81	400
91	350
92	200
93	1101
94	200
95	150
105	150
107	500
135	9999
136	1101
192	250
193	40
