Mass Spectrum: 1-n-butyladamantane
Formula: C14 H24
CAS: 14449-41-3
Molecular weight: 192
Origin: V.G.Zaikin, TIPS, Russian Acad. Sci.
m/z	RELATIVE INTENSITY
53	400
54	100
55	700
65	200
67	700
68	100
69	300
77	550
79	1401
80	250
81	550
91	550
92	250
93	1301
94	200
95	300
105	200
107	650
135	9999
136	1050
137	150
192	300
193	50
