Mass Spectrum: 1,3-Dioxolane, 2-(1-methylpropyl)-
Formula: C7 H14 O2
CAS: 14447-25-7
Molecular weight: 130
Origin: D.H.WILLIAMS CHEMISTRY DEPT., UNIVERSITY OF CAMBRIDGE
m/z	RELATIVE INTENSITY
26	100
27	500
29	600
31	150
38	150
39	380
40	200
41	600
42	200
43	200
44	250
45	1500
46	100
50	100
51	200
52	200
53	100
55	300
56	100
57	400
58	100
67	50
68	50
69	100
70	250
71	100
73	9999
74	400
75	100
77	100
78	700
79	100
84	100
85	200
86	100
91	100
92	100
99	150
100	150
102	100
129	200
130	100
