Mass Spectrum: 3-Bromo-2-fluorobenzotrifluoride
Formula: C7 H3 Br F4
CAS: 144584-67-8
Molecular weight: 242
Origin: NIST Mass Spectrometry Data Center
m/z	RELATIVE INTENSITY
15	20
18	110
19	40
20	40
25	40
26	130
31	1271
33	30
36	90
37	621
38	420
39	140
43	10
44	10
45	20
47	70
48	60
49	340
50	1511
51	420
52	20
55	90
56	450
57	270
61	641
62	981
63	991
64	60
68	1591
69	3013
70	50
72	280
73	470
74	1862
75	2052
76	110
77	20
79	791
80	330
81	861
84	10
85	60
86	90
87	200
88	110
91	70
92	661
93	1631
94	2102
95	180
96	20
99	621
100	50
101	40
102	20
103	60
104	110
105	50
106	50
107	10
112	871
113	1902
114	110
116	20
117	160
118	120
119	40
121	90
122	120
123	240
124	90
125	430
126	40
128	40
129	20
130	50
131	20
132	60
135	40
136	40
137	150
141	40
143	1972
144	1231
145	80
146	20
152	20
153	40
154	20
155	40
161	130
163	8728
164	581
165	20
173	110
175	90
192	841
194	781
195	60
223	2032
225	2112
226	130
242	9999
244	9809
245	701
246	20
