Mass Spectrum: Thiophene, 2,5-diphenyl-
Formula: C16 H12 S
CAS: 1445-78-9
Molecular weight: 236
m/z	RELATIVE INTENSITY
39	1301
45	901
50	801
51	1301
63	1001
69	300
77	601
89	300
115	801
118	801
121	1702
135	601
165	300
189	300
191	400
202	901
203	300
221	200
234	901
235	500
236	9999
237	2002
238	601
