Mass Spectrum: 2-n-Propyladamantane
Formula: C13 H22
CAS: 14451-88-8
Molecular weight: 178
Origin: V.G.Zaikin, TIPS, Russian Acad. Sci.
m/z	RELATIVE INTENSITY
51	200
53	400
54	150
55	700
57	300
65	300
66	150
67	1351
68	200
69	300
70	700
77	650
78	200
79	1701
80	400
81	700
82	300
91	600
92	250
93	1501
94	200
95	200
105	150
107	600
135	9999
136	1401
137	100
178	1401
179	200
180	11
