Mass Spectrum: Tricyclo[3.3.1.1<3,7>]decane, 2-ethyl-
Formula: C12 H20
CAS: 14451-87-7
Molecular weight: 164
Origin: Vladimir Zaikin,TIPS RAS, Moscow, Russia
m/z	RELATIVE INTENSITY
51	300
52	200
53	800
54	300
55	1000
57	200
65	500
66	300
67	2402
68	400
69	300
70	100
77	1101
78	400
79	2602
80	800
81	1501
90	100
91	1000
92	300
93	2201
94	700
95	800
105	200
107	1000
108	400
110	100
121	1601
122	150
135	9999
136	2552
137	200
164	2802
165	400
