Mass Spectrum: 4-Undecanone
Formula: C11 H22 O
CAS: 14476-37-0
Molecular weight: 170
Origin: Japan AIST/NIMC Database- Spectrum MS-IW-2921
m/z	RELATIVE INTENSITY
15	60
26	70
27	1629
28	269
29	1469
30	30
31	50
38	30
39	909
40	179
41	3619
42	879
43	8669
44	319
45	119
50	20
51	50
52	20
53	219
54	99
55	1579
56	269
57	9999
58	8109
59	409
60	60
63	10
65	50
66	20
67	489
68	90
69	269
70	309
71	9259
72	499
73	60
77	40
78	10
79	50
80	20
81	159
82	309
83	259
84	159
85	119
86	6979
87	1729
88	99
91	30
93	20
94	10
95	80
96	50
97	50
98	90
99	2079
100	199
101	20
105	10
107	20
108	10
109	759
110	99
111	20
113	249
114	129
115	10
121	20
122	10
123	20
124	20
125	20
126	30
127	7129
128	899
129	70
135	20
141	99
142	50
152	30
155	70
156	10
169	10
170	1159
171	169
172	10
