Mass Spectrum: Cyanoacetylurea
Formula: C4 H5 N3 O2
CAS: 1448-98-2
Molecular weight: 127
Origin: Japan AIST/NIMC Database- Spectrum MS-NW-8006
m/z	RELATIVE INTENSITY
12	50
13	90
14	149
15	70
16	499
17	529
18	229
24	10
25	30
26	50
27	129
28	439
29	189
30	50
31	80
32	10
38	209
39	459
40	1629
41	3299
42	429
43	719
44	9999
45	149
46	20
51	10
52	10
53	40
54	20
55	30
56	60
58	10
59	40
60	99
61	20
66	30
67	199
68	769
69	50
70	169
84	2079
85	119
86	10
87	369
88	10
100	20
102	10
127	379
128	50
