Mass Spectrum: Benzene, 1-bromo-4-chloro-2-methyl-
Formula: C7 H6 Br Cl
CAS: 14495-51-3
Molecular weight: 204
Origin: Chuck Anderson, Aldrich Chemical Co.
m/z	RELATIVE INTENSITY
25	20
26	115
27	154
31	6
35	24
36	69
37	526
38	758
39	1748
40	131
41	26
43	463
44	1172
47	31
48	32
49	254
50	723
51	568
52	65
60	117
61	610
62	1474
63	2752
64	393
65	131
71	8
72	66
73	674
74	491
75	491
76	39
79	54
80	25
81	66
82	27
83	45
84	758
85	954
86	674
87	596
88	229
89	7527
90	1853
91	124
93	18
95	17
96	37
97	247
98	38
99	1018
100	54
101	317
102	152
103	187
104	59
105	8
106	13
107	6
108	13
109	29
110	46
116	19
117	114
118	21
119	115
121	6
122	6
123	331
124	1067
125	9999
126	1018
127	3145
128	259
129	35
130	24
131	14
143	81
145	27
151	11
153	22
167	9
168	6
169	2106
170	128
171	1966
172	129
177	19
179	24
203	191
204	4859
205	540
206	6179
207	484
208	1572
209	99
