Mass Spectrum: 4-Methyl-2,6,7-trioxa-1-phosphabicyclo[2.2.2]octane
Formula: C5 H9 O3 P
CAS: 1449-91-8
Molecular weight: 148
Origin: VERIFIN - Methodology B1-1979
m/z	RELATIVE INTENSITY
27	400
28	300
29	700
39	1401
40	100
41	700
42	100
43	300
47	1301
48	100
53	800
54	2802
55	6906
56	300
69	300
71	2201
72	100
77	200
84	90
100	900
103	400
109	1901
117	700
118	9999
119	500
148	3703
149	200
