Mass Spectrum: N-(5-Methylfurfuryl)dimethylamine
Formula: C8 H13 N O
CAS: 14496-35-6
Molecular weight: 139
Origin: NIST Mass Spectrometry Data Center
m/z	RELATIVE INTENSITY
12	20
15	1111
16	10
18	130
26	210
27	621
28	390
30	400
37	60
38	150
39	591
40	270
41	1211
42	2342
43	2152
44	370
49	70
50	390
51	671
52	470
53	390
54	70
55	260
56	120
57	250
58	1051
61	10
62	20
63	40
65	410
66	190
67	561
68	90
69	80
70	80
72	20
76	10
77	50
78	40
79	100
80	160
81	220
82	120
83	30
84	30
91	10
95	9999
96	791
97	40
106	10
107	20
108	50
109	20
110	70
111	10
122	110
124	370
125	30
138	861
139	2452
140	210
141	10
