Mass Spectrum: Disilane, hexamethyl-
Formula: C6 H18 Si2
CAS: 1450-14-2
Molecular weight: 146
Origin: Japan AIST/NIMC Database- Spectrum MS-NW-9254
m/z	RELATIVE INTENSITY
28	40
29	60
31	50
32	10
42	20
43	349
44	119
45	839
46	50
47	30
53	30
55	50
56	10
57	50
58	119
59	259
60	20
61	10
69	50
70	20
71	50
72	229
73	9999
74	879
75	369
76	10
81	10
83	20
84	10
85	50
86	10
87	20
91	10
92	10
97	10
99	60
100	10
101	40
103	20
113	20
115	159
116	30
117	20
129	80
130	30
131	2439
132	389
133	189
134	20
145	20
146	1149
147	199
148	90
149	10
