Mass Spectrum: Benzene, 1,1',1'',1'''-(1,3-butadiene-1,4-diylidene)tetrakis-
Formula: C28 H22
CAS: 1450-63-1
Molecular weight: 358
Origin: CONTINENTAL OIL CO., PONCA CITY, OKLA., USA
m/z	RELATIVE INTENSITY
13	3
14	6
15	23
16	5
25	4
26	18
27	244
28	60
29	26
30	5
36	8
37	16
38	23
39	339
40	25
41	52
42	5
43	16
44	1
49	6
50	94
51	558
52	110
53	34
54	5
55	9
56	6
57	11
58	2
61	5
62	42
63	214
64	36
65	127
66	13
67	5
69	10
70	8
71	2
73	5
74	53
75	100
76	138
77	548
78	328
79	82
80	4
81	11
82	17
86	26
87	65
88	61
89	143
90	24
91	269
92	24
93	8
94	16
95	22
96	17
97	6
98	36
99	43
100	47
101	91
102	229
103	188
104	27
105	17
106	10
107	10
108	12
109	14
110	32
111	34
112	38
113	165
114	88
115	420
116	57
117	19
118	18
119	29
120	40
122	12
123	13
124	24
125	94
126	338
127	114
128	156
129	35
130	20
131	40
132	97
133	59
135	12
136	4
137	89
138	306
139	512
140	403
141	105
142	31
143	31
144	41
145	49
146	29
147	31
148	32
149	57
150	200
151	311
152	864
153	162
154	38
155	44
156	4
157	100
158	66
161	51
162	115
163	411
164	343
165	2292
166	858
167	3919
168	627
169	99
170	99
171	47
173	12
174	46
175	109
176	334
177	200
178	793
179	522
180	76
185	9
186	18
187	81
188	87
189	572
190	206
191	973
192	369
193	60
200	235
201	284
202	1057
203	807
204	221
205	37
210	8
211	21
212	18
213	72
214	27
215	137
216	44
217	25
221	45
223	42
224	68
225	51
226	133
227	56
228	61
229	33
235	15
236	20
237	68
238	51
239	265
240	103
241	89
242	31
248	37
249	47
250	138
251	102
252	538
253	291
254	137
255	88
256	36
261	54
263	230
264	172
265	759
266	386
267	1580
268	381
273	7
274	98
276	558
277	541
278	671
279	1064
280	727
281	712
282	173
285	10
287	30
288	18
289	79
290	33
291	43
292	16
293	8
298	14
299	14
300	47
301	34
302	72
303	44
304	30
305	16
311	20
312	4
313	76
314	47
315	103
316	52
317	117
318	39
323	10
324	26
325	26
326	86
327	82
328	94
329	106
330	65
331	42
337	27
338	24
339	76
340	52
341	117
342	75
343	102
344	35
348	17
349	18
350	40
351	35
352	46
353	46
355	67
357	314
358	9999
359	3004
360	429
