Mass Spectrum: Carvyl propionate, cis-
Formula: C13 H20 O2
CAS: 145032-50-4
Molecular weight: 208
Origin: Philip Morris R&D
m/z	RELATIVE INTENSITY
36	65
37	18
38	92
39	1035
40	201
41	1813
42	123
43	784
44	79
45	127
46	16
50	80
51	342
52	146
53	622
54	148
55	1316
56	201
57	9999
58	430
59	114
60	16
61	11
62	29
63	108
64	59
65	487
66	169
67	444
68	238
69	323
70	25
71	39
72	53
73	91
74	166
75	48
76	8
77	1200
78	319
79	1230
80	663
81	566
82	396
83	445
84	2296
85	120
86	38
88	2
89	92
90	23
91	3213
92	1954
93	2168
94	450
95	352
96	611
97	329
98	19
100	20
102	19
103	177
104	83
105	1819
106	747
107	1043
108	1337
109	7928
110	680
111	104
112	13
115	194
116	35
117	489
118	78
119	6450
120	656
121	77
122	73
123	300
124	133
125	19
127	14
128	16
129	5
131	41
132	84
133	327
134	2706
135	527
136	54
137	481
138	56
139	102
140	175
141	6
150	6
151	87
152	6529
153	673
154	48
164	226
165	1127
167	54
179	2
208	226
209	17
