Mass Spectrum: Chloropyrazine
Formula: C4 H3 Cl N2
CAS: 14508-49-7
Molecular weight: 114
Origin: NIST Mass Spectrometry Data Center, 1990.
m/z	RELATIVE INTENSITY
12	121
13	58
14	2
18	1
24	254
25	833
26	2898
27	503
28	1306
29	32
35	187
36	73
37	220
38	649
39	510
40	335
41	23
43	57
44	31
47	303
48	69
49	153
50	452
51	3161
52	4825
53	1022
54	39
57	32
58	24
60	3077
61	220
62	1115
63	62
64	59
73	47
74	37
75	43
76	112
77	185
78	37
79	9169
80	495
85	105
86	475
87	1604
88	201
89	555
114	9999
115	711
116	3127
117	155
