Mass Spectrum: Disilane, hexaphenyl-
Formula: C36 H30 Si2
CAS: 1450-23-3
Molecular weight: 518
Origin: Japan AIST/NIMC Database- Spectrum MS-NW-2136
m/z	RELATIVE INTENSITY
27	10
28	20
39	20
41	30
43	20
44	20
50	10
51	30
52	10
53	129
54	10
55	20
56	10
57	10
65	10
67	10
69	30
70	10
71	10
77	30
78	60
79	60
81	10
82	10
83	10
84	10
91	119
92	10
97	10
98	10
103	60
104	10
105	439
106	80
107	20
115	10
129	50
130	10
131	20
152	20
153	20
154	30
155	149
156	20
157	20
165	10
179	40
180	199
181	789
182	189
183	80
184	10
205	20
207	10
229	10
231	10
254	10
255	50
256	20
257	159
258	60
259	9999
260	2399
261	639
262	90
273	10
335	10
518	529
519	269
520	99
521	20
