Mass Spectrum: trans-Carvyl propionate
Formula: C13 H20 O2
CAS: 145032-51-5
Molecular weight: 208
Origin: Philip Morris R&D
m/z	RELATIVE INTENSITY
36	59
37	12
38	85
39	879
40	205
41	1545
42	117
43	604
44	54
45	114
46	12
47	8
50	68
51	264
52	91
53	503
54	157
55	1210
56	165
57	9999
58	399
59	92
60	8
63	97
64	59
65	387
66	142
67	424
68	339
69	301
70	6
71	34
72	48
73	89
74	137
75	77
76	15
77	902
78	291
79	1075
80	742
81	546
82	310
83	378
84	2416
85	151
86	34
89	131
90	11
91	2596
92	1486
93	1497
94	419
95	296
96	526
97	324
98	32
100	12
102	5
103	128
104	83
105	1315
106	566
107	632
108	1048
109	5619
110	515
111	99
112	15
115	146
116	31
117	441
118	72
119	4514
120	439
121	65
122	76
123	319
124	103
125	8
128	11
129	9
131	22
132	52
133	279
134	2166
135	321
136	49
137	338
138	25
139	86
140	137
141	5
150	28
151	83
152	3993
153	467
154	34
164	187
165	828
166	102
167	3
208	49
