Mass Spectrum: Ethanone, 1-(5-chloro-2-hydroxyphenyl)-
Formula: C8 H7 Cl O2
CAS: 1450-74-4
Molecular weight: 170
Origin: Japan AIST/NIMC Database- Spectrum MS-IW-2566
m/z	RELATIVE INTENSITY
14	40
15	309
25	10
26	40
27	99
28	119
29	70
31	20
35	10
36	70
37	149
38	239
39	409
40	20
41	10
42	90
43	2699
44	99
45	20
46	20
47	20
48	10
49	99
50	229
51	359
52	70
53	439
54	20
55	50
60	30
61	189
62	389
63	1059
64	219
65	179
66	60
67	50
69	10
71	40
72	70
73	689
74	169
75	299
76	30
77	409
78	80
79	70
84	20
85	90
86	50
87	50
88	10
89	289
90	50
91	50
92	119
93	20
96	10
97	30
98	90
99	1519
100	149
101	499
102	40
105	20
106	10
107	50
109	10
110	10
111	20
112	10
113	40
115	10
120	40
123	10
124	70
125	20
126	129
127	1639
128	259
129	529
130	70
141	50
143	20
152	169
153	20
154	80
155	9999
156	799
157	3279
158	249
159	20
170	5039
171	449
172	1639
173	139
174	10
