Mass Spectrum: Nickel(II) bis(N,N-dipropyldithiocarbamate)
Formula: C14 H28 N2 Ni S4
CAS: 14516-30-4
Molecular weight: 410
Origin: P.A. Leclercq, Lab. Instrum. Anal., Eindhoven Univ. Technol., Netherlands
m/z	RELATIVE INTENSITY
41	4749
42	1069
43	9999
44	549
45	409
46	109
47	239
48	29
51	39
52	39
53	39
54	209
55	119
56	499
57	69
58	1089
59	189
60	3819
61	169
62	219
63	39
64	59
67	59
68	209
69	59
70	899
71	79
72	649
73	189
74	249
75	269
76	329
77	189
78	59
80	49
81	39
82	89
83	39
84	119
85	449
86	179
87	249
88	49
89	49
90	59
91	209
92	99
93	89
94	39
96	79
97	29
98	359
99	429
100	3269
101	529
102	6870
103	489
104	369
105	139
106	89
110	109
111	49
112	319
113	89
114	59
115	69
116	89
117	719
118	389
119	339
120	189
121	89
122	329
123	129
124	179
125	119
126	179
127	499
128	349
129	389
130	199
131	259
132	169
133	149
134	279
135	129
136	179
137	89
138	59
140	79
141	39
142	159
143	69
144	6000
145	859
146	389
147	299
148	89
149	459
150	379
151	209
152	189
153	79
154	199
155	99
156	179
157	169
158	379
159	629
160	469
161	309
162	219
163	119
164	119
165	59
166	129
168	109
171	89
172	449
173	1279
174	469
175	799
176	389
177	519
178	109
179	109
180	29
181	259
182	59
183	179
184	179
185	89
186	149
187	79
188	79
189	79
191	449
192	149
193	249
194	99
195	99
197	59
198	389
199	129
200	589
201	1039
202	1199
203	619
204	499
205	359
206	189
207	119
208	59
219	59
221	49
223	49
224	69
232	69
233	59
234	1489
235	1169
236	839
237	589
238	239
239	139
240	69
241	69
243	89
244	39
245	339
246	109
247	69
248	69
266	49
267	49
268	39
269	49
270	39
271	769
272	159
273	359
274	99
275	119
276	59
277	49
279	69
288	79
300	89
301	169
302	109
303	219
304	69
305	159
306	39
307	69
345	69
346	219
347	79
348	109
349	39
376	99
377	119
378	1349
379	339
380	729
381	199
382	199
383	69
384	69
410	5630
411	1479
412	3449
413	919
414	1109
415	379
416	389
