Mass Spectrum: Chol-4-en-24-oic acid, 3-oxo-, methyl ester
Formula: C25 H38 O3
CAS: 1452-33-1
Molecular weight: 386
m/z	RELATIVE INTENSITY
26	386
27	510
28	31
29	1076
30	138
31	276
32	27
36	138
39	593
40	166
41	2069
42	276
43	1352
44	297
45	248
50	138
51	166
53	552
54	179
55	3034
56	331
57	634
58	166
59	662
60	248
65	303
66	207
67	1517
68	414
69	869
70	207
71	303
77	828
78	317
79	1614
80	359
81	2593
82	386
83	869
84	276
85	441
87	303
91	1379
92	372
93	1517
94	621
95	1696
96	414
97	662
98	179
99	345
101	138
103	179
104	138
105	1338
106	524
107	1683
108	579
109	1338
110	372
111	634
112	138
113	138
114	138
115	786
116	207
117	510
118	248
119	1241
120	690
121	1683
122	1103
123	1407
124	6179
125	938
126	138
127	166
128	234
129	386
130	276
131	593
132	386
133	1241
134	883
135	1476
136	662
137	869
138	386
141	317
142	276
143	359
144	166
145	690
146	345
147	1765
148	1241
149	1145
150	276
151	166
155	248
156	179
157	345
158	179
159	621
160	276
161	662
162	372
163	414
165	138
167	138
169	166
170	138
171	303
172	193
173	552
174	455
175	552
176	276
177	345
178	138
179	138
181	138
183	166
184	110
185	276
186	166
187	786
188	276
189	497
190	207
191	138
195	179
197	248
199	234
200	179
201	441
202	359
203	303
207	138
208	276
209	248
210	138
211	662
212	248
213	455
214	166
215	414
216	179
217	248
221	166
225	138
226	221
227	276
228	221
229	4248
230	1186
231	690
232	166
243	317
244	965
245	552
246	138
247	317
248	110
249	469
250	138
253	248
257	166
261	138
262	869
263	1972
264	441
265	179
269	248
270	138
271	1048
272	276
277	138
297	110
299	138
301	345
302	166
312	138
313	497
314	166
326	221
329	924
330	276
337	441
338	138
339	303
340	138
342	138
343	166
344	1752
345	414
346	179
347	193
353	250
354	780
355	1250
356	400
357	200
358	200
368	414
369	276
370	234
371	1131
372	345
384	248
385	248
386	9999
387	2924
388	552
