Mass Spectrum: Picolinamide
Formula: C6 H6 N2 O
CAS: 1452-77-3
Molecular weight: 122
Origin: NIST Mass Spectrometry Data Center, 1994
m/z	RELATIVE INTENSITY
12	35
13	28
16	469
17	66
18	14
24	22
25	127
26	666
27	746
28	737
36	35
37	341
38	572
39	752
40	141
41	55
42	16
43	161
44	1935
48	73
49	478
50	2017
51	3928
52	5012
53	667
54	61
61	26
62	47
63	57
64	56
65	34
66	55
67	134
75	398
76	466
77	355
78	3439
79	9999
80	586
81	17
93	19
94	73
104	96
105	52
106	97
122	2892
123	243
124	14
