Mass Spectrum: 1H-Pyrazole, 3-methyl-
Formula: C4 H6 N2
CAS: 1453-58-3
Molecular weight: 82
Origin: NIST Mass Spectrometry Data Center
m/z	RELATIVE INTENSITY
12	10
13	20
14	50
15	210
24	10
25	90
26	561
27	1511
28	1321
29	460
30	100
36	30
37	200
38	360
39	681
40	901
41	871
42	1121
43	110
48	30
49	210
50	1001
51	1171
52	751
53	1391
54	3233
55	801
56	140
64	20
65	20
66	120
67	180
77	10
79	10
80	70
81	7056
82	9999
83	510
