Mass Spectrum: n-Nonadecanol-1
Formula: C19 H40 O
CAS: 1454-84-8
Molecular weight: 284
Origin: NIST Mass Spectrometry Data Center
m/z	RELATIVE INTENSITY
15	10
19	10
26	20
27	460
28	120
29	1501
30	50
31	971
39	571
40	150
41	5885
42	1491
43	7747
44	370
45	140
46	10
50	10
51	20
52	20
53	420
54	1041
55	9969
56	4354
57	8558
58	380
59	30
65	90
66	140
67	1722
68	3443
69	8327
70	4294
71	4014
72	220
73	170
74	10
77	50
78	10
79	160
80	80
81	1121
82	4644
83	9999
84	3263
85	2562
86	160
87	30
91	20
92	10
93	30
94	30
95	601
96	1872
97	8888
98	2132
99	611
100	40
108	10
109	240
110	851
111	4804
112	1421
113	360
114	20
122	20
123	130
124	500
125	2302
126	871
127	210
128	20
136	10
137	80
138	300
139	761
140	510
141	110
142	10
151	20
152	180
153	340
154	350
155	70
156	10
165	10
166	120
167	190
168	210
169	40
180	70
181	100
182	130
183	30
194	50
195	50
196	100
197	30
208	40
209	40
210	90
211	20
222	20
223	20
224	20
236	10
237	10
238	250
239	50
266	130
267	20
