Mass Spectrum: n-Heptadecanol-1
Formula: C17 H36 O
CAS: 1454-85-9
Molecular weight: 256
Origin: NIST Mass Spectrometry Data Center
m/z	RELATIVE INTENSITY
15	10
19	10
26	20
27	550
28	150
29	1672
31	1231
33	10
39	701
41	6306
42	1581
43	7397
44	380
45	160
46	10
50	10
51	30
52	30
53	480
54	1081
55	9999
56	4784
57	7887
58	370
59	30
65	90
66	140
67	1651
68	3153
69	7777
70	4374
71	3283
72	190
73	180
74	10
77	60
78	10
79	160
80	60
81	991
82	4114
83	9028
84	3203
85	2032
86	130
87	30
91	30
92	10
93	20
95	450
96	1561
97	7607
98	2082
99	460
100	30
108	10
109	160
110	701
111	4064
112	1361
113	250
114	20
122	10
123	80
124	420
125	1872
126	821
127	140
128	10
137	40
138	230
139	510
140	470
141	70
142	10
152	140
153	220
154	290
155	50
165	10
166	80
167	110
168	190
169	40
180	40
181	50
182	160
183	20
194	20
195	30
196	40
197	10
208	10
210	290
211	40
238	110
239	20
