Mass Spectrum: Phenyl 4-pyridyl ketone
Formula: C12 H9 N O
CAS: 14548-46-0
Molecular weight: 183
Origin: Japan AIST/NIMC Database- Spectrum MS-NW- 370
m/z	RELATIVE INTENSITY
18	10
26	30
27	60
28	50
37	20
38	40
39	70
49	30
50	519
51	1959
52	159
53	30
61	20
62	40
63	80
64	20
73	20
74	139
75	129
76	199
77	4149
78	989
79	60
86	20
87	20
89	10
91	60
98	20
99	20
101	30
102	40
104	20
105	9999
106	1059
107	70
126	60
127	119
128	40
139	10
153	20
154	99
155	50
182	139
183	5559
184	779
185	60
