Mass Spectrum: 4-Thiazolidinone, 3-phenyl-2-thioxo-
Formula: C9 H7 N O S2
CAS: 1457-46-1
Molecular weight: 209
Origin: A.A.Kutin, Moscow, Russia
m/z	RELATIVE INTENSITY
33	16
34	10
37	309
38	643
39	1245
40	142
41	211
42	1038
43	79
44	245
45	1689
46	2568
47	138
48	121
49	149
50	1918
51	5047
52	636
53	75
54	15
55	21
56	39
57	101
58	167
59	56
60	35
61	127
62	267
63	1138
64	3499
65	561
66	262
67	27
68	56
69	305
70	183
71	60
72	59
73	119
74	758
75	655
76	2172
77	7605
78	788
79	48
80	30
81	74
82	146
83	137
84	110
85	22
86	100
87	45
88	83
89	66
90	521
91	1424
92	140
93	81
94	51
95	288
96	107
97	22
98	5
99	21
100	46
102	177
103	2003
104	2254
105	533
106	80
107	77
108	432
109	836
110	103
111	51
112	9
116	37
117	84
118	11
119	71
120	18
121	47
122	95
123	258
124	42
125	28
129	14
130	17
131	29
132	42
133	104
135	9401
136	3711
137	690
138	183
139	39
140	87
141	25
142	17
145	9
146	6
147	13
149	489
150	58
151	21
153	10
159	6
163	4
165	5
166	56
167	1431
168	135
169	120
170	7
171	6
173	18
174	24
176	25
180	535
181	79
182	56
187	27
193	4
196	5
201	58
202	19
203	15
205	16
206	28
208	3243
209	9999
210	1453
211	963
212	109
213	28
