Mass Spectrum: Ethanone, 2-(benzoyloxy)-1,2-diphenyl-
Formula: C21 H16 O3
CAS: 1459-20-7
Molecular weight: 316
Origin: NIST Mass Spectrometry Data Center, 1994
m/z	RELATIVE INTENSITY
16	12
17	118
18	414
27	38
38	25
39	114
40	6
44	12
50	295
51	1276
52	98
53	12
62	25
63	82
64	27
65	19
73	9
75	55
77	3421
78	293
79	13
83	11
87	12
89	117
90	118
91	17
102	9
105	9999
106	740
107	52
115	30
118	24
126	6
128	16
139	18
151	15
152	100
153	24
163	12
164	24
165	164
166	43
167	40
168	8
194	12
211	1030
212	166
213	18
316	30
317	7
