Mass Spectrum: Chromium, tris(1,1,1-trifluoro-2,4-pentanedionato-O,O')-
Formula: C15 H12 Cr F9 O6
CAS: 14592-89-3
Molecular weight: 511
m/z	RELATIVE INTENSITY
43	2100
67	1000
69	600
135	600
136	100
155	1500
156	200
174	1000
175	200
203	200
205	1200
206	200
207	200
224	1900
225	200
287	300
288	1200
289	500
308	700
309	100
357	500
358	9999
359	2200
510	200
511	3600
512	1100
513	300
