Mass Spectrum: Benzene, (2-bromo-1-methylethyl)-
Formula: C9 H11 Br
CAS: 1459-00-3
Molecular weight: 198
Origin: D.HENNEBERG, MAX-PLANCK INSTITUTE, MULHEIM, WEST GERMANY
m/z	RELATIVE INTENSITY
23	3
24	8
25	16
26	108
27	726
29	7
33	78
34	7
35	7
36	4
37	63
38	192
39	1298
40	95
41	932
42	43
45	2
46	7
47	7
48	12
49	51
50	600
51	1383
52	327
53	108
54	9
55	18
58	294
60	22
61	46
62	143
63	388
64	81
65	378
66	34
67	8
68	3
69	8
70	10
71	9
72	5
73	17
74	139
75	164
76	168
77	1191
78	635
79	987
80	55
81	17
82	18
83	4
84	3
85	11
86	23
87	30
88	12
89	157
90	56
91	1474
92	125
93	57
94	4
95	51
98	17
99	6
101	76
102	177
103	857
104	857
105	9999
106	885
107	33
112	6
113	24
114	14
115	280
116	100
117	504
118	396
119	376
120	33
121	4
171	5
183	38
184	5
185	39
196	3
198	467
199	48
200	443
201	46
