Mass Spectrum: p-(Adamantyl-1)toluene
Formula: C17 H22
CAS: 1459-55-8
Molecular weight: 226
Origin: B. Derendyaev, Novosibirsk Institute of Organic Chemistry
m/z	RELATIVE INTENSITY
41	709
77	499
79	599
91	909
94	419
105	989
115	479
117	209
128	359
129	289
132	1429
141	349
149	359
150	259
160	9999
161	1349
183	459
226	4239
227	499
