Mass Spectrum: 1,3-Benzenedicarboxylic acid, dimethyl ester
Formula: C10 H10 O4
CAS: 1459-93-4
Molecular weight: 194
Origin: Chuck Anderson, Aldrich Chemical Co.
m/z	RELATIVE INTENSITY
14	10
15	325
16	10
26	16
27	33
28	85
29	147
30	47
31	51
32	13
36	5
37	36
38	115
39	108
40	10
41	20
43	9
45	21
49	32
50	735
51	178
52	252
53	74
54	8
55	8
59	154
60	7
61	18
62	39
63	126
64	112
65	71
66	330
73	51
74	357
75	766
76	1401
77	816
78	69
79	91
80	11
81	30
82	19
86	9
87	8
89	20
90	18
91	91
92	332
93	32
101	9
102	20
103	1270
104	609
105	150
106	18
107	320
108	28
112	7
118	44
119	715
120	887
121	100
122	10
132	16
133	38
134	31
135	3265
136	304
137	30
147	32
148	8
149	257
150	31
151	8
161	39
162	14
163	9999
164	1018
165	116
166	12
179	38
180	7
193	322
194	1975
195	211
196	32
