Mass Spectrum: Benzene, hexadecyl-
Formula: C22 H38
CAS: 1459-09-2
Molecular weight: 302
Origin: NIST Mass Spectrometry Data Center, 1990.
m/z	RELATIVE INTENSITY
27	180
28	64
29	498
39	232
41	1506
42	349
43	1902
51	101
53	115
54	130
55	1012
56	292
57	1172
65	446
67	144
68	76
69	399
70	179
71	495
77	234
78	377
79	323
80	77
83	161
85	278
89	127
91	8406
92	9999
93	792
94	139
97	108
103	218
104	918
105	1001
106	209
115	121
117	300
118	114
119	269
133	658
134	214
147	121
302	1753
303	435
304	64
