Mass Spectrum: Yohimbine
Formula: C21 H26 N2 O3
CAS: 146-48-5
Molecular weight: 354
Origin: Patti Price, Georgia Bureau of Investigation, Decatur, Georgia
m/z	RELATIVE INTENSITY
44	120
47	50
48	40
53	250
54	120
55	450
58	50
59	220
63	60
64	60
65	150
67	290
68	210
69	180
75	30
76	40
77	520
78	50
79	320
80	110
81	170
83	100
84	80
85	20
91	250
92	220
93	170
95	110
97	70
98	20
101	60
103	130
104	40
106	50
110	120
111	120
115	570
116	190
118	70
121	40
122	50
123	60
127	350
128	530
129	660
130	510
131	200
132	60
133	40
136	40
138	90
139	160
140	200
142	430
143	740
144	830
148	10
152	50
154	560
155	450
156	1211
157	490
159	50
167	450
168	660
169	2342
170	1481
171	390
177	170
178	90
180	340
182	190
183	580
184	1211
185	250
186	30
193	120
194	170
195	320
196	170
197	250
198	270
205	80
206	290
207	180
208	140
209	410
210	320
211	80
218	100
219	190
220	140
221	750
222	140
223	380
224	60
225	100
232	50
233	190
234	170
235	260
236	100
237	170
239	40
245	20
248	30
251	220
253	70
257	20
259	80
263	90
267	340
274	30
275	110
276	50
277	180
281	80
292	60
293	540
295	410
319	60
322	50
323	320
324	50
325	250
326	40
327	10
333	30
351	310
352	470
353	9999
354	5835
355	1101
356	180
