Mass Spectrum: 1,2-Benzenedicarboxylic acid, bis(4-methylpentyl) ester
Formula: C20 H30 O4
CAS: 146-50-9
Molecular weight: 334
Origin: RADIAN CORP
m/z	RELATIVE INTENSITY
27	140
29	320
39	120
40	30
41	760
42	220
43	2120
44	80
50	60
51	20
53	40
54	30
55	420
56	480
57	380
65	150
67	50
68	10
69	450
70	30
75	20
76	280
77	90
83	60
84	470
85	1940
86	120
93	180
104	390
105	200
121	170
122	130
123	80
132	70
146	10
149	9999
150	930
151	100
167	350
168	30
176	30
233	130
234	30
251	510
252	70
