Mass Spectrum: 5H-Dibenz[c,e]azepine, 6,7-dihydro-6-(2-propenyl)-
Formula: C17 H17 N
CAS: 146-36-1
Molecular weight: 235
Origin: AAFS Toxicology Section MS DB Committee, U. Alberta, Canada
m/z	RELATIVE INTENSITY
29	20
39	360
40	50
41	1030
42	1030
43	40
50	30
51	110
52	30
54	40
56	40
57	50
62	60
63	300
64	90
65	160
66	10
68	600
70	250
74	90
75	210
76	1040
77	270
78	50
81	30
82	230
83	50
86	50
87	140
88	400
89	2071
91	210
95	150
96	150
98	40
99	40
100	20
101	100
102	230
104	430
108	70
109	30
113	140
114	70
115	510
116	220
117	100
118	10
125	20
126	160
127	130
128	240
129	60
130	10
137	80
138	70
139	630
140	180
141	90
144	50
149	50
150	180
151	490
152	1481
153	280
154	60
158	190
162	80
163	740
164	1181
165	8537
166	2722
167	1020
168	160
175	40
176	520
177	510
178	3062
179	4143
180	830
181	140
188	20
189	100
190	510
191	500
192	1771
193	8467
194	2792
195	350
202	160
203	180
204	220
205	350
206	380
207	210
208	3282
209	500
210	10
215	10
216	40
217	100
218	120
219	50
220	350
221	70
230	40
232	90
234	9999
235	6605
236	1060
237	90
