Mass Spectrum: 1,2-Cyclohexanediol, trans-
Formula: C6 H12 O2
CAS: 1460-57-7
Molecular weight: 116
Origin: Japan AIST/NIMC Database- Spectrum MS-NW-2259
m/z	RELATIVE INTENSITY
14	30
15	229
16	20
17	209
18	799
19	89
25	10
26	209
27	1629
28	319
29	1229
30	109
31	1089
32	80
36	80
37	70
38	159
39	1619
40	359
41	4139
42	3069
43	1789
44	3209
45	529
46	20
47	169
48	10
49	20
50	119
51	179
52	90
53	369
54	1079
55	1559
56	1049
57	7679
58	429
59	40
60	189
61	30
62	30
63	40
64	10
65	129
66	80
67	819
68	449
69	2479
70	9999
71	629
72	179
73	169
74	139
75	30
76	10
77	159
78	60
79	499
80	1059
81	219
82	40
83	2979
84	189
85	90
86	90
87	30
88	40
94	20
95	60
96	129
97	769
98	3189
99	219
100	20
109	10
110	10
112	70
113	10
114	20
115	30
116	989
117	70
118	10
