Mass Spectrum: 2-Fluoro-4-(trifluoromethyl)benzonitrile
Formula: C8 H3 F4 N
CAS: 146070-34-0
Molecular weight: 189
Origin: NIST Mass Spectrometry Data Center, 1994
m/z	RELATIVE INTENSITY
12	41
18	26
20	44
25	39
26	17
28	140
31	386
33	41
36	76
37	560
38	382
39	129
44	48
46	106
48	47
49	270
50	1303
51	555
52	112
55	78
56	330
57	386
60	110
61	450
62	380
63	358
64	232
67	58
68	793
69	2602
70	145
72	58
73	176
74	239
75	1789
76	336
77	30
79	95
80	128
81	169
82	145
85	373
86	147
87	246
88	640
89	120
92	249
93	1026
94	532
95	156
98	95
99	808
100	1789
101	177
103	31
104	45
105	110
106	95
111	70
112	519
113	216
117	140
118	202
119	409
120	1083
121	99
123	85
124	140
125	72
137	68
139	8051
140	673
142	63
143	387
144	91
150	297
161	111
162	147
163	302
168	162
170	5108
171	505
188	1728
189	9999
190	930
191	44
