Mass Spectrum: 1,15-Pentadecanedioic acid
Formula: C15 H28 O4
CAS: 1460-18-0
Molecular weight: 272
Origin: Japan AIST/NIMC Database- Spectrum MS-IW-7261
m/z	RELATIVE INTENSITY
17	30
18	109
26	10
27	299
28	149
29	649
30	20
31	60
39	259
40	60
41	1909
42	459
43	1629
44	70
45	349
47	10
51	10
52	10
53	149
54	269
55	3219
56	639
57	1059
58	489
59	349
60	1419
61	199
62	10
63	10
65	20
66	40
67	619
68	579
69	2069
70	559
71	979
72	90
73	1609
74	159
75	10
77	30
78	30
79	219
80	379
81	769
82	619
83	1769
84	6269
85	749
86	70
87	369
88	40
89	10
91	80
92	30
93	249
94	469
95	739
96	719
97	1579
98	9999
99	949
100	149
101	289
102	50
103	10
104	10
105	30
106	30
107	239
108	369
109	379
110	429
111	909
112	3509
113	419
114	149
115	269
116	90
117	20
118	10
119	70
120	60
121	409
122	299
123	289
124	259
125	499
126	769
127	169
128	50
129	569
130	679
131	70
132	10
133	80
134	109
135	419
136	149
137	199
138	199
139	299
140	229
141	50
142	30
143	239
144	70
145	10
147	50
148	40
149	159
150	159
151	129
152	349
153	289
154	189
155	50
156	20
157	109
158	60
159	10
161	30
162	30
163	90
164	50
165	99
166	109
167	139
168	109
169	40
170	60
171	139
172	50
175	60
176	80
177	279
178	50
179	50
180	80
181	60
182	40
183	30
184	10
185	299
186	50
187	10
189	20
190	30
191	10
192	60
193	80
194	139
195	539
196	80
197	60
198	40
199	70
200	20
207	30
208	309
209	50
210	109
211	60
212	30
213	99
214	30
217	10
218	50
219	10
222	20
226	10
228	679
229	99
230	10
235	50
236	699
237	109
238	10
242	10
253	10
254	239
255	209
256	40
272	10
273	20
