Mass Spectrum: Cycloheptanecarboxylic acid
Formula: C8 H14 O2
CAS: 1460-16-8
Molecular weight: 142
Origin: Japan AIST/NIMC Database- Spectrum MS-NW-6393
m/z	RELATIVE INTENSITY
14	10
15	139
16	20
17	20
18	70
25	10
26	189
27	1899
28	659
29	1589
30	50
31	129
32	30
36	20
37	50
38	139
39	2219
40	479
41	3669
42	1209
43	1149
44	219
45	519
46	30
47	80
48	10
49	20
50	109
51	219
52	109
53	839
54	1239
55	9999
56	1149
57	529
58	179
59	149
60	1559
61	769
62	60
63	70
64	20
65	179
66	209
67	2089
68	1089
69	1119
70	1259
71	399
72	70
73	3389
74	469
75	40
76	10
77	149
78	219
79	219
80	439
81	1089
82	4029
83	2309
84	179
85	129
86	709
87	1049
88	279
89	20
90	10
91	90
92	30
93	119
94	50
95	619
96	2169
97	1969
98	169
99	4499
100	1079
101	249
102	20
105	20
106	149
107	20
108	10
109	139
110	10
111	10
112	10
113	559
114	129
115	10
122	20
123	40
124	1509
125	199
126	20
127	329
128	30
140	10
141	60
142	1669
143	179
144	20
