Mass Spectrum: Stannane, tetrabutyl-
Formula: C16 H36 Sn
CAS: 1461-25-2
Molecular weight: 348
Origin: NIST Mass Spectrometry Data Center, 1998.
m/z	RELATIVE INTENSITY
26	80
27	710
29	1990
30	40
39	570
40	60
41	1750
42	90
43	180
50	50
51	50
53	100
55	330
56	290
57	660
58	40
113	120
115	120
116	510
117	2010
118	1650
119	3810
120	2310
121	4830
122	510
123	2030
124	180
125	850
127	290
131	190
132	150
133	340
134	170
135	410
137	80
139	70
141	40
143	100
144	50
145	390
146	180
147	550
148	170
149	580
151	130
153	40
169	70
171	420
172	90
173	1510
174	940
175	6939
176	3320
177	9559
178	3100
179	9999
180	470
181	1750
182	90
183	1680
184	70
227	210
229	140
230	120
231	2860
232	1730
233	4810
234	2110
235	6319
236	610
237	890
238	90
239	1030
240	70
283	130
285	100
286	50
287	1910
288	1280
289	3260
290	1590
291	4350
292	600
293	630
294	80
295	720
296	90
