Mass Spectrum: N-tert-Butylmethylamine
Formula: C5 H13 N
CAS: 14610-37-8
Molecular weight: 87
Origin: Chuck Anderson, Aldrich Chemical Co.
m/z	RELATIVE INTENSITY
14	12
15	119
16	1
18	9
25	1
26	49
27	283
28	394
29	430
30	867
31	50
32	448
33	9
34	9
37	19
38	61
39	521
40	116
41	1201
42	606
43	160
44	215
45	3
49	1
50	28
51	40
52	43
53	58
54	156
55	236
56	885
57	1468
58	79
68	19
69	14
70	570
71	618
72	9999
73	479
74	11
84	16
85	1
86	23
87	357
88	60
