Mass Spectrum: 1,2-Cyclobutanedicarboxylic acid, cis-
Formula: C6 H8 O4
CAS: 1461-94-5
Molecular weight: 144
m/z	RELATIVE INTENSITY
50	1143
51	1428
52	881
53	4999
54	9999
55	9428
56	2690
57	1833
58	1238
68	714
69	1024
70	1714
71	2143
72	1595
73	2904
74	524
80	667
81	2904
82	4047
83	857
97	1143
98	4047
99	3571
100	4166
101	643
108	429
126	3381
127	643
