Mass Spectrum: Selegiline
Formula: C13 H17 N
CAS: 14611-51-9
Molecular weight: 187
Origin: AAFS Toxicology Section MS DB Committee, U. Alberta, Canada
m/z	RELATIVE INTENSITY
37	20
38	100
39	810
40	60
41	290
42	1111
43	50
44	110
45	10
49	10
50	80
51	260
52	100
53	130
54	130
55	140
56	2322
57	150
58	280
59	10
61	10
62	40
63	180
64	50
65	610
66	90
67	50
68	110
69	10
70	450
71	30
72	10
73	10
74	20
75	30
76	30
77	240
78	110
79	50
80	150
81	130
82	10
88	10
89	140
90	40
91	1361
92	120
93	10
94	170
96	9999
97	710
98	20
99	10
101	10
102	40
103	90
104	40
105	30
106	10
114	10
115	180
116	50
117	150
118	40
119	30
120	10
126	10
127	20
128	70
129	20
130	30
131	20
132	20
133	10
134	10
144	20
145	10
146	10
160	10
162	20
163	10
170	20
171	10
172	30
173	10
184	10
186	10
187	10
