Mass Spectrum: Acetamide, 2,2'-thiobis-
Formula: C4 H8 N2 O2 S
CAS: 14618-65-6
Molecular weight: 148
Origin: J.E. WILKINSON S-CUBED, SAN DIEGO, CA.
m/z	RELATIVE INTENSITY
41	818
42	2127
43	1366
44	4899
45	1858
46	1288
47	1076
48	126
59	9999
60	559
61	233
62	50
86	79
87	68
90	43
103	574
104	18
105	201
130	86
131	3809
132	47
133	32
148	29
