Mass Spectrum: Butyric acid, p-methoxyphenyl ester
Formula: C11 H14 O3
CAS: 14617-95-9
Molecular weight: 194
Origin: Zaikin V.G., TIPS RAS, Moscow, Russia
m/z	RELATIVE INTENSITY
26	40
27	170
28	50
39	120
41	330
42	30
43	851
51	40
52	80
53	70
54	60
55	70
63	60
64	70
65	80
71	300
77	80
80	50
81	210
82	30
92	80
93	30
95	160
107	60
108	30
109	2212
110	170
123	220
124	9999
125	781
126	60
194	591
195	70
