Mass Spectrum: 3-Phenylpropanol, TMS derivative
Formula: C12 H20 O Si
CAS: 14629-60-8
Molecular weight: 208
Origin: CARL DJERASSI DEPT OF CHEM STANFORD UNIV STANFORD CALIF 94305
m/z	RELATIVE INTENSITY
40	99
41	693
42	99
43	1188
44	297
45	2277
46	198
47	1188
48	99
49	99
50	198
51	693
52	198
53	99
55	99
57	198
58	693
59	1287
60	297
61	792
62	99
63	297
64	99
65	1188
66	198
71	99
72	198
73	2970
74	396
75	3762
76	297
77	792
78	396
79	198
87	297
88	99
89	4752
90	495
91	4554
92	1287
93	198
101	198
102	297
103	693
104	297
105	198
115	495
116	297
117	3762
118	9999
119	990
120	198
135	198
147	99
163	198
175	198
193	1485
194	396
195	99
