Mass Spectrum: Silane, triethyl(pentyloxy)-
Formula: C11 H26 O Si
CAS: 14629-52-8
Molecular weight: 202
Origin: V.G. Zaikin, TIPS RAS, Moscow, Russia
m/z	RELATIVE INTENSITY
27	1992
28	80
29	2692
30	70
31	490
33	40
36	80
37	40
38	60
39	691
40	120
41	1561
42	390
43	751
44	370
45	2182
46	130
47	2392
48	120
49	70
50	130
51	220
52	240
53	190
54	60
55	671
56	310
57	751
58	550
59	2182
60	250
61	651
63	60
65	70
66	60
67	60
68	60
69	691
70	180
71	190
72	60
73	611
74	180
75	5955
76	390
77	210
78	40
79	350
80	40
81	40
83	60
84	60
85	280
86	130
87	2042
88	310
89	961
90	70
91	60
92	40
93	190
95	60
99	40
101	270
102	40
103	2332
104	210
105	120
111	40
113	110
114	40
115	1091
116	120
117	520
118	40
121	180
122	140
123	40
129	60
130	40
143	120
144	40
145	691
146	60
147	40
159	40
171	60
172	110
173	9999
174	1481
175	420
176	60
187	40
201	30
202	30
