Mass Spectrum: Cyclopentanol, 1-ethyl-
Formula: C7 H14 O
CAS: 1462-96-0
Molecular weight: 114
Origin: NIST Mass Spectrometry Data Center, 1990.
m/z	RELATIVE INTENSITY
26	268
27	1462
28	585
29	1466
31	296
38	329
39	2310
40	505
41	2568
42	489
43	2285
44	218
50	323
51	590
52	303
53	1262
54	553
55	1523
56	428
57	4031
58	234
62	151
63	296
65	963
67	9999
68	878
71	354
72	2472
73	176
77	567
78	155
79	895
80	184
81	907
83	198
85	7750
86	563
91	157
95	346
96	1569
97	290
