Mass Spectrum: 1-Butanone, 1-cyclohexyl-
Formula: C10 H18 O
CAS: 1462-27-7
Molecular weight: 154
Origin: NIST Mass Spectrometry Data Center, 1990.
m/z	RELATIVE INTENSITY
15	115
26	211
27	2181
28	324
29	1118
31	57
39	1909
40	455
41	4225
42	720
43	4569
44	183
50	73
51	188
52	117
53	566
54	760
55	7503
56	347
57	168
58	120
65	134
67	1042
68	226
69	197
70	493
71	3864
72	176
73	55
77	172
78	51
79	233
80	60
81	249
82	51
83	9999
84	678
86	78
91	47
93	54
98	67
99	496
111	2234
112	209
113	81
139	54
154	1409
155	149
