Mass Spectrum: N-Ethylbenzylamine, TMS derivative
Formula: C12 H21 N Si
CAS: 14629-66-4
Molecular weight: 207
Origin: FLO 0013
m/z	RELATIVE INTENSITY
14	10
15	70
18	20
26	30
27	280
28	621
29	400
30	120
31	611
32	60
33	10
37	10
38	30
39	410
40	50
41	220
42	190
43	1381
44	490
45	2702
46	190
47	90
50	80
51	250
52	70
53	130
54	50
55	170
56	290
57	270
58	390
59	2803
60	240
61	110
62	20
63	120
64	50
65	1021
66	80
67	50
68	30
69	50
70	90
71	80
72	190
73	9999
74	951
75	420
76	40
77	250
78	80
79	140
80	20
81	20
82	10
83	40
84	20
85	30
86	300
87	50
88	40
89	200
90	80
91	9308
92	961
93	80
94	10
95	40
96	10
97	10
98	10
99	10
100	751
101	140
102	70
103	50
104	170
105	200
106	60
107	120
108	30
109	30
110	10
114	120
115	40
116	140
117	70
118	90
119	80
120	110
121	260
122	40
123	20
124	10
129	10
130	1281
131	180
132	150
133	50
134	130
135	1451
136	210
137	90
138	20
143	10
145	30
146	20
147	50
148	30
149	691
150	120
151	30
152	110
153	10
159	10
160	20
161	10
162	50
163	30
164	10
174	10
175	10
176	40
177	20
178	10
188	10
189	10
190	70
191	20
192	4704
193	891
194	300
195	60
206	80
207	621
208	130
209	30
