Mass Spectrum: Cyclopentanol, 1-methyl-
Formula: C6 H12 O
CAS: 1462-03-9
Molecular weight: 100
Origin: NIST Mass Spectrometry Data Center, 1994
m/z	RELATIVE INTENSITY
14	88
15	579
16	22
17	20
18	9
19	48
26	337
27	1527
28	444
29	1140
30	63
31	366
37	67
38	195
39	1376
40	250
41	1493
42	63
43	6731
44	266
45	342
49	20
50	162
51	204
52	76
53	385
54	137
55	812
56	20
57	1906
58	5149
59	362
62	21
63	44
65	103
67	1117
68	77
69	58
70	21
71	9999
72	714
73	43
74	14
77	65
78	19
79	89
81	91
82	80
83	311
84	14
85	1614
86	99
100	261
101	17
