Mass Spectrum: 1-Butylcyclopentanol
Formula: C9 H18 O
CAS: 1462-97-1
Molecular weight: 142
Origin: NIST Mass Spectrometry Data Center, 1990.
m/z	RELATIVE INTENSITY
26	279
27	2461
28	1523
29	3077
31	472
39	2184
40	512
41	4613
42	786
43	3506
44	273
45	198
51	334
53	1265
54	415
55	2263
56	698
57	5270
58	3672
59	414
65	473
67	7358
68	639
69	596
71	1168
72	873
77	529
79	852
81	776
82	1082
83	672
85	9999
86	571
93	261
95	1809
96	188
100	2108
101	206
113	4241
114	311
124	718
142	228
