Mass Spectrum: Cyclopentene, 1-(1-methylethyl)-
Formula: C8 H14
CAS: 1462-07-3
Molecular weight: 110
Origin: D.HENNEBERG, MAX-PLANCK INSTITUTE, MULHEIM, WEST GERMANY
m/z	RELATIVE INTENSITY
26	58
27	1226
28	241
29	373
37	56
38	125
39	1952
40	204
41	2933
42	204
43	549
44	84
45	82
46	61
47	18
50	135
51	420
52	198
53	800
54	285
55	1232
56	206
61	22
62	75
63	181
64	48
65	690
66	1682
67	9999
68	1590
69	1828
70	82
75	24
76	16
77	671
78	170
79	592
80	217
81	1247
82	568
83	43
89	30
91	414
92	52
93	553
94	88
95	5936
96	493
108	22
109	181
110	2823
111	253
