Mass Spectrum: Pyridine, 2,3,6-trimethyl-
Formula: C8 H11 N
CAS: 1462-84-6
Molecular weight: 121
m/z	RELATIVE INTENSITY
26	440
27	1862
28	430
29	120
30	20
32	10
37	180
38	460
39	2152
40	420
41	631
42	1291
43	60
50	861
51	1722
52	1091
53	1271
54	210
62	170
63	470
64	200
65	430
66	170
67	70
74	130
75	180
76	120
77	1862
78	831
79	3393
80	821
81	130
91	230
92	120
93	350
94	220
104	150
105	90
106	1641
107	140
118	100
119	571
120	5945
121	9999
122	1051
