Mass Spectrum: Phenylethyl Alcohol, TMS derivative
Formula: C11 H18 O Si
CAS: 14629-58-4
Molecular weight: 194
m/z	RELATIVE INTENSITY
41	200
42	100
43	881
44	430
45	1511
46	160
47	731
50	140
51	571
52	140
53	160
55	160
57	160
58	711
59	611
60	200
61	410
62	140
63	200
65	430
72	200
73	9999
74	901
75	3333
76	330
77	1021
78	290
79	550
88	330
89	200
90	80
91	801
92	180
102	100
103	7907
104	1121
105	2452
106	240
121	120
122	100
133	100
135	80
145	80
147	80
149	100
161	711
162	220
163	220
179	6536
180	1101
181	310
194	100
