Mass Spectrum: Cobalt, tetracarbonylsilyl-
Formula: C4 H3 Co O4 Si
CAS: 14652-62-1
Molecular weight: 202
m/z	RELATIVE INTENSITY
28	9999
29	1700
30	700
31	1200
44	200
45	200
59	2000
60	100
73	500
74	300
75	900
76	500
77	1200
78	300
79	100
87	1000
88	400
89	100
90	300
115	400
116	200
118	200
143	100
146	50
171	30
174	50
202	10
