Mass Spectrum: Benzamide, N,N-dipropyl-
Formula: C13 H19 N O
CAS: 14657-86-4
Molecular weight: 205
Origin: CARL DJERASSI DEPT OF CHEM STANFORD UNIV STANFORD CALIF 94305
m/z	RELATIVE INTENSITY
41	300
42	200
43	200
50	100
51	500
76	100
77	2600
78	200
105	9999
106	800
134	600
135	100
162	100
176	700
204	800
205	1100
206	100
