Mass Spectrum: Benzoic acid, 2,6-dimethoxy-
Formula: C9 H10 O4
CAS: 1466-76-8
Molecular weight: 182
Origin: Japan AIST/NIMC Database- Spectrum MS-NW-6529
m/z	RELATIVE INTENSITY
12	20
13	30
14	119
15	1529
16	40
17	10
18	30
25	30
26	259
27	519
28	639
29	639
30	90
31	339
32	30
33	10
36	40
37	649
38	1019
39	2579
40	299
41	569
42	119
43	249
44	509
45	499
46	20
47	20
48	20
49	189
50	1799
51	3069
52	1499
53	1479
54	209
55	939
56	50
57	30
59	189
60	60
61	519
62	1159
63	2199
64	1399
65	2289
66	519
67	269
68	629
69	439
70	50
71	30
72	10
73	109
74	499
75	469
76	3259
77	2879
78	2049
79	3229
80	789
81	519
82	70
83	90
84	20
85	20
86	10
87	10
89	40
90	1229
91	879
92	1879
93	1029
94	1669
95	789
96	369
97	30
98	10
99	10
100	10
101	10
102	10
103	20
104	1109
105	4299
106	1919
107	7919
108	1889
109	929
110	90
111	179
112	20
113	30
114	10
115	10
116	10
117	20
118	3289
119	3129
120	479
121	1479
122	1799
123	1149
124	209
125	40
126	10
127	10
128	10
130	10
131	10
132	199
133	719
134	599
135	6819
136	5289
137	999
138	909
139	529
140	50
141	10
143	10
144	10
145	219
146	139
147	80
148	40
149	939
150	2069
151	989
152	169
153	60
154	20
155	10
156	10
157	10
158	10
159	10
160	10
161	20
162	10
163	619
164	2379
165	4989
166	519
167	189
168	30
179	10
180	10
181	40
182	9999
183	1079
184	139
185	20
