Mass Spectrum: 5-Amino-3-methylisoxazole
Formula: C4 H6 N2 O
CAS: 14678-02-5
Molecular weight: 98
Origin: NIST Mass Spectrometry Data Center, 1994
m/z	RELATIVE INTENSITY
12	60
13	151
14	379
15	1183
16	430
17	178
18	74
24	84
25	339
26	1348
27	3195
28	6630
29	1124
30	1352
31	103
32	166
36	144
37	641
38	1483
39	3093
40	1483
41	2572
42	2798
43	4508
44	3967
45	108
50	175
51	829
52	1626
53	1103
54	6843
55	2198
56	125
57	323
63	46
64	85
65	165
66	533
67	815
68	192
70	96
80	102
82	9999
83	558
84	67
98	7709
99	465
100	73
