Mass Spectrum: Heptane, 3-ethyl-2-methyl-
Formula: C10 H22
CAS: 14676-29-0
Molecular weight: 142
Origin: NIST Mass Spectrometry Data Center, 1990.
m/z	RELATIVE INTENSITY
14	66
15	44
16	40
27	1198
28	102
29	1279
30	29
39	1321
41	4825
42	1141
43	4509
44	194
50	43
51	125
52	77
53	566
54	286
55	2112
56	2594
57	9999
58	447
65	121
66	35
67	278
68	199
69	1559
70	1542
71	1584
72	95
77	81
79	65
81	35
83	293
84	348
85	906
86	56
98	4722
99	638
100	36
112	167
113	266
142	145
