Mass Spectrum: Cyanamide, dimethyl-
Formula: C3 H6 N2
CAS: 1467-79-4
Molecular weight: 70
Origin: NIST Mass Spectrometry Data Center, 1998.
m/z	RELATIVE INTENSITY
12	10
13	10
14	60
15	450
16	10
24	10
25	30
26	90
27	280
28	770
29	50
30	30
38	130
39	170
40	500
41	600
42	3300
43	280
44	40
51	10
52	80
53	1960
54	270
55	240
56	10
66	20
67	270
68	80
69	9999
70	5599
71	240
