Mass Spectrum: 3-Heptene, (E)-
Formula: C7 H14
CAS: 14686-14-7
Molecular weight: 98
m/z	RELATIVE INTENSITY
12	10
13	20
14	80
15	601
16	10
24	10
25	20
26	440
27	3713
28	741
29	1932
30	50
31	10
36	10
37	100
38	300
39	3203
40	510
41	9999
42	1742
43	1281
44	60
45	10
46	10
49	20
50	220
51	380
52	170
53	861
54	691
55	4774
56	6616
57	701
58	20
60	10
61	20
62	50
63	100
64	20
65	150
66	70
67	500
68	310
69	5585
70	1261
71	60
73	10
75	10
76	10
77	70
78	20
79	70
80	10
81	90
82	10
83	320
84	20
85	10
86	10
87	10
89	10
91	10
95	10
96	10
97	10
98	2793
99	220
100	10
