Mass Spectrum: 2-Methylbutanoic anhydride
Formula: C10 H18 O3
CAS: 1468-39-9
Molecular weight: 186
Origin: NIST Mass Spectrometry Data Center, 1994
m/z	RELATIVE INTENSITY
14	9
15	99
27	642
28	154
29	937
30	25
31	20
32	6
37	14
39	818
41	2193
42	832
43	913
44	44
45	66
50	19
51	26
52	10
53	57
54	22
55	176
56	10
57	4339
58	206
59	66
60	40
61	11
69	222
70	9
83	38
85	9999
86	500
87	47
100	7
103	36
129	11
