Mass Spectrum: o-Hydroxydibenzoylmethane
Formula: C15 H12 O3
CAS: 1469-94-9
Molecular weight: 240
Origin: NIST Mass Spectrometry Data Center, 1994
m/z	RELATIVE INTENSITY
12	14
16	9
17	22
18	29
26	15
27	150
28	62
32	1
37	65
38	250
39	1473
40	96
41	60
42	102
43	90
44	6
50	570
51	1795
52	224
53	412
54	28
55	86
61	43
62	214
63	705
64	381
65	1530
66	180
67	28
68	28
69	1192
70	48
71	10
74	102
75	194
77	4170
78	575
79	180
80	28
82	82
84	14
86	31
87	39
88	39
89	266
90	111
91	299
92	624
93	668
94	118
95	33
96	13
97	48
98	15
101	49
102	95
103	79
104	13
105	9999
106	779
107	113
110	14
111	59
113	15
115	42
116	13
118	29
120	456
121	2546
122	200
123	17
126	13
127	20
128	24
129	20
133	13
134	40
135	13
137	13
138	13
139	43
145	15
147	58
151	16
152	33
153	16
163	352
164	62
165	97
166	18
181	13
194	34
197	26
221	44
222	80
223	498
224	80
225	10
240	1963
241	344
242	40
