Mass Spectrum: Trigermane
Formula: Ge3 H8
CAS: 14691-44-2
Molecular weight: 230
Origin: J.W.PINSON UNIV. S. MISSISSIPPI, HATTIESBURG, MISS., USA
m/z	RELATIVE INTENSITY
35	2
36	5
37	3
38	2
39	1
70	343
71	169
72	474
73	384
74	686
75	352
76	171
77	123
78	98
79	16
140	153
141	169
142	1135
143	700
144	3820
145	2090
146	7629
147	3618
148	9999
149	3862
150	8753
151	2610
152	4859
153	700
154	1286
155	81
156	115
210	101
211	94
212	433
213	535
214	1257
215	1411
216	2302
217	2594
218	3247
219	3257
220	3220
221	3066
222	2684
223	2207
224	2085
225	1517
226	1751
227	987
228	1268
229	532
230	648
231	157
232	201
233	18
234	30
