Mass Spectrum: .beta.-D-Glucopyranoside, 4-(acetyloxy)phenyl, tetraacetate
Formula: C22 H26 O12
CAS: 14698-56-7
Molecular weight: 482
m/z	RELATIVE INTENSITY
73	417
97	833
103	833
109	9791
110	5000
115	875
127	3958
139	1875
145	1667
157	625
169	9999
187	833
211	750
229	500
271	583
289	417
331	2500
