Mass Spectrum: Carbonic acid, ethyl 2-propenyl ester
Formula: C6 H10 O3
CAS: 1469-70-1
Molecular weight: 130
Origin: Japan AIST/NIMC Database- Spectrum MS-IW-4049
m/z	RELATIVE INTENSITY
14	40
15	269
16	10
18	20
25	10
26	309
27	1919
28	1339
29	7489
30	1559
31	1029
32	30
37	50
38	179
39	2369
40	1509
41	8279
42	529
43	429
44	339
45	1089
46	40
47	40
53	20
55	219
56	119
57	9309
58	9999
59	529
60	30
63	1089
64	10
67	50
68	50
69	10
71	20
73	50
75	10
81	10
84	329
85	30
86	10
91	229
101	30
102	189
103	50
130	50
131	90
