Mass Spectrum: Rhenium, pentacarbonyl(pentacarbonylmanganese)-, (Mn-Re)
Formula: C10 Mn O10 Re
CAS: 14693-30-2
Molecular weight: 522
Origin: B.F.G.JOHNSON DEPT. OF CHEM., UNIV. OF MANCHESTER, UK
m/z	RELATIVE INTENSITY
83	1250
111	500
139	880
167	200
187	1300
195	1000
199	450
215	480
242	3250
243	480
254	850
270	4500
271	830
298	8250
299	830
326	5000
327	1000
354	9999
382	7500
410	200
438	200
494	100
522	2500
