Mass Spectrum: Copper phthalocyanine, CI 74160
Formula: C32 H16 Cu N8
CAS: 147-14-8
Molecular weight: 575
Origin: Robert B. Cody, JEOL USA, Inc.
m/z	RELATIVE INTENSITY
21	20
37	50
48	20
50	20
63	530
64	40
75	30
101	70
102	110
128	711
154	40
191	941
192	20
193	280
230	80
288	3143
289	1762
290	220
570	20
572	20
573	90
575	9999
576	3904
577	5105
578	1822
579	460
580	130
