Mass Spectrum: Carbamodithioic acid, diethyl-
Formula: C5 H11 N S2
CAS: 147-84-2
Molecular weight: 149
Origin: Insect Chem. Ecol. Lab., USDA, Beltsville, MD 20705
m/z	RELATIVE INTENSITY
41	375
42	1121
43	372
44	4724
45	935
46	453
47	185
48	32
49	22
50	12
51	33
52	32
53	28
54	192
55	181
56	981
57	244
58	2864
59	918
60	6291
61	433
62	301
63	27
64	144
65	33
66	28
67	41
68	46
69	105
70	198
71	162
72	1328
73	945
74	149
75	35
76	3360
77	612
78	405
79	117
80	29
81	44
82	35
83	56
84	151
85	63
86	815
87	298
88	6903
89	335
90	371
91	333
92	83
93	63
94	16
95	41
96	25
97	44
98	26
99	17
100	25
101	36
102	22
103	23
104	60
105	54
106	16
107	24
108	6
109	31
110	21
111	34
112	17
113	13
114	92
115	50
116	9999
117	1080
118	584
119	132
120	35
121	21
122	12
134	20
135	6
146	65
147	178
148	605
149	324
150	102
151	41
152	19
