Mass Spectrum: Benzoic acid, 2-mercapto-
Formula: C7 H6 O2 S
CAS: 147-93-3
Molecular weight: 154
Origin: NIST Mass Spectrometry Data Center, 2010
m/z	RELATIVE INTENSITY
26	20
27	50
29	20
33	30
34	10
36	10
37	120
38	190
39	601
40	30
41	20
42	10
43	20
44	50
45	571
46	20
47	30
48	20
49	80
50	500
51	360
52	50
53	330
54	470
56	10
57	110
58	370
59	60
60	40
61	130
62	210
63	500
64	140
65	701
66	100
67	20
68	250
69	1191
70	100
71	110
72	10
73	80
74	290
75	190
76	240
77	270
78	30
79	10
80	20
81	250
82	661
83	100
84	70
85	20
91	20
92	390
93	150
94	20
95	40
96	30
97	270
98	20
99	10
100	10
104	20
105	150
106	50
107	90
108	4684
109	941
110	290
111	50
119	20
120	60
121	20
122	90
123	10
125	50
127	10
128	10
135	40
136	9999
137	961
138	530
139	40
153	200
154	2172
155	200
156	110
157	10
