Mass Spectrum: Benzenamine, 2,4,6-tribromo-
Formula: C6 H4 Br3 N
CAS: 147-82-0
Molecular weight: 327
Origin: Japan AIST/NIMC Database- Spectrum MS-NW-1376
m/z	RELATIVE INTENSITY
24	20
25	60
26	229
27	70
28	50
29	139
30	139
31	30
36	149
37	999
38	1039
39	569
40	99
41	339
42	189
43	30
44	1299
45	459
48	50
49	219
50	469
51	349
52	1059
53	119
54	10
57	20
60	359
61	1439
62	2259
63	2179
64	1159
65	1099
66	90
67	10
69	10
70	20
71	30
72	30
73	169
74	319
75	169
76	389
77	419
78	60
79	90
80	80
81	90
82	80
83	129
84	1129
85	969
86	159
87	209
88	789
89	1279
90	2259
91	189
92	139
93	419
94	30
95	20
103	259
104	559
105	40
106	30
108	10
110	10
111	10
112	10
115	40
121	229
122	20
123	129
124	279
125	309
126	159
128	20
129	10
130	60
131	10
132	40
139	20
140	80
141	519
142	179
143	529
144	119
145	30
146	10
152	20
153	20
154	20
155	20
163	199
164	619
165	569
166	189
167	50
168	2229
169	1299
170	2249
171	1219
172	90
173	30
175	10
195	30
196	10
197	60
198	10
199	30
219	10
220	30
221	239
222	60
223	429
224	50
225	209
226	10
246	20
247	169
248	979
249	409
250	1899
251	309
252	919
253	60
299	20
301	70
303	60
305	20
326	20
327	3329
328	279
329	9999
330	729
331	9679
332	699
333	3109
334	209
