Mass Spectrum: Proline
Formula: C5 H9 N O2
CAS: 147-85-3
Molecular weight: 115
Origin: Japan AIST/NIMC Database- Spectrum MS-NW-2505
m/z	RELATIVE INTENSITY
14	20
15	179
17	10
18	30
26	60
27	329
28	2149
29	60
30	309
31	20
33	20
37	30
38	70
39	399
40	109
41	1589
42	479
43	1889
44	90
45	129
52	10
53	60
54	30
55	30
56	10
66	10
67	40
68	799
69	429
70	9999
71	489
73	20
74	50
87	90
96	20
114	10
115	80
