Mass Spectrum: 3,5-Bis(trifluoromethyl)pyrazol
Formula: C5 H2 F6 N2
CAS: 14704-41-7
Molecular weight: 204
Origin: A.Pleshkova, Nesmeyanov Inst.Org.Elem.Cpds, Moscow
m/z	RELATIVE INTENSITY
49	50
50	130
51	30
56	80
57	70
58	30
66	470
67	60
69	2993
70	70
85	2122
86	120
87	380
88	40
106	1631
107	70
108	340
109	20
115	220
116	150
135	671
136	60
137	2392
138	50
154	931
155	100
156	440
157	100
165	210
185	5605
186	220
187	20
204	9999
205	410
206	30
