Mass Spectrum: Methanone, (2,4-dihydroxyphenyl)(4-hydroxyphenyl)-
Formula: C13 H10 O4
CAS: 1470-79-7
Molecular weight: 230
Origin: Japan AIST/NIMC Database- Spectrum MS-NW-4122
m/z	RELATIVE INTENSITY
15	10
16	10
18	20
25	10
26	99
27	489
28	219
29	199
31	30
36	50
37	119
38	359
39	1549
40	109
41	70
42	90
43	80
44	70
45	20
46	10
49	60
50	329
51	639
52	389
53	649
54	90
55	369
56	20
57	30
58	30
59	30
60	20
61	99
62	299
63	689
64	359
65	2099
66	249
67	80
68	30
69	879
70	30
71	30
72	80
73	40
74	159
75	149
76	80
77	269
78	109
79	179
80	229
81	1169
82	90
83	20
84	10
85	30
86	70
87	90
88	40
89	109
90	50
91	189
92	389
93	1559
94	869
95	179
96	10
97	20
98	40
99	20
100	40
101	819
102	109
103	60
104	20
105	90
106	30
107	189
108	1139
109	299
110	80
111	20
113	40
114	20
115	359
116	70
117	139
118	70
119	40
120	70
121	4429
122	399
123	50
125	10
126	50
127	309
128	139
129	30
130	30
131	159
132	30
133	10
134	20
135	20
136	2479
137	9999
138	859
139	129
140	10
142	20
143	30
144	90
145	139
146	20
147	40
148	10
149	50
150	10
151	10
154	10
155	119
156	30
157	40
158	10
159	10
160	20
161	10
164	30
165	40
166	10
167	30
168	10
171	30
172	20
173	199
174	30
183	60
184	159
185	50
186	10
187	10
199	10
200	60
201	599
202	109
203	20
211	10
212	159
213	809
214	139
215	20
228	60
229	4329
230	7659
231	989
232	119
233	10
