Mass Spectrum: 1H-Inden-5-ol, 2,3-dihydro-
Formula: C9 H10 O
CAS: 1470-94-6
Molecular weight: 134
Origin: Japan AIST/NIMC Database- Spectrum MS-NW-3357
m/z	RELATIVE INTENSITY
15	10
18	10
26	50
27	359
28	10
29	40
37	50
38	119
39	559
40	70
41	70
42	10
43	50
44	10
49	30
50	299
51	819
52	249
53	219
54	30
55	429
56	20
57	50
58	30
59	10
61	60
62	139
63	319
64	70
65	319
66	549
67	159
68	20
73	20
74	119
75	99
76	80
77	1129
78	379
79	659
80	50
81	30
85	10
86	30
87	40
88	20
89	129
90	50
91	519
92	70
93	10
94	80
95	10
98	10
101	20
102	129
103	549
104	159
105	1499
106	189
107	579
108	60
113	20
114	20
115	629
116	219
117	729
118	129
119	259
120	20
121	20
122	10
131	489
132	319
133	9999
134	7349
135	719
136	50
