Mass Spectrum: 1-Propene, 3-propoxy-
Formula: C6 H12 O
CAS: 1471-03-0
Molecular weight: 100
Origin: NIST Mass Spectrometry Data Center, 1990.
m/z	RELATIVE INTENSITY
14	130
15	128
26	428
27	1821
28	538
29	1272
30	248
31	415
32	17
37	160
38	464
39	4045
40	940
41	9525
42	1399
43	4111
44	228
53	85
55	654
57	5093
58	9999
59	834
71	1051
