Mass Spectrum: 1-Propene, 3-(1,1-dimethylethoxy)-
Formula: C7 H14 O
CAS: 1471-04-1
Molecular weight: 114
Origin: CARL DJERASSI DEPT OF CHEM STANFORD UNIV STANFORD CALIF 94305
m/z	RELATIVE INTENSITY
40	234
41	9999
42	469
43	704
44	93
53	93
55	234
56	704
57	4694
58	328
59	610
99	1643
100	46
