Mass Spectrum: Tridecanedioic acid, dimethyl ester
Formula: C15 H28 O4
CAS: 1472-87-3
Molecular weight: 272
Origin: Chuck Anderson, Aldrich Chemical Co.
m/z	RELATIVE INTENSITY
14	13
15	871
16	15
26	46
27	582
28	411
29	1325
30	89
31	198
32	44
33	37
36	7
38	17
39	596
40	130
41	2878
42	662
43	2376
44	85
45	250
51	17
52	10
53	177
54	196
55	3636
56	381
57	634
58	77
59	1865
60	65
61	26
65	59
66	42
67	852
68	421
69	2537
70	333
71	463
72	57
73	447
74	5151
75	350
76	34
77	56
78	31
79	345
80	255
81	1069
82	421
83	3181
84	4696
85	634
86	42
87	2992
88	338
89	28
91	104
92	40
93	501
94	331
95	899
96	795
97	2386
98	9999
99	823
100	98
101	579
102	59
103	10
104	12
105	108
106	55
107	499
108	189
109	527
110	452
111	1098
112	3333
113	376
114	136
115	447
116	138
117	31
118	12
119	122
120	80
121	419
122	203
123	471
124	404
125	918
126	1401
127	187
128	126
129	255
130	158
131	46
133	79
134	62
135	130
136	97
137	227
138	272
139	239
140	239
141	98
142	107
143	253
144	121
145	26
146	14
147	73
148	258
149	1259
150	146
151	128
152	201
153	68
154	38
155	45
156	144
157	149
158	45
161	41
162	68
163	184
164	59
165	98
166	347
167	1183
168	135
169	26
170	11
171	38
172	21
173	65
179	26
180	177
181	114
182	14
183	10
184	312
185	47
186	107
187	13
189	15
190	40
191	22
193	7
197	22
198	68
199	1306
200	158
201	13
207	30
208	426
209	97
210	12
212	31
213	11
214	14
222	11
240	20
241	1988
242	286
243	30
