Mass Spectrum: Cyclopropane, octyl-
Formula: C11 H22
CAS: 1472-09-9
Molecular weight: 154
Origin: D.HENNEBERG, MAX-PLANCK INSTITUTE, MULHEIM, WEST GERMANY
m/z	RELATIVE INTENSITY
23	3
24	17
25	31
26	83
27	2014
28	321
29	4042
30	119
31	23
32	36
34	5
35	20
38	54
39	2132
40	350
41	7135
42	3402
43	8474
44	246
47	11
50	31
51	123
52	62
53	651
54	953
55	9999
56	8483
57	4083
58	120
60	8
64	5
65	94
66	95
67	950
68	1349
69	6530
70	5611
71	1272
72	66
77	77
78	24
79	38
80	16
81	201
82	1032
83	3780
84	3047
85	452
86	13
95	25
96	245
97	2018
98	892
99	58
110	56
111	460
112	250
113	4
124	5
125	121
126	290
127	38
154	56
