Mass Spectrum: 1,15-Pentadecanediol
Formula: C15 H32 O2
CAS: 14722-40-8
Molecular weight: 244
Origin: NIST Mass Spectrometry Data Center, 1990.
m/z	RELATIVE INTENSITY
27	1235
28	963
29	2525
31	3445
32	182
39	1047
41	7258
42	1736
43	3737
44	605
45	409
53	598
54	2184
55	9999
56	2378
57	2430
66	529
67	4089
68	3737
69	4921
70	1581
71	996
79	355
80	371
81	3588
82	5823
83	3657
84	681
85	433
95	2855
96	3362
97	1859
98	458
109	1079
110	1076
111	716
123	572
124	732
137	295
138	281
