Mass Spectrum: Heneicosane, 11-pentyl-
Formula: C26 H54
CAS: 14739-72-1
Molecular weight: 366
m/z	RELATIVE INTENSITY
36	10
37	20
38	30
39	510
40	130
41	4464
42	1141
43	9999
44	320
45	10
49	10
50	10
51	20
52	20
53	180
54	350
55	3573
56	1591
57	9098
58	390
59	10
63	10
65	30
66	30
67	360
68	270
69	1922
70	941
71	5505
72	290
73	10
76	10
77	20
78	10
79	50
80	20
81	170
82	220
83	1251
84	440
85	3924
86	250
87	10
91	20
92	10
93	10
94	10
95	80
96	140
97	871
98	260
99	1091
100	80
101	10
109	30
110	70
111	400
112	210
113	721
114	60
115	10
123	10
124	50
125	210
126	130
127	500
128	60
129	10
137	10
138	40
139	110
140	140
141	420
142	50
143	10
152	30
153	70
154	70
155	320
156	40
157	10
166	20
167	60
168	60
169	250
170	30
171	10
180	20
181	30
182	60
183	160
184	20
185	10
194	10
195	20
196	110
197	100
198	20
199	10
208	10
209	10
210	70
211	100
212	20
213	10
222	10
223	10
224	1802
225	1541
226	240
227	20
236	10
237	10
238	60
239	80
240	20
241	10
251	10
252	30
253	50
254	10
265	10
266	30
267	30
268	10
280	30
281	40
282	10
294	581
295	861
296	180
297	20
308	20
309	30
310	10
322	10
323	10
324	10
336	10
337	10
338	10
364	10
365	10
366	10
