Mass Spectrum: 1,3,5,2,4,6-Triazatriphosphorine, 2-bromo-2,4,4,6,6-pentachloro-2,2,4,4,6,6-hexahydro-
Formula: Br Cl5 N3 P3
CAS: 14740-93-3
Molecular weight: 389
m/z	RELATIVE INTENSITY
76	280
78	150
90	60
105	60
111	420
113	230
120	180
125	70
146	1060
155	40
160	80
170	160
177	30
181	160
190	30
191	20
195	130
198	150
200	20
205	100
216	170
239	30
240	1320
260	60
261	70
275	750
284	60
305	10
310	9999
354	830
389	250
