Mass Spectrum: Propanamide, N-phenyl-N-[1-(phenylmethyl)-4-piperidinyl]-
Formula: C21 H26 N2 O
CAS: 1474-02-8
Molecular weight: 322
Origin: Drug Lab
m/z	RELATIVE INTENSITY
40	10
41	140
42	500
43	60
44	70
50	40
51	180
52	40
53	60
54	90
55	400
56	320
57	921
58	20
62	10
63	90
64	50
65	791
66	80
67	60
68	60
69	180
70	40
74	20
75	10
77	781
78	120
79	70
80	110
82	8217
83	510
84	20
89	160
91	9999
92	951
93	320
94	90
95	30
96	340
97	30
100	10
102	10
103	60
104	440
105	170
106	300
107	20
114	10
115	60
116	40
117	360
118	1101
119	601
120	520
121	30
127	10
128	20
129	30
130	310
131	160
132	1241
133	210
134	400
135	40
143	40
144	500
145	460
146	1551
147	220
148	40
149	70
150	250
151	20
156	10
158	621
159	90
160	40
161	10
170	60
172	2282
173	2462
174	981
175	180
176	30
188	30
189	40
190	140
191	20
202	30
203	30
204	10
208	10
215	30
216	10
217	40
218	20
219	10
221	20
222	10
231	140
232	20
236	40
237	40
245	10
248	30
249	200
250	60
251	10
263	10
265	911
266	200
267	10
293	70
294	10
322	450
323	110
324	10
