Mass Spectrum: N,N'-Dimethyl-N,N'-dinitro-ethanediamide
Formula: C4 H6 N4 O6
CAS: 14760-99-7
Molecular weight: 206
Origin: A.A.Kutin, Moscow, Russia
m/z	RELATIVE INTENSITY
38	24
39	42
40	115
41	60
42	144
43	135
44	51
46	9999
48	81
53	7
54	59
55	213
56	2578
57	638
58	396
59	357
60	9
69	7
70	3
74	2
75	5
76	7
87	10
103	1620
104	64
105	11
121	32
131	675
132	26
133	5
206	24
