Mass Spectrum: Desethylchloroquine
Formula: C16 H22 Cl N3
CAS: 1476-52-4
Molecular weight: 291
Origin: Scientific Instruments & Applications, Cohoes NY
m/z	RELATIVE INTENSITY
40	465
41	3561
42	2941
43	2592
44	3327
45	1982
46	113
47	16
49	37
50	217
51	294
52	322
53	305
54	270
55	473
56	2443
57	813
58	9999
59	432
60	24
61	52
62	123
63	359
64	65
65	168
66	41
67	236
68	270
69	557
70	1175
71	2974
72	378
73	469
74	379
75	429
76	166
77	164
78	98
79	50
80	48
81	62
82	115
83	85
84	550
85	333
86	178
87	155
88	149
89	204
90	130
91	79
92	27
93	16
94	33
95	38
96	153
97	154
98	830
99	802
100	317
101	239
102	167
103	102
108	26
109	36
110	52
111	187
112	756
113	135
114	363
115	363
116	170
117	77
119	26
123	232
124	67
125	110
126	287
127	371
128	279
129	91
130	28
133	32
134	15
135	585
136	113
137	202
138	185
139	54
140	120
141	91
142	142
143	172
144	77
147	26
148	21
149	22
150	362
151	159
152	184
153	113
154	88
155	405
156	142
158	14
161	26
162	530
163	507
164	512
165	233
166	135
167	84
168	345
169	1046
170	709
171	63
172	14
174	14
176	27
177	243
178	782
179	3867
180	540
181	1422
182	218
183	49
188	71
189	201
190	301
191	161
192	77
193	186
194	83
195	116
196	29
197	30
201	25
202	89
203	381
204	144
205	1780
206	866
207	616
208	276
209	63
210	19
214	26
215	81
216	64
217	341
218	209
219	937
220	238
221	317
222	32
228	13
229	350
230	102
231	326
232	151
233	243
234	99
235	67
236	12
237	17
238	2
240	5
241	38
242	112
243	55
244	152
245	152
246	106
247	74
248	58
249	17
250	14
253	30
254	24
255	34
262	103
263	47
264	63
265	219
266	120
267	81
268	36
269	19
276	34
277	16
278	12
291	427
292	92
293	139
294	22
295	10
