Mass Spectrum: 1,3-Benzenedimethanamine
Formula: C8 H12 N2
CAS: 1477-55-0
Molecular weight: 136
Origin: Japan AIST/NIMC Database- Spectrum MS-NW-1048
m/z	RELATIVE INTENSITY
14	10
15	20
16	60
26	30
27	159
28	1739
29	259
30	3519
31	60
36	10
37	40
38	99
39	449
40	60
41	159
42	119
43	60
44	239
45	1339
46	20
49	20
50	279
51	579
52	259
53	159
54	159
55	50
56	80
57	40
58	30
59	60
60	20
61	40
62	109
63	309
64	99
65	459
66	129
67	179
68	40
69	20
70	20
71	10
73	30
74	99
75	99
76	139
77	1049
78	379
79	1279
80	249
81	80
82	20
84	10
85	20
86	20
87	20
88	20
89	459
90	1129
91	3479
92	1759
93	309
94	50
95	10
96	10
101	20
102	80
103	159
104	459
105	219
106	9999
107	1039
108	289
109	30
111	10
114	20
115	10
116	90
117	559
118	5469
119	3379
120	729
121	80
128	40
129	20
130	10
131	80
132	70
133	199
134	129
135	939
136	399
137	40
