Mass Spectrum: Benzoic acid, 4-nitro-, phenylmethyl ester
Formula: C14 H11 N O4
CAS: 14786-27-7
Molecular weight: 257
Origin: V.Zaikin,Topchiev Inst.Petrochem.Synth.,Moscow
m/z	RELATIVE INTENSITY
26	40
27	40
29	30
30	90
36	50
37	20
38	50
39	210
40	20
41	70
43	10
44	190
45	10
49	20
50	440
51	290
52	80
53	30
55	20
61	20
62	50
63	220
64	150
65	861
66	60
71	20
73	30
74	200
75	350
76	841
77	621
78	140
79	721
80	50
81	20
83	10
87	10
89	601
90	2052
91	6666
92	741
93	80
94	20
96	20
103	80
104	1301
105	661
106	280
107	510
108	60
109	30
115	10
117	10
118	20
119	30
120	410
121	520
122	80
123	30
133	20
134	1351
135	200
136	20
137	80
146	10
150	9999
151	4324
152	410
153	60
154	10
164	10
165	140
166	50
167	220
168	30
181	20
182	30
183	20
191	20
193	90
194	20
227	60
228	10
239	210
240	50
241	190
242	30
257	5445
258	831
259	110
