Mass Spectrum: L-Valine, N-(trifluoroacetyl)-, butyl ester
Formula: C11 H18 F3 N O3
CAS: 1478-96-2
Molecular weight: 269
Origin: S. MARKEY UNIV. OF COLO. MED. CTR., DENVER, COLORADO, USA
m/z	RELATIVE INTENSITY
15	180
17	160
18	600
27	2080
29	4710
30	140
31	220
39	1340
41	5350
42	760
43	1910
44	430
45	210
47	70
50	50
51	240
53	200
54	160
55	9999
56	1290
57	4010
58	130
69	2560
73	410
77	280
78	150
82	120
84	140
94	90
98	380
100	360
101	160
114	1510
116	190
119	150
125	320
126	620
131	140
152	200
153	2350
154	540
156	180
167	130
168	9500
169	1290
170	170
171	710
194	140
195	12
196	100
197	10
214	80
215	10
227	230
228	23
