Mass Spectrum: 2-Amino-5-bromo-2'-fluorobenzophenone
Formula: C13 H9 Br F N O
CAS: 1479-58-9
Molecular weight: 293
Origin: NIST Mass Spectrometry Data Center
m/z	RELATIVE INTENSITY
26	10
27	20
31	20
37	80
38	240
39	350
40	40
41	400
42	20
44	10
45	70
49	50
50	520
51	460
52	1261
53	230
54	40
55	10
56	50
57	180
60	10
61	260
62	801
63	2522
64	1391
65	691
66	100
67	20
68	280
69	490
70	160
71	20
72	10
73	70
74	631
75	2632
76	320
77	150
79	90
80	70
81	140
83	240
85	100
86	140
87	160
88	180
89	300
90	1962
91	2883
92	500
94	490
95	5655
96	480
97	80
98	180
99	140
100	70
101	70
102	50
103	10
104	30
105	80
106	110
107	2412
109	70
110	80
111	130
112	30
113	100
114	60
115	60
116	60
117	180
118	100
119	220
120	120
121	30
122	140
123	8147
124	651
125	90
126	60
127	20
128	20
129	30
130	20
131	150
132	130
133	310
134	70
135	20
136	10
137	140
138	330
139	761
140	310
141	60
142	80
143	1231
144	260
145	1181
146	150
147	70
149	60
150	70
151	30
152	10
153	10
154	20
155	70
156	80
157	681
158	300
159	290
160	30
162	10
163	20
164	440
165	350
166	841
167	400
168	210
169	470
170	2492
171	480
172	2232
173	160
174	10
175	20
176	40
177	30
182	50
183	30
184	550
185	1571
186	320
187	50
193	60
194	631
195	1331
196	290
197	641
198	3243
199	671
200	3093
201	240
202	10
212	30
213	2622
214	691
215	80
217	20
219	20
244	30
245	180
246	60
247	160
248	50
250	20
263	10
264	290
265	70
266	290
267	50
272	60
273	1321
274	1561
275	1471
276	2783
277	400
278	1141
279	160
280	10
292	6416
293	9999
294	7537
295	9719
296	1311
297	100
