Mass Spectrum: Chlorothen
Formula: C14 H18 Cl N3 S
CAS: 148-65-2
Molecular weight: 295
Origin: AAFS Toxicology Section MS DB Committee, U. Alberta, Canada
m/z	RELATIVE INTENSITY
37	10
38	20
39	70
40	10
41	60
42	510
43	130
44	90
45	220
46	10
47	10
50	30
51	280
52	230
53	60
54	30
55	30
56	210
58	9999
59	390
60	10
61	10
62	10
63	30
64	20
65	70
66	40
67	50
68	20
69	180
70	200
71	2412
72	2692
73	250
74	10
75	30
76	10
77	40
78	930
79	1030
80	110
81	110
82	30
83	30
84	20
85	10
86	10
87	220
88	10
89	90
90	10
91	50
92	50
93	100
94	60
95	290
96	140
97	90
98	20
99	10
100	10
101	10
102	10
103	10
104	10
105	130
106	90
107	250
108	30
109	20
110	30
111	20
112	10
113	10
114	10
115	10
116	10
117	30
118	50
119	550
120	70
121	60
122	10
123	10
124	20
125	10
126	10
127	10
128	10
129	10
131	4994
132	350
133	1941
134	150
135	110
136	10
137	10
138	10
139	10
141	10
142	10
143	20
144	20
145	120
146	30
147	10
148	10
149	10
153	10
154	10
155	50
156	20
157	30
158	10
159	10
160	10
161	10
162	90
163	40
164	10
165	10
168	30
169	20
171	10
172	10
173	10
174	10
183	10
185	10
186	10
187	180
188	100
189	250
190	30
191	20
193	10
194	10
195	10
196	10
197	10
199	10
200	10
201	30
202	10
203	10
208	10
211	10
212	20
213	50
214	10
215	20
216	10
217	10
223	170
224	370
225	910
226	230
227	290
228	40
229	10
235	10
237	110
238	10
239	30
240	10
249	10
250	20
251	20
252	10
253	10
256	10
259	10
260	10
283	10
293	10
295	630
296	140
297	270
298	40
299	10
