Mass Spectrum: Propanenitrile, 3-(ethylphenylamino)-
Formula: C11 H14 N2
CAS: 148-87-8
Molecular weight: 174
Origin: Japan AIST/NIMC Database- Spectrum MS-NW-5170
m/z	RELATIVE INTENSITY
14	10
15	50
18	40
26	99
27	479
28	209
29	439
30	80
32	10
37	30
38	99
39	349
40	70
41	129
42	189
43	10
44	20
49	10
50	229
51	1009
52	239
53	90
54	1029
55	60
56	50
58	10
61	20
62	40
63	149
64	109
65	239
66	70
67	30
68	119
69	10
73	10
74	70
75	70
76	99
77	2389
78	389
79	519
80	40
83	10
84	10
87	70
88	10
89	40
90	50
91	529
92	109
93	50
94	20
101	10
102	20
103	70
104	1029
105	519
106	3829
107	319
108	10
115	10
116	20
117	80
118	169
119	159
120	99
121	99
122	10
128	10
129	10
130	50
131	10
132	139
133	60
134	9999
135	1069
136	50
142	10
143	20
144	40
145	30
146	20
148	20
155	20
157	20
158	10
159	869
160	119
170	10
171	10
172	10
173	60
174	2189
175	299
176	20
