Mass Spectrum: 8-Hydroxyquinoline
Formula: C9 H7 N O
CAS: 148-24-3
Molecular weight: 145
Origin: NIST Mass Spectrometry Data Center, 1998.
m/z	RELATIVE INTENSITY
25	10
26	60
27	70
28	50
29	50
31	10
36	20
37	160
38	330
39	700
40	110
41	90
42	20
43	70
44	60
45	70
48	10
49	100
50	480
51	510
52	270
53	150
54	60
55	20
56	10
57	150
58	1030
60	30
61	290
62	770
63	1870
64	620
65	190
66	80
67	40
68	10
72	140
74	230
75	240
76	210
77	140
78	170
79	40
80	10
84	20
85	80
86	170
87	240
88	280
89	2980
90	2810
91	360
92	30
97	10
98	40
99	50
100	50
101	20
102	30
103	10
104	10
111	10
112	10
114	110
115	150
116	1190
117	8049
118	770
119	30
123	10
126	10
127	10
128	10
129	10
144	190
145	9999
146	1150
147	70
