Mass Spectrum: Cyclopropane, trimethyl(2-methyl-1-propenylidene)-
Formula: C10 H16
CAS: 14803-30-6
Molecular weight: 136
Origin: CARL DJERASSI DEPT OF CHEM STANFORD UNIV STANFORD CALIF 94305
m/z	RELATIVE INTENSITY
41	4900
42	500
43	1500
44	100
50	500
51	1600
52	700
53	2300
54	500
55	2300
56	200
57	400
58	200
59	100
61	100
62	200
63	600
64	200
65	1500
66	400
67	3600
68	300
69	500
70	300
71	200
74	200
75	200
76	100
77	4400
78	800
79	4700
80	700
81	1900
82	300
83	200
84	100
89	100
91	4300
92	600
93	2800
94	500
95	200
96	100
97	200
103	600
104	200
105	4800
106	1900
107	800
108	200
111	100
115	100
117	100
119	1100
120	400
121	9999
122	1000
123	100
133	100
134	100
135	200
136	7100
137	800
138	200
