Mass Spectrum: 1,19-Eicosadiene
Formula: C20 H38
CAS: 14811-95-1
Molecular weight: 278
Origin: Japan AIST/NIMC Database- Spectrum MS-NW-8446
m/z	RELATIVE INTENSITY
14	20
15	20
26	40
27	559
28	229
29	1529
30	40
38	20
39	819
40	149
41	5599
42	1109
43	4299
44	179
45	20
47	20
50	20
51	50
52	30
53	419
54	2159
55	9999
56	2449
57	3409
58	189
59	10
63	20
65	99
66	399
67	3879
68	3829
69	5839
70	1839
71	1249
72	80
73	60
74	10
75	90
76	10
77	119
78	40
79	199
80	359
81	5089
82	7529
83	5479
84	899
85	619
86	40
89	10
91	239
92	99
93	90
94	219
95	3489
96	5859
97	3919
98	479
99	99
101	10
103	10
105	60
106	70
107	40
108	80
109	1869
110	1719
111	959
112	309
113	50
114	10
115	10
117	20
119	20
121	40
122	50
123	939
124	869
125	269
126	80
127	20
129	70
130	10
131	10
132	20
133	30
135	30
136	30
137	509
138	469
139	99
140	40
141	10
145	20
147	30
149	10
151	199
152	239
153	50
154	20
159	10
165	109
166	149
167	30
168	10
173	10
179	60
180	109
181	20
193	50
194	90
195	10
207	40
208	80
209	10
211	10
221	30
222	60
223	10
235	30
236	50
249	20
250	80
251	10
278	70
279	10
