Mass Spectrum: Phoxim
Formula: C12 H15 N2 O3 P S
CAS: 14816-18-3
Molecular weight: 298
Origin: NIST Mass Spectrometry Data Center, 2009
m/z	RELATIVE INTENSITY
15	20
19	10
26	60
27	470
28	110
29	1201
30	30
31	30
33	10
35	30
37	30
38	50
39	250
40	20
41	30
42	20
43	190
44	30
45	540
46	60
47	260
48	30
49	30
50	430
51	1221
52	190
53	60
54	40
55	20
57	20
58	60
59	320
60	200
61	170
62	150
63	300
64	120
65	1161
66	60
69	180
70	30
71	20
72	60
73	20
74	110
75	250
76	631
77	1461
78	220
79	50
81	4614
82	150
83	110
84	50
85	30
86	30
87	210
88	220
89	100
90	330
91	2232
92	80
93	310
94	40
95	20
96	100
97	230
98	20
99	30
100	20
101	40
102	200
103	1852
104	1301
105	140
106	30
107	210
108	420
109	9999
110	340
111	220
112	20
113	440
114	200
115	130
116	30
117	20
119	10
120	10
121	30
122	40
123	200
124	40
125	30
126	10
128	20
129	120
130	140
131	50
132	50
133	120
134	1892
135	6236
136	671
137	1521
138	430
139	781
140	1862
141	180
142	110
143	20
147	10
148	10
150	40
151	320
152	30
153	20
155	10
157	190
158	30
159	20
160	110
161	1201
162	320
163	90
164	20
166	90
167	881
168	1682
169	190
170	110
171	10
173	10
175	20
177	10
180	10
184	10
189	30
190	50
193	10
194	10
195	60
196	110
197	10
198	30
212	40
225	90
226	10
227	10
240	200
241	80
242	50
243	20
244	10
253	50
254	20
255	10
269	80
270	70
271	40
272	10
297	350
298	1331
299	210
300	80
301	10
