Mass Spectrum: 1-Pentyn-3-ol, 3,4-dimethyl-
Formula: C7 H12 O
CAS: 1482-15-1
Molecular weight: 112
Origin: Japan AIST/NIMC Database- Spectrum MS-NW-2209
m/z	RELATIVE INTENSITY
14	20
15	239
18	10
25	20
26	149
27	879
28	70
29	149
31	50
37	50
38	119
39	849
40	179
41	1609
42	309
43	5879
44	179
45	60
49	20
50	169
51	329
52	199
53	349
54	60
55	599
56	40
57	50
58	139
59	20
61	10
62	30
63	60
64	10
65	60
66	30
67	169
68	439
69	9999
70	1199
71	169
72	10
74	10
77	319
78	40
79	369
80	40
81	50
82	30
83	159
84	20
86	60
87	10
91	40
93	60
94	70
95	50
96	10
97	1469
98	90
111	50
