Mass Spectrum: Diselenide, bis(phenylmethyl)
Formula: C14 H14 Se2
CAS: 1482-82-2
Molecular weight: 342
m/z	RELATIVE INTENSITY
27	38
28	38
37	38
38	94
39	1132
40	38
41	283
50	151
51	472
52	151
53	19
61	38
62	170
63	717
64	189
65	3019
66	151
74	19
75	19
76	19
77	94
78	38
80	19
86	19
87	19
88	19
89	566
90	226
91	9999
92	1604
93	472
95	38
116	57
156	38
158	57
160	38
165	38
166	38
167	94
168	38
169	189
170	19
171	226
172	19
173	38
181	906
182	151
247	19
248	19
262	57
334	38
335	19
336	94
337	75
338	340
339	189
340	566
341	94
342	604
343	94
344	189
345	38
