Mass Spectrum: Benzene,(chloroethynyl)-
Formula: C8 H5 Cl
CAS: 1483-82-5
Molecular weight: 136
Origin: A.Pleshkova, Nesmeyanov Inst.Org.Elem.Cpds, Moscow
m/z	RELATIVE INTENSITY
49	150
50	921
51	791
52	210
61	260
62	330
63	250
68	631
69	370
73	280
74	1371
75	1421
76	430
77	340
83	120
84	330
85	160
86	260
87	80
91	781
92	20
100	911
101	2632
102	1161
103	100
136	9999
137	801
138	3253
139	250
140	50
