Mass Spectrum: 2-Bromoethyl isothiocyanate
Formula: C3 H4 Br N S
CAS: 1483-41-6
Molecular weight: 165
Origin: NIST Mass Spectrometry Data Center, 1994
m/z	RELATIVE INTENSITY
12	119
13	115
15	241
24	67
25	362
26	2675
27	9999
28	987
29	82
32	97
33	111
34	102
37	51
38	286
39	313
40	595
41	138
42	162
43	51
44	1028
45	1204
46	243
47	66
50	65
51	395
52	390
53	56
54	75
56	154
57	562
58	2241
59	2420
60	2873
61	206
62	139
70	475
72	5411
73	217
74	224
79	701
80	227
81	673
82	287
83	130
84	507
85	499
86	768
87	56
88	40
91	96
92	74
93	497
94	92
95	322
104	43
105	139
107	6482
109	6218
110	167
113	47
165	5092
166	215
167	4860
168	217
169	228
170	7
