Mass Spectrum: Norephedrine, (.+/-.)-
Formula: C9 H13 N O
CAS: 14838-15-4
Molecular weight: 151
Origin: Japan AIST/NIMC Database- Spectrum MS-IW-3339
m/z	RELATIVE INTENSITY
15	30
17	60
18	149
27	99
28	119
29	60
30	60
38	20
39	99
40	20
41	40
42	229
43	139
44	9999
45	409
50	90
51	309
52	80
53	50
55	10
56	10
57	20
58	20
59	10
60	10
62	20
63	60
64	10
65	40
66	10
73	20
74	30
75	20
76	20
77	749
78	169
79	559
80	40
89	50
90	40
91	129
92	20
103	20
104	10
105	239
106	80
107	299
108	60
115	30
116	10
117	109
118	109
119	30
130	10
131	10
132	60
133	30
134	10
136	10
