Mass Spectrum: 9H-Carbazole, 9-(1-methylethyl)-
Formula: C15 H15 N
CAS: 1484-09-9
Molecular weight: 209
Origin: RADIAN CORP
m/z	RELATIVE INTENSITY
27	740
39	630
40	20
41	660
42	40
43	760
51	20
62	80
63	100
74	110
75	250
76	170
86	40
87	140
88	120
89	220
90	60
113	330
114	110
115	320
116	110
137	90
138	210
139	1190
140	1550
141	120
151	150
152	410
164	430
165	310
166	2040
167	2070
168	470
177	10
178	80
180	10
191	180
192	430
193	80
194	9999
195	1610
196	10
209	3490
210	540
