Mass Spectrum: Pentyl N,N-dimethylphosphoramidocyanidate
Formula: C8 H17 N2 O2 P
CAS: 148461-87-4
Molecular weight: 204
Origin: VERIFIN - Methodology B1-1979
m/z	RELATIVE INTENSITY
26	80
27	500
28	200
29	400
39	400
40	100
41	1601
42	2702
43	3903
44	2001
45	2702
46	100
47	200
49	60
53	100
55	2502
57	80
65	80
69	200
70	4203
71	300
76	90
90	200
91	100
92	90
106	300
107	600
108	1101
117	1101
133	1201
134	500
135	9999
136	300
137	80
189	50
204	100
