Mass Spectrum: 2-(2-Hydroxyethyl)piperidine
Formula: C7 H15 N O
CAS: 1484-84-0
Molecular weight: 129
Origin: Japan AIST/NIMC Database- Spectrum MS-NW-9203
m/z	RELATIVE INTENSITY
15	70
17	10
18	40
26	30
27	309
28	729
29	299
30	929
31	239
36	60
38	30
39	279
40	50
41	609
42	689
43	449
44	449
45	109
46	20
50	20
51	30
52	30
53	119
54	279
55	679
56	1479
57	259
58	60
59	10
65	30
66	10
67	169
68	169
69	99
70	279
71	20
72	399
73	20
74	20
77	20
78	10
79	40
80	60
81	80
82	249
83	119
84	9999
85	619
86	99
87	10
93	20
94	20
95	10
96	80
97	30
98	459
99	90
100	99
101	40
106	20
107	10
108	30
109	20
110	129
111	99
112	80
113	10
128	159
129	139
130	20
