Mass Spectrum: 9H-Carbazole, 9-methyl-
Formula: C13 H11 N
CAS: 1484-12-4
Molecular weight: 181
Origin: U.S. BUREAU OF MINES, LARAMIE, WYO, USA
m/z	RELATIVE INTENSITY
13	6
14	15
15	431
16	9
27	26
28	75
29	50
30	9
37	23
38	60
39	303
40	24
41	21
42	14
43	7
44	6
48	18
49	304
50	403
51	109
52	29
53	11
54	20
55	23
56	21
60	8
61	98
62	333
63	713
64	177
65	87
66	39
67	11
68	9
69	48
70	31
71	12
72	7
73	34
74	374
75	479
76	726
77	508
78	46
79	12
82	15
83	81
84	10
85	58
86	193
87	293
88	169
89	367
90	1081
91	246
92	9
97	14
98	120
99	113
100	72
101	114
102	87
103	28
104	11
109	18
110	54
111	76
112	55
113	231
114	117
115	194
116	105
117	18
121	7
122	23
123	18
124	15
125	55
126	162
127	224
128	80
129	21
130	14
134	12
135	9
136	12
137	95
138	159
139	509
140	789
141	97
142	10
149	30
150	152
151	519
152	1491
153	358
154	62
155	11
162	10
163	18
164	282
165	114
166	934
167	150
168	15
175	11
176	28
177	106
178	263
179	553
180	5576
181	9999
182	1374
183	515
