Mass Spectrum: 1-Phenylethanol, TMS derivative
Formula: C11 H18 O Si
CAS: 14856-75-8
Molecular weight: 194
Origin: CARL DJERASSI DEPT OF CHEM STANFORD UNIV STANFORD CALIF 94305
m/z	RELATIVE INTENSITY
27	99
28	99
29	99
39	99
43	198
44	99
45	396
47	198
50	99
51	198
52	99
53	99
55	99
57	99
58	99
59	198
60	99
61	198
63	99
65	99
73	3168
74	495
75	5743
76	396
77	792
78	198
79	297
81	99
82	396
89	99
90	99
91	198
101	99
102	99
103	297
104	297
105	891
106	99
116	99
117	99
121	99
135	198
136	99
137	99
145	99
149	99
163	198
164	99
165	198
177	99
179	9999
180	1584
181	594
194	297
195	99
196	13
