Mass Spectrum: Pyridoxine, 3TMS derivative
Formula: C17 H35 N O3 Si3
CAS: 14857-17-1
Molecular weight: 385
Origin: NIST Mass Spectrometry Data Center
m/z	RELATIVE INTENSITY
29	10
31	10
39	30
42	10
43	60
44	60
45	540
46	40
47	60
51	20
52	10
53	20
54	10
55	20
56	10
57	30
58	40
59	190
60	20
61	60
63	10
64	10
65	80
66	30
67	10
69	10
70	20
71	20
73	5775
74	510
75	591
76	40
77	120
78	30
79	60
80	20
81	10
83	40
84	20
85	30
86	10
87	10
88	10
89	30
90	10
91	60
92	20
93	20
94	10
95	20
96	10
97	30
98	10
99	20
100	10
101	10
102	10
103	80
104	30
105	60
106	330
107	40
108	10
109	30
110	10
111	30
112	10
113	10
114	10
115	50
116	20
117	80
118	50
119	70
120	50
121	30
122	20
123	30
124	10
125	10
127	10
129	10
130	40
131	180
132	70
133	460
134	190
135	80
136	30
137	20
138	10
139	20
143	20
144	10
145	10
147	1872
148	340
149	210
150	70
151	30
152	20
153	10
155	10
157	10
158	10
159	10
160	10
161	10
162	50
163	20
164	100
165	50
166	50
167	20
168	10
169	10
174	20
175	10
176	80
177	30
178	120
179	80
180	110
181	60
182	20
183	10
188	10
189	10
190	100
191	60
192	260
193	90
194	120
195	50
196	20
197	10
202	10
204	40
205	50
206	250
207	180
208	240
209	60
210	20
211	10
218	10
219	10
220	40
221	120
222	480
223	110
224	60
225	10
226	10
232	10
234	10
236	40
237	10
238	50
239	20
240	20
241	10
248	10
249	10
250	120
251	40
252	520
253	190
254	110
255	30
256	10
262	10
263	10
264	90
265	100
266	160
267	80
268	50
269	20
270	10
276	10
277	10
278	40
280	9999
281	2592
282	1201
283	210
284	50
285	10
292	10
293	10
294	110
295	4214
296	1221
297	601
298	140
299	30
310	10
312	10
324	10
326	30
327	80
328	30
329	10
340	10
341	10
354	40
355	20
356	10
370	791
371	260
372	130
373	30
374	10
385	10
