Mass Spectrum: 4-Octene, (E)-
Formula: C8 H16
CAS: 14850-23-8
Molecular weight: 112
Origin: Japan AIST/NIMC Database- Spectrum MS-NW-3367
m/z	RELATIVE INTENSITY
15	70
18	10
26	109
27	1589
28	189
29	1419
30	30
36	10
37	30
38	90
39	1639
40	249
41	7799
42	2519
43	1159
44	40
49	10
50	109
51	229
52	109
53	649
54	719
55	9999
56	4339
57	1189
58	50
61	10
62	30
63	50
64	10
65	149
66	70
67	769
68	379
69	3229
70	4229
71	449
72	20
74	10
77	119
78	20
79	119
80	20
81	199
82	189
83	2879
84	699
85	50
91	20
95	20
97	139
98	10
110	10
112	3329
113	319
114	10
