Mass Spectrum: Ethanone, 2-ethoxy-1-phenyl-
Formula: C10 H12 O2
CAS: 14869-39-7
Molecular weight: 164
Origin: NIST Mass Spectrometry Data Center, 1994
m/z	RELATIVE INTENSITY
13	14
14	71
15	448
16	16
18	16
26	282
27	1423
28	240
29	1127
30	28
31	18
32	4
37	102
38	365
39	1374
40	92
41	74
42	4
43	2440
44	71
45	26
50	619
51	692
52	166
53	376
54	21
55	188
61	83
62	286
63	966
64	650
65	1970
66	257
67	33
68	15
73	28
74	178
75	154
76	321
77	1059
78	228
79	258
80	18
86	20
87	20
88	12
89	148
90	120
91	477
92	719
93	1573
94	229
95	39
103	239
104	99
105	622
106	67
107	322
108	27
115	25
117	18
118	35
119	101
120	18
121	9999
122	801
123	65
131	920
132	93
133	36
135	28
136	35
145	78
146	267
147	146
148	28
149	2325
150	251
151	26
164	1112
165	134
166	18
