Mass Spectrum: Vinyl crotonate
Formula: C6 H8 O2
CAS: 14861-06-4
Molecular weight: 112
Origin: Chuck Anderson, Aldrich Chemical Co.
m/z	RELATIVE INTENSITY
12	1
13	8
14	55
15	290
16	5
24	2
25	22
26	198
27	456
28	61
29	140
30	4
31	16
33	2
36	18
37	240
38	615
39	5181
40	688
41	7955
42	593
43	279
44	173
45	47
46	1
48	1
49	7
50	22
51	16
52	5
53	101
54	15
55	39
56	3
57	11
65	4
66	18
67	27
68	207
69	9999
70	483
71	38
72	1
83	1
84	1
85	4
97	1
112	583
113	39
114	3
