Mass Spectrum: Manganese, pentacarbonyliodo-
Formula: C5 I Mn O5
CAS: 14879-42-6
Molecular weight: 322
Origin: B.F.G.JOHNSON DEPT. OF CHEM., UNIV. OF MANCHESTER, UK
m/z	RELATIVE INTENSITY
83	5200
111	1440
139	280
167	60
182	9999
194	220
195	130
210	2640
238	5750
266	4480
322	6950
323	400
