Mass Spectrum: Iron, hexacarbonylbis[.mu.-(methanethiolato)]di-, (Fe-Fe)
Formula: C8 H6 Fe2 O6 S2
CAS: 14878-96-7
Molecular weight: 374
Origin: B.F.G.JOHNSON DEPT. OF CHEM., UNIV. OF MANCHESTER, UK
m/z	RELATIVE INTENSITY
56	830
103	1530
112	510
117	620
131	570
135	51
144	2290
159	480
176	4170
206	9999
219	170
232	130
234	4360
262	2180
275	20
290	3030
318	3190
346	2680
374	2990
