Mass Spectrum: Furan, 2,3-dihydro-5-methyl-
Formula: C5 H8 O
CAS: 1487-15-6
Molecular weight: 84
Origin: D.HENNEBERG, MAX-PLANCK INSTITUTE, MULHEIM, WEST GERMANY
m/z	RELATIVE INTENSITY
26	580
27	1807
28	920
29	897
30	22
31	65
37	117
38	225
39	3150
40	241
41	1940
42	882
43	9999
44	261
45	61
49	49
50	255
51	325
52	224
53	1035
54	1500
55	1405
56	198
57	40
58	43
65	54
68	208
69	721
70	65
72	45
81	151
82	116
83	2718
84	4788
85	235
86	14
