Mass Spectrum: 2-Butanol, (R)-
Formula: C4 H10 O
CAS: 14898-79-4
Molecular weight: 74
Origin: D.HENNEBERG, MAX-PLANCK INSTITUTE, MULHEIM, WEST GERMANY
m/z	RELATIVE INTENSITY
26	373
27	1326
28	1309
29	660
30	34
31	1881
32	79
37	25
38	56
39	375
40	60
41	1143
42	131
43	879
44	935
45	9999
46	213
47	9
49	12
50	46
51	30
52	6
53	38
54	9
55	225
56	146
57	219
58	48
59	1819
60	53
71	3
72	15
73	110
74	21
