Mass Spectrum: Benzenemethanol, .alpha.-(1-methylethyl)-, (R)-
Formula: C10 H14 O
CAS: 14898-86-3
Molecular weight: 150
Origin: Japan AIST/NIMC Database- Spectrum MS-IW-1513
m/z	RELATIVE INTENSITY
15	20
17	10
18	40
26	10
27	319
28	40
29	149
31	30
37	10
38	40
39	339
40	30
41	239
42	30
43	379
44	10
45	20
50	159
51	569
52	159
53	129
54	10
55	80
56	10
57	119
58	20
62	30
63	99
64	30
65	99
66	20
71	20
73	10
74	40
75	40
76	50
77	1879
78	369
79	4569
80	309
81	10
86	10
87	10
89	60
90	30
91	289
92	40
93	10
102	20
103	40
104	10
105	599
106	119
107	9999
108	809
109	50
115	139
116	40
117	219
118	60
119	10
120	10
128	10
129	10
131	20
132	40
133	60
134	20
135	30
149	10
150	599
151	60
