Mass Spectrum: 1,2,3-Trifluorobenzene
Formula: C6 H3 F3
CAS: 1489-53-8
Molecular weight: 132
Origin: Chuck Anderson, Aldrich Chemical Co.
m/z	RELATIVE INTENSITY
18	7
20	1
26	27
28	93
29	7
31	705
32	16
36	29
37	182
38	110
39	49
44	24
45	21
49	53
50	235
51	149
55	58
56	248
57	339
60	29
61	329
62	480
63	2029
64	136
65	17
66	281
68	405
69	153
70	35
73	46
74	197
75	849
76	27
79	90
80	229
81	2371
82	486
83	21
86	69
87	142
88	576
89	31
92	121
93	184
94	48
99	328
100	24
101	470
102	24
105	18
106	646
107	23
110	18
111	41
112	646
113	395
114	26
130	28
131	157
132	9999
133	640
134	18
