Mass Spectrum: 2-Mercaptobenzothiazole
Formula: C7 H5 N S2
CAS: 149-30-4
Molecular weight: 167
Origin: NIST Mass Spectrometry Data Center, 2010
m/z	RELATIVE INTENSITY
26	20
27	40
32	60
35	30
36	160
37	190
38	350
39	410
41	40
44	130
45	581
46	20
47	20
49	70
50	370
51	300
52	290
53	30
54	100
56	20
57	140
58	360
59	190
60	50
61	220
62	330
63	911
64	751
65	420
66	40
68	60
69	1371
70	360
71	140
72	20
73	50
74	190
75	200
76	300
77	110
78	130
79	50
80	10
81	250
82	671
83	821
87	10
88	40
90	140
91	961
92	80
93	140
94	60
95	240
96	881
97	100
98	40
100	10
102	140
103	581
104	50
105	40
106	60
107	110
108	1511
109	1541
110	180
111	60
120	10
121	30
122	470
123	1181
124	90
125	40
128	10
133	90
134	160
135	1261
136	120
137	60
139	100
140	661
141	120
142	60
165	20
166	370
167	9999
168	991
169	931
170	60
171	10
