Mass Spectrum: Erythritol
Formula: C4 H10 O4
CAS: 149-32-6
Molecular weight: 122
Origin: NIST Mass Spectrometry Data Center, 1998.
m/z	RELATIVE INTENSITY
14	80
15	380
27	770
29	1050
30	220
31	2360
38	90
39	130
41	100
42	1340
43	5609
44	8969
45	2730
47	280
55	720
56	1420
57	360
58	180
59	180
60	1630
61	9999
62	640
63	60
69	70
71	130
72	80
73	1100
74	1170
75	370
76	70
86	60
87	50
90	70
91	1390
101	190
104	90
