Mass Spectrum: Methane, trimethoxy-
Formula: C4 H10 O3
CAS: 149-73-5
Molecular weight: 106
Origin: NIST Mass Spectrometry Data Center, 1994
m/z	RELATIVE INTENSITY
12	40
13	114
14	572
15	4117
16	91
17	6
19	13
26	10
27	68
29	4476
31	7405
32	131
33	125
41	7
42	25
43	89
44	124
45	540
46	7
47	5365
48	116
49	13
59	257
60	19
61	52
75	9999
76	356
77	51
105	175
106	8
