Mass Spectrum: Cyclohexanol, 5-methyl-2-(1-methylethyl)-
Formula: C10 H20 O
CAS: 1490-04-6
Molecular weight: 156
Origin: Japan AIST/NIMC Database- Spectrum MS-IW-6818
m/z	RELATIVE INTENSITY
15	50
17	20
18	70
26	20
27	1049
28	169
29	1209
30	30
31	269
38	30
39	979
40	179
41	3699
42	609
43	2939
44	319
45	239
46	10
50	30
51	119
52	60
53	719
54	429
55	4559
56	2099
57	2609
58	299
59	159
63	30
64	10
65	169
66	80
67	3329
68	1549
69	3689
70	1289
71	9999
72	659
73	139
77	229
78	50
79	399
80	1199
81	9239
82	4489
83	1629
84	389
85	1009
86	469
87	60
91	129
92	20
93	349
94	609
95	8879
96	3489
97	579
98	60
99	479
100	90
101	10
105	20
107	40
108	30
109	1369
110	749
111	199
112	299
113	179
114	20
117	10
119	20
121	30
122	10
123	3809
124	379
125	50
136	10
137	109
138	3029
139	429
140	20
141	99
142	10
154	30
155	30
156	10
