Mass Spectrum: Oxymetazoline
Formula: C16 H24 N2 O
CAS: 1491-59-4
Molecular weight: 260
Origin: NIST Mass Spectrometry Data Center, 1990.
m/z	RELATIVE INTENSITY
15	206
27	362
28	259
29	504
30	414
39	543
40	252
41	1438
42	676
43	601
44	4337
51	403
52	210
53	543
54	280
55	688
57	446
63	249
64	238
65	669
66	221
67	294
68	139
69	213
71	680
72	131
73	117
77	1169
78	493
79	747
80	364
81	1141
82	261
83	256
84	1419
85	546
86	279
87	519
89	223
91	1717
92	310
93	461
94	487
101	929
102	221
103	413
104	216
105	945
106	256
107	339
108	537
115	1662
116	572
117	651
118	250
119	658
121	313
122	331
123	202
127	460
128	1166
129	793
130	416
131	558
132	296
133	588
134	200
135	353
141	561
142	544
143	470
144	325
145	577
146	462
147	599
148	205
149	193
152	156
153	201
154	240
155	145
156	197
157	329
158	283
159	782
160	469
161	826
162	304
163	598
171	288
172	322
173	532
174	866
175	1498
176	365
184	124
185	309
186	416
187	1125
188	1150
189	2653
190	365
199	194
200	335
201	2170
202	1083
203	1116
204	631
211	160
212	152
213	290
214	276
215	678
216	671
217	5447
218	4020
219	531
227	341
229	689
230	637
231	254
243	1116
245	9999
246	1883
247	179
258	289
259	1286
260	7461
261	1202
262	126
