Mass Spectrum: 3-Heptyn-1-ol
Formula: C7 H12 O
CAS: 14916-79-1
Molecular weight: 112
Origin: Japan AIST/NIMC Database- Spectrum MS-NW-2218
m/z	RELATIVE INTENSITY
14	10
15	60
17	60
18	309
26	159
27	1559
28	149
29	879
30	30
31	1889
32	20
37	80
38	179
39	1819
40	519
41	3019
42	599
43	539
44	109
45	70
49	40
50	369
51	749
52	799
53	3209
54	2829
55	1389
56	219
57	209
58	50
60	10
61	40
62	99
63	199
64	50
65	939
66	629
67	9999
68	669
69	459
70	249
71	109
72	10
73	10
74	40
75	30
77	899
78	129
79	1759
80	179
81	1149
82	1559
83	469
84	469
85	30
91	169
92	20
93	169
94	189
95	50
96	20
97	349
98	20
99	10
110	40
111	60
112	859
113	60
