Mass Spectrum: 3-Octyn-1-ol
Formula: C8 H14 O
CAS: 14916-80-4
Molecular weight: 126
Origin: Japan AIST/NIMC Database- Spectrum MS-NW-3397
m/z	RELATIVE INTENSITY
14	10
15	139
17	20
18	70
25	10
26	239
27	3419
28	169
29	1359
30	70
31	2839
32	40
33	10
36	10
37	119
38	309
39	3369
40	909
41	5769
42	879
43	1869
44	249
45	499
46	20
49	50
50	579
51	1379
52	1619
53	5199
54	9999
55	5439
56	1559
57	489
58	90
59	70
60	20
61	80
62	179
63	459
64	109
65	1699
66	1549
67	5109
68	1199
69	3119
70	389
71	189
72	30
73	40
74	70
75	169
76	30
77	1659
78	339
79	2239
80	609
81	3259
82	1569
83	2159
84	6049
85	459
86	40
87	10
89	20
90	10
91	729
92	90
93	2149
94	269
95	2049
96	339
97	1249
98	219
99	80
100	10
103	10
105	60
106	10
107	139
108	159
109	80
110	20
111	379
112	60
113	10
121	30
122	10
123	10
124	10
125	50
126	169
127	20
