Mass Spectrum: Methyl 2-chloro-octanoate
Formula: C9 H17 Cl O2
CAS: 14925-42-9
Molecular weight: 192
Origin: I.Korhonen, Org.Mass Spectrom. 23, 729 (1988)
m/z	RELATIVE INTENSITY
39	1001
40	100
41	3273
42	1161
43	3133
44	651
45	100
49	70
51	70
52	50
53	420
54	130
55	4164
56	340
57	871
58	70
59	2742
61	70
62	100
67	500
68	100
69	681
70	260
71	440
72	70
73	70
74	500
75	100
76	420
77	70
78	130
79	70
81	440
82	230
83	360
85	230
86	70
87	2112
88	180
89	100
91	100
93	70
95	470
96	150
97	731
98	100
99	70
100	70
101	130
103	100
105	70
106	70
108	9999
109	500
110	3373
111	180
113	581
115	1501
116	100
118	100
121	1371
122	70
123	500
125	100
127	130
129	811
130	130
135	100
137	70
141	100
149	130
151	100
156	70
157	1211
158	130
161	70
163	1181
164	100
165	340
166	130
177	100
179	30
192	130
194	40
