Mass Spectrum: 4-Nitrophenylglyoxylic acid
Formula: C8 H5 N O5
CAS: 14922-36-2
Molecular weight: 195
Origin: NIST Mass Spectrometry Data Center, 1994
m/z	RELATIVE INTENSITY
15	95
26	80
27	1030
29	2106
30	1301
37	255
38	386
39	985
43	66
45	216
46	307
49	307
50	4073
51	1277
52	66
53	436
61	216
62	302
63	678
64	754
65	3079
66	221
73	420
74	1277
75	2222
76	4085
77	734
81	489
91	192
92	2566
93	423
104	3470
105	371
109	714
120	1302
121	919
134	467
137	566
150	9999
151	1212
167	1492
177	205
178	288
