Mass Spectrum: Phenyl-pentamethyl-disiloxane
Formula: C11 H20 O Si2
CAS: 14920-92-4
Molecular weight: 224
Origin: ASES Database, Dalian Institute, P.R. China
m/z	RELATIVE INTENSITY
73	1010
89	100
90	480
97	1481
98	90
105	290
135	1301
136	190
137	100
193	1201
194	200
195	200
209	9999
210	2312
211	990
