Mass Spectrum: Butanoic acid, 2-amino-, (S)-
Formula: C4 H9 N O2
CAS: 1492-24-6
Molecular weight: 103
Origin: Japan AIST/NIMC Database- Spectrum MS-IW-4306
m/z	RELATIVE INTENSITY
14	20
15	129
16	30
17	179
18	419
24	10
25	30
26	319
27	849
28	4129
29	759
30	829
31	30
32	20
34	10
36	10
37	70
38	119
39	539
40	359
41	3789
42	559
43	689
44	539
45	189
46	289
47	10
50	30
51	119
52	229
53	159
54	839
55	289
56	1629
57	589
58	9999
59	599
60	30
63	10
64	10
65	10
66	40
67	149
68	80
69	80
70	119
71	40
72	10
73	10
74	3389
75	109
76	20
77	10
78	10
79	10
80	10
81	20
82	10
83	30
84	20
85	99
86	40
87	20
88	10
95	20
96	10
97	30
98	10
99	10
101	10
102	10
103	10
104	80
105	10
