Mass Spectrum: Bis(dimethylamino)methylphosphine
Formula: C5 H15 N2 P
CAS: 14937-39-4
Molecular weight: 134
Origin: CBDCOM/ERDEC, Edgewood, MD
m/z	RELATIVE INTENSITY
15	1471
27	360
28	1791
30	790
33	40
39	30
40	290
41	540
42	6295
43	1291
44	9999
45	2992
46	360
47	890
48	20
49	20
57	60
58	730
59	360
61	360
62	590
63	2292
67	170
72	30
73	40
74	730
75	290
76	9999
77	140
88	60
89	1090
90	9498
91	640
92	320
106	740
107	170
119	7797
120	440
122	60
123	30
134	440
135	30
