Mass Spectrum: Methanethiol, trifluoro-
Formula: C H F3 S
CAS: 1493-15-8
Molecular weight: 102
m/z	RELATIVE INTENSITY
12	651
13	20
19	260
20	480
31	1651
32	2182
33	2122
34	120
35	180
41	30
44	530
45	60
46	30
47	10
48	10
50	791
51	260
52	50
53	10
63	4504
64	100
65	210
69	9999
70	110
77	10
78	10
82	4414
83	1912
84	230
85	250
101	100
102	9669
103	160
104	380
