Mass Spectrum: Phenol, 4-pentyl-
Formula: C11 H16 O
CAS: 14938-35-3
Molecular weight: 164
Origin: Japan AIST/NIMC Database- Spectrum MS-NW-5224
m/z	RELATIVE INTENSITY
14	80
15	10
26	30
27	339
28	119
29	239
38	40
39	349
40	40
41	289
42	20
43	40
44	10
50	50
51	199
52	109
53	159
54	10
55	109
56	10
57	30
62	20
63	90
64	30
65	159
66	50
67	30
68	20
69	20
74	10
75	20
76	10
77	809
78	219
79	149
80	20
81	50
82	20
89	30
90	20
91	139
92	20
93	40
94	149
95	30
96	20
102	10
103	70
104	10
105	40
106	30
107	9999
108	859
109	60
115	20
118	10
119	40
120	70
121	70
122	10
131	30
132	10
133	40
134	10
135	10
164	1579
165	219
166	20
