Mass Spectrum: 4-Hydroxybutanoic acid, 2TBDMS derivative
Formula: C16 H36 O3 Si2
CAS: 149357-72-2
Molecular weight: 332
Origin: J.M. Halket, Trace Anal. Unit (TAU), London, UK
m/z	RELATIVE INTENSITY
39	280
40	30
41	1690
42	210
43	410
44	90
45	930
46	60
47	580
48	20
53	20
55	200
56	260
57	890
58	560
59	1300
60	190
61	330
62	10
66	240
67	20
68	30
69	650
70	50
71	150
73	8290
74	790
75	4650
76	310
77	200
81	40
83	50
85	380
86	80
87	140
88	250
89	190
97	40
99	620
100	100
101	500
102	80
103	130
104	30
105	60
109	540
113	20
114	20
115	480
116	190
117	360
118	60
119	240
120	20
129	620
130	80
131	170
133	1720
134	220
135	160
143	2570
144	300
145	170
147	9999
148	1650
149	1020
150	110
151	40
159	70
161	170
162	30
171	40
175	20
185	270
186	40
189	390
190	140
191	50
201	210
202	20
203	30
233	40
259	50
272	10
273	10
275	4090
276	1020
277	390
278	70
281	10
317	190
318	50
