Mass Spectrum: Iron, tricarbonylbis(trimethyl phosphite-P)-
Formula: C9 H18 Fe O9 P2
CAS: 14949-85-0
Molecular weight: 388
Origin: D.HENNEBERG, MAX-PLANCK INSTITUTE, MULHEIM, WEST GERMANY
m/z	RELATIVE INTENSITY
26	266
28	9999
29	775
30	505
31	369
32	235
33	27
34	8
37	4
38	6
39	26
40	27
41	28
42	13
43	11
44	114
45	328
46	14
47	619
48	72
49	42
50	26
51	20
52	12
53	4
54	6
55	13
56	13
59	4
61	29
62	227
63	2186
64	26
65	16
66	4
67	6
69	6
70	3
71	17
75	6
76	12
77	93
78	48
79	726
80	24
81	18
82	5
83	4
85	4
87	14
88	4
91	25
92	41
93	5514
94	1203
95	61
96	7
97	9
100	7
103	12
104	14
107	7
108	13
109	2040
110	55
111	11
115	8
116	3
117	17
119	56
120	17
121	3
123	5
124	1661
125	59
126	12
128	4
129	6
133	58
134	35
135	619
136	24
139	7
146	3
147	6
148	8
149	61
150	75
151	111
152	40
153	8
154	18
155	13
157	3
163	91
164	48
165	1124
166	66
167	25
168	3
177	11
178	39
179	154
180	616
181	2228
182	132
183	39
184	5
185	7
186	5
191	4
193	18
194	3
195	141
196	15
197	50
198	11
199	5
201	3
202	7
205	5
206	12
207	5
208	186
209	530
210	270
211	7738
212	535
213	215
214	11
215	8
225	31
226	14
227	12
228	25
229	8
239	4
240	4
241	45
242	28
243	441
244	34
245	5
256	20
257	9
258	283
259	72
260	6
261	5
262	22
263	7
270	9
271	46
272	21
273	593
274	165
275	25
276	4
277	4
287	53
288	7
289	808
290	61
291	18
298	5
299	23
300	5
301	298
302	617
303	166
304	9800
305	861
306	166
307	14
318	15
327	36
329	242
330	85
331	19
332	908
333	97
334	26
355	38
356	5
357	608
358	156
359	21
360	1054
361	128
362	29
363	4
386	59
387	5
388	927
389	117
390	23
