Mass Spectrum: cis-7-Dodecen-1-yl acetate
Formula: C14 H26 O2
CAS: 14959-86-5
Molecular weight: 226
Origin: J. Klune, Insect Chem. Ecol. Lab., USDA, Beltsville, MD 20705
m/z	RELATIVE INTENSITY
41	4980
42	911
43	9999
44	270
45	66
47	64
48	32
52	68
53	813
54	2775
55	4714
56	639
57	554
58	49
59	18
60	6
61	585
62	14
63	18
65	273
66	506
67	5484
68	2680
69	2041
70	292
71	431
72	40
73	192
75	16
77	187
78	48
79	643
80	564
81	7262
82	5665
83	1960
84	321
85	345
86	104
87	33
88	17
89	42
91	139
92	10
93	230
94	354
95	4885
96	5180
97	2274
98	239
99	87
100	18
101	201
102	14
103	14
105	30
106	13
107	84
108	58
109	3612
110	2970
111	1537
112	150
113	42
114	36
115	32
119	10
120	14
121	61
122	125
123	1495
124	1082
125	427
126	50
127	25
128	16
129	14
135	50
136	72
137	865
138	931
139	152
140	17
141	15
149	35
150	21
151	215
152	65
153	34
155	16
156	4
163	39
164	141
165	975
166	6226
167	2336
168	244
169	28
170	8
173	14
177	24
178	9
179	53
180	31
181	44
182	15
183	96
184	24
185	78
186	12
223	21
224	169
225	221
226	5389
227	827
228	82
