Mass Spectrum: tri-n-Propylphosphine oxide
Formula: C9 H21 O P
CAS: 1496-94-2
Molecular weight: 176
Origin: H. Keck, Inst. Inorg. Struct. Chem., Heinrich-Heine Univ., Dusseldorf, Ger.
m/z	RELATIVE INTENSITY
39	1170
40	970
41	4270
42	780
43	4170
45	680
47	1360
48	390
49	1360
63	4270
64	2620
72	390
73	1940
75	580
76	390
77	350
78	8250
89	380
91	1070
92	7090
93	390
106	9999
107	680
108	490
109	390
119	1360
120	1260
133	4270
134	8540
135	780
161	4370
162	490
175	290
176	1750
177	290
