Mass Spectrum: Benzene, 1-fluoro-3-(phenylmethyl)-
Formula: C13 H11 F
CAS: 1496-00-0
Molecular weight: 186
Origin: D.HENNEBERG, MAX-PLANCK INSTITUTE, MULHEIM, WEST GERMANY
m/z	RELATIVE INTENSITY
24	8
25	8
26	51
27	323
30	5
31	116
32	11
33	56
34	11
35	17
36	11
37	85
38	186
39	1743
40	128
41	249
42	30
43	28
44	29
45	48
46	24
47	25
48	22
49	69
50	710
51	1465
52	204
53	59
54	22
55	20
56	56
57	769
58	53
59	157
60	36
61	127
62	406
63	1175
64	243
65	1354
67	58
68	121
69	272
70	289
71	39
72	64
73	95
74	372
75	511
76	215
77	275
79	112
80	258
81	580
82	871
83	1383
84	85
85	239
86	141
87	179
88	121
89	818
90	672
91	3349
92	990
93	414
94	99
95	119
96	94
97	32
98	65
99	84
100	45
101	71
102	61
103	31
104	24
105	78
106	76
107	591
108	318
109	1900
110	190
111	47
113	65
114	40
115	193
116	54
118	22
119	21
120	122
121	39
122	33
123	31
124	16
125	90
126	86
127	51
128	52
129	29
131	96
132	81
133	644
134	97
136	29
137	45
138	50
139	180
140	54
141	52
143	50
144	157
145	239
146	540
147	252
148	177
149	159
150	83
151	107
152	294
153	227
154	100
157	410
158	154
159	305
160	159
161	108
162	132
163	338
164	357
165	3085
166	881
167	380
168	142
169	148
170	944
171	1098
172	186
174	36
176	89
177	87
178	214
179	310
180	442
181	521
182	529
183	2906
184	1547
185	7001
186	9999
187	1362
188	130
189	14
