Mass Spectrum: Molybdenum, pentacarbonyl(hexamethylphosphorous triamide-P)-, (OC-6-22)-
Formula: C11 H18 Mo N3 O5 P
CAS: 14971-43-8
Molecular weight: 401
Origin: F.E.SAALFELD, NAVAL RESEARCH LAB., WASHINGTON, D.C., USA
m/z	RELATIVE INTENSITY
60	1300
76	9999
98	250
119	9900
141	350
163	1000
171	500
184	600
215	2400
218	350
245	300
261	5000
273	350
289	150
301	200
317	450
329	250
345	250
357	250
373	800
401	1600
