Mass Spectrum: Ethyl dichlorophosphate
Formula: C2 H5 Cl2 O2 P
CAS: 1498-51-7
Molecular weight: 162
Origin: A.A.Kutin, Moscow, Russia
m/z	RELATIVE INTENSITY
24	881
26	921
27	2402
29	2402
31	220
36	520
42	280
43	731
44	230
45	3563
47	1091
49	200
63	340
64	420
65	150
66	150
79	290
83	400
91	500
99	3013
101	921
104	290
109	260
117	2172
118	861
119	1471
120	561
121	320
127	1041
129	270
134	330
135	9999
136	200
137	6356
139	1041
147	2492
149	1551
151	170
161	260
163	150
