Mass Spectrum: Carbamic acid, (2-methylphenyl)-, methyl ester
Formula: C9 H11 N O2
CAS: 14983-92-7
Molecular weight: 165
Origin: C. WUNSCHE
m/z	RELATIVE INTENSITY
15	1200
26	90
27	410
28	280
29	130
30	320
31	70
38	120
39	690
40	120
41	190
42	90
44	120
50	2500
51	750
52	550
53	350
54	100
59	1100
62	80
63	3100
64	160
65	7500
66	150
67	70
74	50
75	90
76	150
77	2300
78	1300
79	4400
80	200
89	210
90	150
91	1500
92	190
93	120
102	50
103	110
104	1500
105	2000
106	7600
107	1000
108	400
118	70
120	1100
121	140
122	50
132	1400
133	5000
134	1100
135	110
148	50
149	180
150	130
164	130
165	9999
166	1040
167	90
