Mass Spectrum: Bifenazate
Formula: C17 H20 N2 O3
CAS: 149877-41-8
Molecular weight: 300
Origin: NIST Mass Spectrometry Data Center
m/z	RELATIVE INTENSITY
14	10
15	120
16	10
19	20
26	50
27	971
28	150
29	210
30	991
31	130
33	10
36	10
37	30
38	70
39	731
40	110
41	2702
42	330
43	7937
44	410
45	550
46	20
50	230
51	731
52	310
53	380
54	70
55	70
56	20
57	40
58	50
59	100
61	30
62	260
63	751
64	240
65	340
66	50
67	30
68	30
69	60
70	80
71	30
72	20
73	10
74	220
75	450
76	661
77	1261
78	370
79	80
80	20
81	10
82	30
83	230
84	70
86	120
87	220
88	230
89	510
90	90
91	290
92	120
93	70
94	10
98	200
99	170
100	120
101	430
102	5435
103	661
104	90
105	60
106	10
107	50
108	10
110	20
111	40
112	20
113	340
114	320
115	2793
116	410
117	90
118	30
119	10
120	20
122	20
123	10
124	10
125	180
126	861
127	3303
128	3143
129	540
130	110
131	30
132	10
137	70
138	130
139	2442
140	911
141	2362
142	440
143	130
144	80
145	10
147	10
149	30
150	410
151	1311
152	7767
153	3423
154	1782
155	691
156	2873
157	440
158	20
164	50
165	110
166	410
167	1501
168	1321
169	2012
170	3663
171	791
172	80
173	10
177	10
178	20
179	20
180	50
181	130
182	1611
183	480
184	4204
185	611
186	70
187	10
192	10
193	20
194	30
196	9048
197	4254
198	2412
199	9999
200	1401
201	120
202	10
209	20
210	20
211	180
212	50
213	2732
214	2382
215	330
216	30
225	50
226	20
239	10
240	150
241	50
242	10
243	10
252	10
255	10
256	20
258	8838
259	1371
260	160
261	10
285	10
294	10
295	10
298	10
300	9318
301	1772
302	230
303	20
