Mass Spectrum: Allylphosphonic dichloride
Formula: C3 H5 Cl2 O P
CAS: 1498-47-1
Molecular weight: 158
Origin: ALPHA Chemicals / NIST MS Data Center.
m/z	RELATIVE INTENSITY
12	15
13	32
14	50
15	118
17	6
18	3
25	35
26	155
27	316
28	263
29	84
31	95
32	31
33	25
35	122
36	53
37	366
38	890
39	4833
40	25
41	9999
42	288
44	59
45	95
47	1481
48	49
49	68
51	14
53	13
55	43
56	69
57	88
58	29
61	14
66	152
67	54
68	159
69	86
70	18
71	19
75	118
76	87
77	49
78	36
79	31
80	15
82	133
83	246
84	44
85	69
86	44
87	167
88	17
93	15
94	15
96	79
97	185
98	33
99	58
101	119
102	30
103	77
104	27
105	16
115	11
117	221
118	126
119	166
120	84
121	45
122	51
123	327
124	22
125	103
128	20
130	865
132	1281
134	535
135	15
136	82
158	687
160	390
161	30
162	74
