Mass Spectrum: N-Benzoylglycine ethyl ester
Formula: C11 H13 N O3
CAS: 1499-53-2
Molecular weight: 207
Origin: L. Tsai, LB, NHLBI, NIH, Bethesda, MD 20892
m/z	RELATIVE INTENSITY
41	15
42	52
43	80
44	24
45	44
50	296
51	930
52	78
53	25
56	54
57	34
63	23
65	28
67	6
74	116
75	94
76	230
77	3169
78	248
79	30
82	16
91	50
93	33
103	28
105	9999
106	795
107	56
108	16
110	21
120	36
132	18
134	2843
135	314
136	49
148	38
149	7
161	625
162	456
163	48
166	71
180	23
189	7
190	24
194	69
207	2219
208	301
209	30
