Mass Spectrum: Urea, N'-(4-chlorophenyl)-N,N-dimethyl-
Formula: C9 H11 Cl N2 O
CAS: 150-68-5
Molecular weight: 198
Origin: Japan AIST/NIMC Database- Spectrum MS-NW-1946
m/z	RELATIVE INTENSITY
15	349
26	10
27	40
28	20
29	20
30	50
36	10
37	60
38	90
39	129
40	40
41	40
42	359
43	129
44	1079
45	509
46	10
47	10
49	20
50	99
51	60
52	40
56	139
57	10
58	10
60	10
61	50
62	109
63	289
64	139
65	50
69	10
71	30
72	9999
73	389
74	70
75	169
76	40
77	20
78	10
81	30
85	20
86	10
87	10
88	20
89	70
90	339
91	70
92	20
97	10
98	40
99	219
100	30
101	70
102	10
111	90
112	10
113	30
119	10
120	10
124	10
125	419
126	159
127	199
128	70
129	20
133	20
140	80
141	10
142	40
146	40
147	20
153	949
154	109
155	319
156	30
161	10
162	90
163	30
164	10
183	20
197	30
198	2349
199	259
200	769
201	80
