Mass Spectrum: 1,2-Dianilinoethane
Formula: C14 H16 N2
CAS: 150-61-8
Molecular weight: 212
Origin: NIST Mass Spectrometry Data Center
m/z	RELATIVE INTENSITY
15	20
18	40
26	40
27	220
28	280
29	50
30	210
37	50
38	170
39	661
40	110
41	100
42	70
44	10
50	380
51	1541
52	320
53	100
54	50
61	20
62	60
63	200
64	160
65	470
66	200
67	40
74	100
75	100
77	3363
78	661
79	1221
80	110
89	50
90	70
91	330
92	120
93	240
94	30
102	20
104	721
106	9999
107	5875
108	470
116	20
117	90
118	240
119	110
120	40
135	10
207	110
208	80
209	20
210	20
212	1381
213	190
