Mass Spectrum: Tetrahydrofurfuryl oleate
Formula: C23 H42 O3
CAS: 150-81-2
Molecular weight: 366
Origin: H. Fales, LC, NHLBI, NIH, Bethesda, MD 20892
m/z	RELATIVE INTENSITY
41	1975
42	554
43	3600
44	139
45	70
49	81
51	18
53	185
54	588
55	2620
56	553
57	1354
58	76
59	54
60	72
65	72
66	81
67	1536
68	560
69	1407
70	640
71	9999
72	422
73	125
74	90
77	69
78	36
79	358
80	268
81	1126
82	896
83	1261
84	3589
85	4336
86	288
87	126
91	140
92	51
93	223
94	232
95	868
96	732
97	813
98	1755
99	269
100	580
101	170
102	12
103	249
105	72
106	40
107	156
108	205
109	486
110	443
111	427
112	701
113	144
114	73
115	48
119	94
120	56
121	205
122	131
123	396
124	268
125	183
126	169
127	90
129	54
133	114
134	90
135	189
136	99
137	494
138	267
139	137
140	83
141	77
142	68
143	25
144	384
145	62
147	82
148	76
149	113
150	99
151	408
152	341
153	123
154	78
155	225
156	28
157	372
158	52
161	63
162	41
163	72
164	83
165	224
166	285
167	111
168	59
169	105
171	98
175	39
177	68
178	48
179	120
180	192
181	93
182	54
183	119
185	44
191	41
192	40
193	107
194	74
195	62
196	13
197	61
199	54
206	13
207	158
208	94
209	95
210	38
211	118
213	111
214	54
220	61
221	224
222	99
223	66
225	38
227	50
228	53
229	12
234	39
235	123
236	213
237	88
239	71
241	46
246	66
249	55
250	58
251	39
253	59
255	60
256	42
257	102
262	191
263	97
264	2077
265	652
266	101
267	73
269	79
270	55
277	12
278	51
279	52
280	49
281	61
282	47
283	123
284	89
285	24
292	23
295	42
297	58
298	40
309	69
311	31
323	85
337	26
338	72
339	31
364	54
365	83
366	978
367	444
368	95
