Mass Spectrum: 3,4-Dimethoxybenzylideneacetone
Formula: C12 H14 O3
CAS: 15001-27-1
Molecular weight: 206
Origin: NIST Mass Spectrometry Data Center
m/z	RELATIVE INTENSITY
12	30
13	30
15	2122
16	50
17	40
18	70
19	10
26	50
27	160
28	100
29	190
30	50
32	10
36	10
37	60
38	230
39	591
40	60
41	130
43	2823
44	80
45	30
46	30
50	811
51	1692
52	210
53	350
54	50
55	200
56	10
57	40
60	30
61	120
62	390
63	901
64	220
65	460
66	150
67	40
68	10
69	40
73	60
74	300
75	330
76	621
77	1371
78	330
79	791
80	60
81	30
82	50
85	30
86	80
87	120
88	200
89	1011
90	350
91	1041
92	310
93	50
94	60
95	210
97	10
98	40
100	10
101	110
102	530
103	681
104	210
105	891
106	140
107	270
108	30
109	20
115	200
116	90
117	370
118	591
119	701
120	450
121	160
122	40
123	10
127	20
129	50
130	140
131	350
132	821
133	751
134	110
135	300
136	40
137	10
143	20
145	250
146	300
147	581
148	1201
149	160
150	20
157	10
158	30
159	80
160	550
161	170
163	2042
164	220
165	30
172	10
173	20
175	1882
176	520
177	80
178	30
189	110
191	9999
192	1151
193	120
194	10
205	1501
206	4874
207	711
208	70
