Mass Spectrum: Pyridine, 2-nitro-
Formula: C5 H4 N2 O2
CAS: 15009-91-3
Molecular weight: 124
Origin: A.A.Kutin, Moscow, Russia
m/z	RELATIVE INTENSITY
34	29
36	64
37	270
38	459
39	684
40	1162
41	254
42	119
43	270
44	528
45	22
46	540
48	41
49	359
50	1441
51	5212
52	1740
53	224
54	15
55	246
56	74
57	256
62	31
63	89
64	129
66	631
67	170
69	83
70	191
71	98
73	26
75	418
76	499
77	279
78	9999
79	605
80	34
81	76
82	72
83	126
84	77
85	36
86	22
92	41
94	739
95	113
97	34
98	15
105	91
106	29
107	12
110	29
111	113
119	34
122	28
124	363
125	31
