Mass Spectrum: Cyclododecene
Formula: C12 H22
CAS: 1501-82-2
Molecular weight: 166
Origin: Japan AIST/NIMC Database- Spectrum MS-NW-2817
m/z	RELATIVE INTENSITY
14	40
15	80
16	10
26	90
27	1979
28	199
29	2139
30	50
36	10
37	10
38	80
39	2839
40	539
41	8629
42	1459
43	2119
44	70
50	99
51	289
52	189
53	1599
54	7689
55	9759
56	2069
57	1209
58	60
62	20
63	80
64	20
65	429
66	789
67	9999
68	5359
69	5039
70	1229
71	269
72	10
74	10
75	10
76	10
77	389
78	129
79	949
80	749
81	7829
82	9029
83	4199
84	739
85	159
86	10
89	10
91	229
92	60
93	349
94	439
95	5389
96	6819
97	2009
98	409
99	40
103	20
104	70
105	70
106	30
107	149
108	169
109	3339
110	1529
111	459
112	159
113	10
115	30
116	10
117	60
118	20
119	50
120	30
121	209
122	90
123	1059
124	699
125	169
126	60
127	10
128	10
129	20
130	20
131	40
132	10
133	50
134	40
135	80
136	60
137	379
138	649
139	99
140	119
141	10
145	10
147	20
149	20
151	40
157	10
158	30
160	60
161	10
162	60
164	60
165	10
166	3629
167	499
168	209
169	20
