Mass Spectrum: Cyclododecylamine
Formula: C12 H25 N
CAS: 1502-03-0
Molecular weight: 183
Origin: NIST Mass Spectrometry Data Center, 1992
m/z	RELATIVE INTENSITY
15	103
26	64
27	752
28	169
29	1194
30	2188
31	45
37	7
39	742
40	201
41	2224
42	950
43	2515
44	388
45	56
46	4
47	3
48	9
50	7
51	40
52	33
53	229
54	263
55	1333
56	9999
57	777
58	60
59	8
63	6
65	59
66	61
67	485
68	196
69	271
70	989
71	69
72	18
73	6
77	44
78	13
79	79
80	56
81	362
82	454
83	127
84	478
85	50
86	31
87	4
91	16
92	4
93	20
94	28
95	185
96	353
97	96
98	473
99	70
100	15
105	2
106	2
107	5
108	14
109	90
110	104
111	2
112	1196
113	124
114	11
121	4
122	11
123	58
124	57
125	4
126	452
127	44
128	6
136	5
137	37
138	55
139	5
140	744
141	85
142	9
152	4
154	196
155	26
166	265
167	35
168	16
182	72
183	135
184	26
