Mass Spectrum: Cyclooctane, methyl-
Formula: C9 H18
CAS: 1502-38-1
Molecular weight: 126
Origin: NIST Mass Spectrometry Data Center, 1990.
m/z	RELATIVE INTENSITY
15	161
26	214
27	2137
28	1162
29	1860
39	4122
40	997
41	8783
42	3142
43	2213
44	154
50	164
51	422
52	214
53	1335
54	1073
55	9999
56	7167
57	1677
65	294
66	183
67	1705
68	2113
69	8410
70	5080
71	676
77	228
79	302
81	477
82	1696
83	3418
84	2097
85	307
96	738
97	3580
98	1673
111	4447
112	425
126	710
