Mass Spectrum: Diallyl carbonate
Formula: C7 H10 O3
CAS: 15022-08-9
Molecular weight: 142
Origin: NIST Mass Spectrometry Data Center, 1990.
m/z	RELATIVE INTENSITY
14	68
15	278
16	21
18	45
26	550
27	1286
28	699
29	2309
30	148
31	444
37	139
38	484
39	3477
40	882
41	9999
42	941
43	165
44	174
45	83
53	48
54	312
55	367
56	48
57	4658
58	174
59	21
67	34
68	18
69	147
70	35
79	64
80	84
83	74
101	127
