Mass Spectrum: Cyclohexanol, 2,3-dimethyl-
Formula: C8 H16 O
CAS: 1502-24-5
Molecular weight: 128
Origin: NIST Mass Spectrometry Data Center, 1994
m/z	RELATIVE INTENSITY
15	282
26	215
27	2320
28	891
29	2783
30	253
31	690
32	17
39	2829
40	672
41	5493
42	1566
43	4497
44	1519
45	868
50	159
51	390
52	176
53	1243
54	880
55	4760
56	2327
57	5786
58	2048
59	185
63	85
65	305
66	345
67	2954
68	2015
69	3610
70	1818
71	1712
72	352
73	301
77	257
78	48
79	380
80	48
81	5911
82	4157
83	909
84	815
85	4024
86	293
91	117
93	192
95	9999
96	757
97	272
98	65
99	409
100	134
110	6343
111	648
113	125
126	83
127	66
128	138
