Mass Spectrum: 2-(1-Cyclohexenyl)cyclohexanone
Formula: C12 H18 O
CAS: 1502-22-3
Molecular weight: 178
Origin: Japan AIST/NIMC Database- Spectrum MS-NW-9677
m/z	RELATIVE INTENSITY
26	10
27	259
28	80
29	209
38	10
39	479
40	99
41	1009
42	119
43	159
44	10
45	10
50	40
51	179
52	129
53	439
54	289
55	819
56	60
57	80
58	30
59	30
60	30
61	10
62	10
63	60
64	30
65	369
66	239
67	2409
68	619
69	539
70	159
71	30
73	10
74	10
75	10
76	10
77	859
78	349
79	2849
80	1359
81	2969
82	689
83	439
84	179
85	30
89	20
91	1699
92	1479
93	1619
94	749
95	729
96	249
97	419
98	1239
99	279
100	20
102	10
103	80
104	139
105	579
106	369
107	1309
108	499
109	459
110	159
111	90
112	10
115	90
116	30
117	299
118	90
119	719
120	199
121	1229
122	409
123	119
124	70
125	10
127	10
128	40
129	60
130	40
131	339
132	129
133	129
134	829
135	2829
136	569
137	129
138	10
141	10
143	20
144	30
145	159
146	80
147	90
148	269
149	9999
150	1439
151	119
152	20
153	20
154	30
155	10
157	10
158	30
159	50
160	159
161	40
162	20
163	149
164	20
172	20
173	60
174	129
175	70
176	199
177	359
178	5949
179	879
180	70
