Mass Spectrum: Iron, hexacarbonylbis[.mu.-(diphenylphosphino)]di-
Formula: C30 H20 Fe2 O6 P2
CAS: 15024-71-2
Molecular weight: 650
Origin: B.F.G.JOHNSON DEPT. OF CHEM., UNIV. OF MANCHESTER, UK
m/z	RELATIVE INTENSITY
56	1200
112	400
143	700
174	2600
241	2100
255	200
269	100
272	3000
283	200
328	7500
348	100
482	8400
510	9999
538	800
566	900
594	600
622	4200
650	600
