Mass Spectrum: Furan, tetrahydro-2,2,5,5-tetramethyl-
Formula: C8 H16 O
CAS: 15045-43-9
Molecular weight: 128
m/z	RELATIVE INTENSITY
14	120
15	1141
26	140
27	1341
28	270
29	881
31	190
38	90
39	1271
40	180
41	1471
42	1081
43	9999
44	190
45	80
51	100
53	300
55	3663
56	220
57	110
58	70
59	1551
67	200
69	220
70	3553
71	260
83	40
95	1251
113	3033
114	230
