Mass Spectrum: 2-Methyl-3-phenyl-2-propen-1-ol
Formula: C10 H12 O
CAS: 1504-55-8
Molecular weight: 148
Origin: James Little,Eastman Chem.Co.,Kingsport,TN
m/z	RELATIVE INTENSITY
27	2923
29	2542
31	7807
39	2823
43	2712
45	2783
46	1291
50	1291
51	2732
55	1942
62	801
63	1872
64	520
65	1942
74	540
75	550
76	480
77	2362
78	3403
79	1992
89	1171
91	9999
92	2682
102	561
103	971
104	601
105	3523
106	440
115	5105
116	1171
117	2032
128	781
129	1431
130	631
131	761
132	751
133	1842
145	270
146	190
147	631
148	3763
149	440
150	150
