Mass Spectrum: 2-Chloro-3-methylbenzoic acid
Formula: C8 H7 Cl O2
CAS: 15068-35-6
Molecular weight: 170
Origin: NIST Mass Spectrometry Data Center, 1994
m/z	RELATIVE INTENSITY
14	72
15	178
17	92
18	94
26	417
27	755
28	187
29	223
35	107
36	257
37	772
38	1155
39	3181
40	252
41	188
42	107
43	868
44	981
45	2198
46	57
47	107
48	68
49	636
50	1506
51	1987
52	503
53	564
55	125
59	446
60	238
61	1100
62	2906
63	5909
64	1100
65	842
66	150
67	137
71	52
72	313
73	1181
74	812
75	1024
76	634
77	2617
78	743
79	846
80	54
84	380
85	570
86	817
87	741
88	52
89	6756
90	2353
91	4090
92	526
96	112
97	386
99	1542
100	120
101	481
102	41
105	792
106	342
107	800
108	99
110	57
111	60
113	55
116	333
117	134
118	66
119	90
123	225
124	1047
125	6628
126	930
127	2278
128	190
133	345
135	5717
136	535
137	66
141	80
142	177
144	48
153	9076
154	1026
155	2864
156	291
170	9999
171	1108
172	3272
173	325
