Mass Spectrum: Tropicamide
Formula: C17 H20 N2 O2
CAS: 1508-75-4
Molecular weight: 284
Origin: Patti Price, Georgia Bureau of Investigation, Decatur, Georgia
m/z	RELATIVE INTENSITY
42	20
43	10
44	410
49	10
50	60
51	240
52	140
53	60
54	30
56	60
57	10
58	180
62	20
63	120
64	90
65	1181
66	130
67	30
68	10
70	70
71	10
72	20
73	10
75	20
76	10
77	710
78	230
79	310
80	140
85	10
86	10
87	10
88	10
89	310
90	500
91	1491
92	9999
93	1541
94	130
96	10
98	10
101	10
102	40
103	1451
104	1050
105	230
106	150
107	530
108	80
109	10
111	10
116	10
117	30
118	440
119	160
120	200
121	1010
122	80
123	10
127	10
128	10
129	10
130	10
131	270
132	130
133	110
134	50
135	510
136	60
137	70
138	10
143	10
144	10
145	10
146	20
147	30
148	30
149	90
150	10
151	10
152	10
160	10
161	10
162	90
163	1681
164	140
165	30
166	10
167	10
168	80
169	20
170	10
174	20
175	10
176	10
179	10
180	30
181	10
182	70
183	90
184	10
188	10
189	30
191	10
192	40
193	10
194	20
195	20
196	10
197	10
207	10
209	10
225	120
226	20
251	70
252	10
253	80
254	3483
255	620
256	60
265	130
266	560
267	110
268	10
281	10
282	10
283	10
284	40
285	10
