Mass Spectrum: Methyl 3,5-dibromo-2,4-dimethoxy-6-methylbenzoate
Formula: C11 H12 Br2 O4
CAS: 150965-73-4
Molecular weight: 366
Origin: NIST Mass Spectrometry Data Center, 1994
m/z	RELATIVE INTENSITY
12	47
15	4734
16	123
17	293
18	957
27	231
28	569
29	766
30	179
31	148
32	105
37	170
38	230
39	838
40	80
43	273
44	124
45	1047
50	499
51	650
52	122
53	250
59	641
61	276
62	617
63	1088
64	205
65	236
66	184
67	586
68	58
69	69
73	173
74	700
75	875
76	471
77	577
78	372
79	243
80	92
81	101
83	119
85	79
86	108
87	164
88	173
89	479
90	439
91	1203
92	231
93	110
101	66
102	56
103	106
104	106
105	166
106	67
107	145
115	50
117	187
118	108
119	232
120	93
121	99
128	140
129	153
130	118
131	254
132	68
133	200
134	81
135	70
137	79
140	59
141	230
142	205
143	259
144	219
145	168
147	183
148	136
149	138
153	74
154	148
155	381
156	176
157	363
158	118
159	81
160	60
161	71
167	106
168	201
169	204
170	198
171	196
172	118
173	155
175	80
183	151
184	101
185	321
186	76
187	206
197	176
198	138
199	301
200	206
201	248
202	92
203	74
211	122
212	129
213	206
214	180
215	152
216	81
221	100
223	209
225	417
226	257
227	502
228	288
229	442
230	104
231	244
233	71
235	95
240	69
241	252
242	134
243	264
244	112
245	52
246	95
248	99
249	225
250	90
251	361
252	69
253	164
255	88
256	366
257	463
258	405
259	426
261	56
262	56
263	141
264	140
265	140
266	98
267	65
272	188
273	51
274	195
275	51
276	362
277	397
278	831
279	778
280	470
281	405
282	93
290	57
291	661
292	271
293	1219
294	418
295	626
296	197
297	85
304	92
305	277
306	244
307	508
308	185
309	421
310	133
311	90
319	224
320	838
321	548
322	1524
323	523
324	762
325	264
327	65
334	4957
335	4012
336	9999
337	7204
338	6074
339	3801
340	488
349	112
350	119
351	216
352	87
353	238
355	61
366	2252
367	412
368	4837
369	665
370	2443
371	284
