Mass Spectrum: Methohexital
Formula: C14 H18 N2 O3
CAS: 151-83-7
Molecular weight: 262
Origin: NIST Mass Spectrometry Data Center
m/z	RELATIVE INTENSITY
15	90
25	10
26	110
27	1321
28	350
29	530
30	190
31	60
37	40
38	180
39	3453
40	591
41	6786
42	901
43	611
44	480
45	50
46	10
49	20
50	540
51	1922
52	1521
53	8898
54	1061
55	1902
56	761
57	430
58	1271
59	50
60	10
61	30
62	170
63	651
64	220
65	2362
66	1702
67	1611
68	561
69	490
70	611
71	60
72	20
73	20
74	100
75	160
76	140
77	3773
78	1151
79	9999
80	2132
81	6326
82	1081
83	360
84	70
85	50
86	30
87	50
88	30
89	190
90	130
91	2712
92	671
93	3823
94	761
95	400
96	741
97	1001
98	540
99	100
100	20
101	60
102	110
103	450
104	260
105	1601
106	981
107	961
108	2572
109	871
110	961
111	450
112	530
113	170
114	40
115	440
116	220
117	611
118	450
119	971
120	1962
121	1321
122	561
123	320
124	1421
125	160
126	120
127	100
128	100
129	120
130	110
131	240
132	340
133	771
134	861
135	250
136	320
137	240
138	991
139	190
140	40
141	20
142	90
143	260
144	120
145	320
146	320
147	891
148	691
149	540
150	360
151	90
152	20
153	70
154	90
155	1431
156	190
157	30
158	90
159	510
160	1151
161	1301
162	871
163	791
164	3403
165	671
166	1001
167	1461
168	230
169	160
170	30
171	10
172	60
173	260
174	100
175	80
176	520
177	571
178	3924
179	611
180	180
181	2402
182	1121
183	190
184	20
186	20
187	50
188	120
189	50
190	380
191	310
192	80
193	120
194	40
195	20
201	10
202	30
203	50
204	270
205	801
206	360
207	170
208	40
215	20
216	20
217	70
218	30
219	751
220	681
221	6426
222	801
223	80
224	10
229	30
230	10
231	20
233	3063
234	641
235	80
236	10
243	10
244	20
245	70
247	2973
248	430
249	50
261	881
262	260
263	40
