Mass Spectrum: Halothane
Formula: C2 H Br Cl F3
CAS: 151-67-7
Molecular weight: 196
Origin: Japan AIST/NIMC Database- Spectrum MS-IW-6270
m/z	RELATIVE INTENSITY
13	10
25	10
28	30
31	379
32	99
35	30
36	30
37	10
38	10
43	20
44	119
47	259
48	289
49	90
50	159
51	339
62	20
63	139
66	90
67	1829
68	50
69	1139
70	10
71	10
72	10
78	20
79	199
80	30
81	199
82	159
85	80
87	20
91	119
92	139
93	119
94	139
97	60
98	1729
99	50
100	549
101	10
110	50
111	459
112	60
113	439
114	10
116	90
117	9999
118	249
119	3209
120	70
122	10
124	10
126	50
127	1779
128	90
129	2359
130	40
131	589
141	20
142	80
143	20
144	80
145	60
147	80
149	20
160	20
161	80
162	30
163	80
176	20
177	919
178	50
179	1209
180	30
181	289
195	10
196	4749
197	129
198	6139
199	139
200	1479
201	30
