Mass Spectrum: Hexanedioic acid, dinonyl ester
Formula: C24 H46 O4
CAS: 151-32-6
Molecular weight: 398
Origin: Japan AIST/NIMC Database- Spectrum MS-NW-6566
m/z	RELATIVE INTENSITY
14	10
15	40
17	30
18	119
26	20
27	309
28	199
29	999
30	20
31	50
32	10
38	20
39	329
40	90
41	2379
42	639
43	1489
44	99
45	40
50	10
51	30
52	10
53	169
54	129
55	2609
56	1039
57	9999
58	509
59	149
60	30
61	10
63	10
65	30
66	10
67	219
68	229
69	2259
70	3259
71	3519
72	219
73	149
74	10
77	30
79	40
80	10
81	109
82	109
83	1099
84	739
85	249
86	30
87	90
88	10
91	20
93	30
94	30
95	349
96	70
97	219
98	239
99	70
100	329
101	569
102	119
103	30
107	20
108	20
109	109
110	269
111	1129
112	579
113	159
114	99
115	2309
116	179
117	20
123	20
124	50
125	70
126	889
127	649
128	139
129	5539
130	419
131	60
135	10
137	10
138	20
139	10
140	10
141	20
143	50
144	30
145	30
146	10
147	309
148	20
149	20
152	40
153	10
154	10
155	20
156	80
157	90
158	10
169	10
170	219
171	70
172	10
173	10
174	40
175	10
180	30
181	10
183	60
184	10
185	40
187	10
197	10
198	139
199	309
200	50
201	10
203	10
212	40
213	289
214	50
216	20
217	70
218	20
219	10
221	10
225	10
226	839
227	189
228	159
229	30
238	20
239	279
240	50
241	139
242	20
243	10
245	20
246	10
253	10
254	20
255	3089
256	529
257	90
258	10
259	70
260	10
269	10
270	20
271	10
272	20
273	1669
274	309
275	30
286	20
287	10
299	70
300	179
301	30
313	10
314	10
324	10
327	90
328	70
329	20
341	80
342	1049
343	379
344	70
345	10
369	20
370	10
383	419
384	129
385	20
398	269
399	80
400	10
