Mass Spectrum: Propanal, 2-methyl-, oxime
Formula: C4 H9 N O
CAS: 151-00-8
Molecular weight: 87
Origin: NIST Mass Spectrometry Data Center, 1992
m/z	RELATIVE INTENSITY
12	37
13	95
14	276
15	968
16	177
17	174
18	752
19	180
25	117
26	1163
27	4089
28	5087
29	1150
30	1143
31	383
32	217
36	63
37	486
38	862
39	3667
40	889
41	5233
42	5553
43	2813
44	1187
45	439
46	587
47	41
49	77
50	156
51	556
52	741
53	471
54	1570
55	1500
56	443
57	80
58	746
59	702
60	47
63	41
64	91
66	63
68	1954
70	9999
71	661
72	2641
73	84
83	32
86	766
87	371
88	32
