Mass Spectrum: Methane, bromodifluoro-
Formula: C H Br F2
CAS: 1511-62-2
Molecular weight: 130
m/z	RELATIVE INTENSITY
12	310
13	350
19	170
20	20
31	2172
32	1141
40	10
41	10
50	530
51	9999
55	10
56	10
79	1521
80	210
81	1481
82	210
91	150
92	80
93	140
94	80
110	100
111	1241
112	100
113	1211
129	90
130	1571
131	80
132	1531
