Mass Spectrum: Imidosulfurous difluoride, (trifluoromethyl)-
Formula: C F5 N S
CAS: 1512-14-7
Molecular weight: 153
m/z	RELATIVE INTENSITY
12	90
14	60
19	120
20	100
26	80
27	30
31	550
32	430
33	10
34	20
36	40
38	10
45	160
46	4514
47	50
48	110
50	330
51	581
53	30
65	3173
66	30
67	180
69	9999
70	1732
71	20
72	100
84	20
86	20
96	30
115	480
117	20
134	4844
135	100
136	210
153	4444
154	100
155	210
