Mass Spectrum: Chromium, pentacarbonyl(hexamethylphosphorous triamide-P)-, (OC-6-22)-
Formula: C11 H18 Cr N3 O5 P
CAS: 15137-66-3
Molecular weight: 355
Origin: R.B.KING DEPT. CHEM., UNIV. OF GEORGIA, ATHENS, GEORGIA, USA
m/z	RELATIVE INTENSITY
52	1947
60	1267
76	5067
80	480
81	160
93	267
94	533
95	2773
112	507
119	4267
126	160
127	640
128	827
137	507
138	640
139	1040
155	160
163	1333
172	3920
199	240
215	9999
227	160
243	1573
255	133
271	507
283	133
299	53
311	147
327	1520
355	1520
