Mass Spectrum: Methyl 2-chloro-2,2-difluoroacetate
Formula: C3 H3 Cl F2 O2
CAS: 1514-87-0
Molecular weight: 144
Origin: NIST Mass Spectrometry Data Center
m/z	RELATIVE INTENSITY
12	120
13	120
14	530
15	6326
16	90
18	20
19	20
20	10
24	10
26	10
28	460
29	2252
30	510
31	1862
32	60
33	20
35	450
36	40
37	130
40	40
42	10
43	30
44	180
45	520
47	360
48	20
49	210
50	2002
51	180
52	10
56	10
59	9999
60	200
61	60
63	100
65	701
66	460
67	20
68	140
78	430
79	20
81	621
82	10
85	3954
87	1301
88	10
94	50
97	180
99	50
109	1742
110	50
111	10
115	10
