Mass Spectrum: 2,3,6-Trifluorobenzylbromide
Formula: C7 H4 Br F3
CAS: 151412-02-1
Molecular weight: 224
Origin: NIST Mass Spectrometry Data Center, 1994
m/z	RELATIVE INTENSITY
14	13
26	42
28	52
31	714
32	3
33	49
36	23
37	194
38	222
39	89
44	41
48	15
49	68
50	394
51	498
52	15
55	39
56	255
57	533
60	27
61	217
62	257
63	243
64	30
67	17
68	275
69	381
70	45
73	184
74	284
75	1078
76	105
77	38
78	17
79	462
80	195
81	762
82	63
84	16
85	81
86	68
87	70
88	120
92	97
93	279
94	281
95	878
96	44
98	37
99	365
100	67
101	153
102	42
103	66
104	46
105	135
106	40
107	68
112	76
113	54
114	188
117	33
119	805
120	55
123	83
125	1728
126	248
127	20
142	15
143	317
145	9999
146	744
147	32
224	620
225	72
226	617
227	42
