Mass Spectrum: Ethanol, 2-(4-methylphenoxy)-
Formula: C9 H12 O2
CAS: 15149-10-7
Molecular weight: 152
Origin: Japan AIST/NIMC Database- Spectrum MS-NW-2386
m/z	RELATIVE INTENSITY
14	30
15	139
16	10
17	10
18	40
25	10
26	80
27	519
28	119
29	429
30	10
31	129
32	20
37	30
38	90
39	529
40	50
41	109
42	60
43	279
44	239
45	829
46	20
49	20
50	239
51	499
52	259
53	279
54	40
55	80
61	30
62	90
63	289
64	90
65	769
66	80
67	20
68	20
73	10
74	40
75	30
76	30
77	1029
78	269
79	869
80	589
81	70
82	10
85	10
86	10
87	10
89	239
90	649
91	1969
92	179
93	219
94	30
103	20
105	60
106	50
107	5319
108	9999
109	1029
110	60
119	10
120	20
121	469
122	50
131	30
132	30
133	20
134	20
136	10
150	70
151	20
152	3529
153	349
154	20
