Mass Spectrum: Benzene, 1,3-butadienyl-
Formula: C10 H10
CAS: 1515-78-2
Molecular weight: 130
Origin: ORMSBG,10(1)81(1975); J-L. DEROCQUE
m/z	RELATIVE INTENSITY
39	5000
40	800
50	3100
51	5300
52	1300
62	800
63	2200
64	900
65	1200
74	900
75	700
76	900
77	2100
78	1200
89	800
91	800
102	1200
103	600
115	6300
127	2700
128	5700
129	9900
130	9999
