Mass Spectrum: 2,4-Hexadienenitrile
Formula: C6 H7 N
CAS: 1516-01-4
Molecular weight: 93
Origin: NIST Mass Spectrometry Data Center, 1994
m/z	RELATIVE INTENSITY
12	50
13	47
14	94
15	250
18	41
25	111
26	816
27	1767
28	495
29	61
37	993
38	1492
39	3458
40	1353
41	915
42	85
44	28
46	38
47	53
49	238
50	839
51	1264
52	697
53	726
54	387
60	71
61	355
62	462
63	825
64	917
65	2277
66	9999
67	956
75	204
76	220
77	57
78	294
87	51
88	49
91	91
92	425
93	2738
94	200
