Mass Spectrum: Silane, ethoxytriphenyl-
Formula: C20 H20 O Si
CAS: 1516-80-9
Molecular weight: 304
Origin: RADIAN CORP
m/z	RELATIVE INTENSITY
26	10
27	230
29	510
30	10
39	150
42	20
43	260
44	60
45	1930
46	110
47	90
50	310
51	1520
52	210
53	610
54	70
55	60
58	10
63	70
65	70
66	40
67	40
71	100
72	140
73	490
74	120
75	150
76	250
77	4690
78	1750
79	780
80	80
81	40
89	70
90	30
91	260
92	40
93	40
95	40
97	90
98	10
99	180
101	70
102	140
103	680
104	1570
105	3200
106	520
107	180
113	20
115	200
116	40
117	50
119	40
120	30
121	960
122	670
123	2560
124	320
125	120
126	110
127	210
128	240
129	620
130	140
131	120
135	80
138	110
139	60
141	30
142	20
143	30
147	280
148	1000
149	620
150	5920
151	1170
152	1460
153	750
154	550
155	1290
156	210
157	90
165	100
166	10
167	60
171	40
177	40
178	40
179	430
180	1450
181	4330
182	2180
183	9999
184	1870
185	480
186	60
195	40
197	1600
198	490
199	3680
200	690
201	200
202	90
203	20
205	60
208	70
209	90
211	370
212	70
213	20
215	20
225	440
226	3750
227	5460
228	1230
229	370
230	70
231	30
254	30
255	140
256	40
257	320
258	100
259	1030
260	350
261	90
275	40
276	190
277	40
304	1730
305	470
306	120
