Mass Spectrum: 4-Hydroxy-3-methylbenzaldehyde
Formula: C8 H8 O2
CAS: 15174-69-3
Molecular weight: 136
Origin: Japan AIST/NIMC Database- Spectrum MS-IW-6317
m/z	RELATIVE INTENSITY
14	10
15	10
17	30
18	119
26	50
27	309
28	80
29	129
31	50
37	70
38	169
39	669
40	60
41	30
42	10
43	80
44	30
45	30
46	10
49	40
50	379
51	769
52	359
53	559
54	149
55	119
58	20
61	60
62	139
63	329
64	70
65	99
66	50
67	129
68	10
69	10
73	40
74	149
75	90
76	60
77	2289
78	459
79	1519
80	129
81	30
85	20
86	30
87	20
89	149
90	119
91	60
92	10
93	30
105	99
106	179
107	2859
108	319
109	20
117	40
118	10
121	60
122	10
133	20
134	40
135	9999
136	7509
137	709
138	60
