Mass Spectrum: 2-Chloroethyl caprate
Formula: C12 H23 Cl O2
CAS: 15175-04-9
Molecular weight: 234
Origin: FDA, Los Angeles District Laboratory
m/z	RELATIVE INTENSITY
41	5599
42	2000
43	7899
44	500
45	350
53	300
54	450
55	5099
56	1300
57	3550
58	250
60	1300
61	700
62	9999
63	6599
64	3500
65	2050
67	550
68	450
69	2400
70	650
71	2300
73	1650
81	500
82	250
83	1050
84	1200
85	900
86	2800
87	1900
95	450
97	800
98	750
99	200
101	250
107	200
110	250
111	300
112	250
121	200
122	6949
123	950
124	2050
125	400
135	6149
136	400
137	1950
149	600
151	250
153	300
155	4200
156	650
177	500
191	1750
192	200
193	550
205	300
234	300
