Mass Spectrum: Platinum(II) acetylacetonate
Formula: C10 H14 O4 Pt
CAS: 15170-57-7
Molecular weight: 393
Origin: Japan AIST/NIMC Database- Spectrum MS-IW- 404
m/z	RELATIVE INTENSITY
14	10
15	149
16	10
18	60
26	20
27	119
28	309
29	40
31	20
38	10
39	99
40	20
41	90
42	80
43	4329
44	99
45	10
51	10
53	30
55	149
57	10
58	30
59	80
61	10
67	20
69	80
70	10
71	199
72	70
78	10
81	20
82	20
83	20
84	20
85	529
86	20
95	119
96	20
97	20
98	10
99	70
100	359
101	689
102	30
109	80
110	10
111	40
113	30
149	30
155	10
194	20
195	50
196	179
197	149
198	40
206	10
207	80
208	139
209	229
210	169
211	99
212	20
213	20
219	40
220	309
221	909
222	1129
223	959
224	519
225	319
226	99
227	50
231	40
232	90
233	349
234	519
235	949
236	1189
237	1239
238	699
239	369
240	139
241	80
242	10
244	10
245	40
246	50
247	199
248	279
249	669
250	769
251	1069
252	759
253	579
254	109
255	119
256	20
259	30
260	60
261	169
262	319
263	869
264	1779
265	2119
266	1609
267	809
268	429
269	149
270	60
271	10
272	10
273	30
274	40
275	149
276	249
277	659
278	679
279	1399
280	1769
281	1819
282	929
283	449
284	209
285	70
286	10
287	20
288	70
289	169
290	559
291	829
292	2269
293	2929
294	2919
295	1559
296	969
297	319
298	139
299	30
301	10
302	30
303	119
304	139
305	299
306	349
307	969
308	1619
309	1479
310	1129
311	639
312	529
313	40
314	90
315	10
316	10
317	30
318	30
319	109
320	109
321	1239
322	1679
323	1469
324	459
325	339
326	109
327	20
330	10
331	30
332	159
333	289
334	349
335	599
336	589
337	419
338	99
339	109
340	20
341	10
346	10
347	20
348	129
349	529
350	1809
351	1769
352	1689
353	779
354	729
355	70
356	129
357	10
362	10
363	20
364	99
365	99
366	70
367	10
368	20
376	10
377	50
378	50
379	30
381	10
390	219
391	30
392	8879
393	9999
394	7909
395	879
396	2019
397	229
398	30
