Mass Spectrum: 2-Butanol, 3-methyl-, (S)-
Formula: C5 H12 O
CAS: 1517-66-4
Molecular weight: 88
Origin: Chuck Anderson, Aldrich Chemical Co.
m/z	RELATIVE INTENSITY
15	46
19	72
26	49
27	640
28	111
29	437
30	23
31	222
37	24
38	72
39	634
40	91
41	1002
42	279
43	1573
44	1383
45	9999
46	250
47	48
50	25
51	29
52	2
53	73
54	32
55	1065
56	52
57	111
58	23
69	98
70	43
71	172
72	37
73	1142
74	53
87	84
88	52
