Mass Spectrum: Phenol, 2-cyclopentyl-
Formula: C11 H14 O
CAS: 1518-84-9
Molecular weight: 162
Origin: J.E. WILKINSON S-CUBED, SAN DIEGO, CA.
m/z	RELATIVE INTENSITY
40	234
42	64
50	382
52	127
53	743
55	828
63	679
65	1401
66	234
67	297
68	21
77	2165
79	701
89	722
90	191
91	3779
94	1380
103	892
105	2059
107	5859
115	1529
116	42
117	85
119	1889
120	4479
128	85
131	594
133	9999
134	1529
145	255
147	1465
161	531
162	6857
163	149
