Mass Spectrum: Bicyclo[2.2.1]heptane, 2-methyl-
Formula: C8 H14
CAS: 15185-11-2
Molecular weight: 110
Origin: KONINKLIJKE SHELL LABORATORIUM AMSTERDAM
m/z	RELATIVE INTENSITY
15	228
24	3
25	14
26	195
27	2195
28	8631
29	1292
30	57
31	20
32	459
33	9
34	7
35	7
36	34
37	67
38	222
39	3302
40	766
41	5400
42	594
43	502
44	1041
45	57
46	23
47	9
48	9
49	19
50	210
51	475
52	254
53	1551
54	2705
55	2352
56	1229
57	211
58	33
59	9
60	31
61	31
62	58
63	143
64	45
65	530
66	1653
67	9999
68	8003
69	2611
70	197
71	51
72	24
73	11
74	25
75	29
76	47
77	429
78	136
79	609
80	440
81	7611
82	6433
83	421
84	37
85	30
86	9
87	10
88	5
89	16
90	9
91	169
92	31
93	127
94	41
95	5350
96	425
97	42
98	15
99	13
100	4
101	3
102	5
103	11
104	38
105	38
106	13
107	15
108	23
109	151
110	2275
111	214
112	28
