Mass Spectrum: Disulfide, bis(2-methylpropyl)
Formula: C8 H18 S2
CAS: 1518-72-5
Molecular weight: 178
Origin: Japan AIST/NIMC Database- Spectrum MS-NW-2736
m/z	RELATIVE INTENSITY
15	30
18	20
26	20
27	519
28	169
29	2009
30	40
32	40
34	10
35	10
37	10
38	30
39	529
40	60
41	2679
42	179
43	559
44	30
45	269
46	129
47	189
48	30
49	10
50	10
51	10
53	90
54	60
55	519
56	279
57	9999
58	449
59	90
60	40
61	40
64	40
66	50
71	30
73	99
74	10
75	10
76	10
78	10
79	149
80	10
81	10
85	10
87	379
88	209
89	99
90	30
93	10
105	10
120	10
121	10
122	1139
123	60
124	99
178	2229
179	229
180	219
181	20
