Mass Spectrum: Benzene, 1,3-bis(1,1-dimethylethyl)-5-methyl-
Formula: C15 H24
CAS: 15181-11-0
Molecular weight: 204
m/z	RELATIVE INTENSITY
2	50
12	10
13	10
14	20
15	70
16	10
23	10
25	10
26	30
27	791
28	100
29	2132
30	40
31	10
37	10
38	50
39	961
40	100
41	3033
42	130
43	220
44	30
45	20
46	10
47	10
48	10
49	10
50	90
51	400
52	110
53	320
54	20
55	400
56	50
57	5695
58	360
59	190
60	10
61	10
62	40
63	220
64	340
65	691
66	80
67	90
68	20
69	40
70	70
71	500
72	350
73	951
74	30
75	50
76	80
77	480
78	170
79	20
80	60
81	20
82	10
83	20
84	10
85	20
86	60
87	711
88	10
89	110
90	30
91	1121
92	180
93	210
94	20
95	10
96	10
97	10
98	10
102	60
103	140
104	60
105	891
106	110
107	60
108	10
109	10
110	10
111	10
112	10
113	10
114	10
115	480
116	170
117	370
118	140
119	901
120	120
121	20
122	10
125	10
126	10
127	460
128	280
129	240
130	130
131	280
132	90
133	721
134	150
135	10
139	20
140	10
141	130
142	120
143	130
144	50
145	540
146	100
147	320
148	90
149	30
150	10
151	10
152	10
153	10
154	10
155	20
156	10
157	90
158	40
159	130
160	250
161	741
162	210
163	20
171	10
172	40
173	140
174	30
175	500
176	40
177	10
187	10
188	10
189	9999
190	1401
196	10
204	1641
205	230
206	20
