Mass Spectrum: Ethyl indole-3-acrylate
Formula: C13 H13 N O2
CAS: 15181-86-9
Molecular weight: 215
Origin: NIST Mass Spectrometry Data Center, 1994
m/z	RELATIVE INTENSITY
14	62
15	525
16	12
17	10
18	124
19	64
26	341
27	1694
28	945
29	2435
30	98
37	72
38	232
39	826
40	87
41	72
42	91
43	203
44	56
45	120
49	26
50	413
51	525
52	295
53	90
55	61
58	596
61	104
62	741
63	1654
64	436
65	434
66	45
69	169
71	1584
74	262
75	436
76	266
77	432
78	84
79	34
85	765
86	361
87	590
88	1157
89	1663
90	365
91	102
98	40
99	37
101	83
102	180
103	225
104	128
110	51
111	56
113	1221
114	2100
115	7524
116	1321
117	486
118	309
119	38
127	52
128	127
129	116
130	813
131	134
132	52
133	213
138	24
140	1391
141	1957
142	1584
143	7730
144	1157
145	132
146	86
154	186
155	57
156	79
157	57
158	438
159	125
161	25
168	106
170	9999
171	1321
172	134
174	25
182	49
186	283
187	1179
188	140
196	29
198	22
200	192
215	6206
216	915
217	65
