Mass Spectrum: Phosphorothioic acid, O,O,S-trimethyl ester
Formula: C3 H9 O3 P S
CAS: 152-20-5
Molecular weight: 156
Origin: E.SANTORO MONTECATINI EDISON RES. CENTRE, MILAN, ITALY
m/z	RELATIVE INTENSITY
15	1200
31	420
44	150
45	1300
46	800
47	2820
48	700
61	190
62	390
63	340
65	200
77	210
79	6280
80	1700
93	380
95	1210
109	6270
110	9999
125	1100
126	1610
141	710
156	4850
