Mass Spectrum: Levallorphan
Formula: C19 H25 N O
CAS: 152-02-3
Molecular weight: 283
Origin: AAFS Toxicology Section MS DB Committee, U. Alberta, Canada
m/z	RELATIVE INTENSITY
39	720
40	10
41	2662
42	910
43	1281
44	680
51	310
53	420
54	340
55	680
56	1691
57	1791
58	890
63	210
65	460
67	730
68	830
69	310
70	1591
71	190
77	1090
78	250
79	910
80	460
81	420
82	1030
83	190
84	4033
85	2742
86	460
89	330
91	1491
92	210
93	440
94	340
95	210
96	310
102	250
103	500
105	480
106	270
107	1421
108	910
109	190
115	2101
116	580
117	560
118	230
119	230
120	620
121	750
122	310
127	1221
128	2492
129	990
130	290
131	1321
132	700
133	1030
134	1181
135	270
136	210
139	210
141	1111
142	480
143	230
144	1161
145	1611
146	1671
147	420
148	330
150	420
152	680
153	500
154	330
155	210
157	6666
158	2161
159	770
160	250
165	380
166	190
167	270
169	500
170	950
171	1030
172	730
173	250
174	540
176	5414
177	620
179	210
181	310
182	190
183	500
184	360
185	400
186	560
188	340
196	230
197	340
198	2201
199	2252
200	3563
201	660
212	190
213	420
214	420
215	1981
216	230
226	680
227	190
240	930
241	560
242	910
243	190
254	500
255	340
256	5625
257	1090
268	520
282	6345
283	9999
284	1901
285	250
