Mass Spectrum: O,O,O-Trimethyl thiophosphate
Formula: C3 H9 O3 P S
CAS: 152-18-1
Molecular weight: 156
Origin: Dennis Rohrbaugh, CBDCOM/ERDEC, Edgewood, MD
m/z	RELATIVE INTENSITY
29	599
31	599
45	309
46	149
47	2199
48	159
49	149
62	299
63	2229
64	239
65	99
77	199
79	1189
80	189
93	9999
94	399
95	149
109	499
110	149
111	149
124	99
125	1509
126	2979
127	149
128	149
141	149
156	5109
157	309
158	299
