Mass Spectrum: Benzene, 1,1',1''-(1-ethanyl-2-ylidene)tris-
Formula: C20 H18
CAS: 1520-42-9
Molecular weight: 258
Origin: Japan AIST/NIMC Database- Spectrum MS-IW-3143
m/z	RELATIVE INTENSITY
27	10
39	80
41	10
50	20
51	80
52	10
62	10
63	60
64	10
65	119
74	10
75	20
76	20
77	90
78	10
87	10
88	10
89	50
90	10
91	189
92	10
101	10
102	30
103	20
113	20
114	10
115	129
116	10
126	30
127	20
128	109
129	20
139	70
140	10
141	50
150	10
151	99
152	1009
153	129
154	10
163	60
164	109
165	1769
166	699
167	9999
168	1419
169	90
176	30
177	20
178	129
179	80
180	10
239	10
252	10
258	419
259	90
