Mass Spectrum: 2-Methanesulfonylethanol
Formula: C3 H8 O3 S
CAS: 15205-66-0
Molecular weight: 124
Origin: NIST Mass Spectrometry Data Center, 1994
m/z	RELATIVE INTENSITY
12	33
13	89
14	428
15	2971
16	83
17	44
18	80
19	1347
25	36
26	507
27	3099
28	420
29	3617
30	144
31	1417
32	119
33	187
34	105
35	60
39	45
40	20
41	99
42	498
43	2193
44	732
45	9999
46	523
47	294
48	775
49	239
50	93
51	15
57	31
58	40
59	28
60	21
61	108
62	98
63	1686
64	466
65	1325
66	89
67	78
77	213
79	1973
80	622
81	2814
82	73
83	144
91	41
94	1915
95	75
96	100
97	138
107	14
109	114
123	104
125	18
