Mass Spectrum: p-Vinylphenyl isothiocyanate
Formula: C9 H7 N S
CAS: 1520-20-3
Molecular weight: 161
Origin: NIST Mass Spectrometry Data Center, 1994
m/z	RELATIVE INTENSITY
14	13
18	39
26	160
27	447
28	176
32	168
37	214
38	326
39	729
40	74
44	177
45	171
49	129
50	1251
51	1973
52	394
53	186
54	83
56	24
57	33
58	147
59	107
60	35
61	232
62	409
63	967
64	363
65	149
66	114
67	285
69	146
70	213
71	42
72	30
73	112
74	601
75	824
76	702
77	3153
78	381
79	30
80	480
82	69
83	97
84	58
85	30
86	54
87	99
88	107
89	393
90	377
91	215
94	31
95	53
96	61
98	88
99	81
100	53
101	385
102	1525
103	2915
104	272
107	47
108	84
114	36
116	354
117	413
118	48
120	35
121	28
122	50
127	55
128	288
129	236
133	217
134	325
135	439
136	69
146	64
159	121
160	1314
161	9999
162	1154
163	533
164	50
