Mass Spectrum: Cyclohexene, 3-bromo-
Formula: C6 H9 Br
CAS: 1521-51-3
Molecular weight: 160
Origin: NIST Mass Spectrometry Data Center, 1994
m/z	RELATIVE INTENSITY
11	3
12	9
13	19
14	48
15	286
16	1
26	639
27	1831
29	210
30	5
37	239
38	621
39	2157
40	461
41	1755
42	106
49	193
50	893
51	1169
52	850
53	2368
54	252
55	411
56	18
59	3
60	11
61	42
62	89
63	214
64	3
65	615
66	501
67	52
73	41
74	106
75	50
76	3
77	1167
78	3
79	3692
80	3
81	9999
82	787
83	49
91	4
92	4
93	12
95	11
104	4
105	7
106	5
107	7
108	4
117	4
119	21
121	15
131	4
132	7
133	4
134	8
145	13
147	9
160	92
161	7
162	89
163	5
