Mass Spectrum: Pentaerythrityl tetraiodide
Formula: C5 H8 I4
CAS: 1522-88-9
Molecular weight: 576
Origin: Japan AIST/NIMC Database- Spectrum MS-NW-2858
m/z	RELATIVE INTENSITY
14	20
15	40
26	119
27	1169
28	219
29	60
36	10
37	119
38	319
39	3109
40	1029
41	3349
42	219
43	30
49	30
50	169
51	279
52	169
53	1349
54	859
55	60
56	10
57	20
61	20
62	40
63	70
64	30
65	899
66	1039
67	9999
68	1829
69	109
71	10
78	20
80	20
81	10
82	20
83	10
85	10
93	10
95	10
97	10
101	20
107	10
119	50
121	50
127	909
128	1119
133	20
134	10
135	20
139	20
140	20
141	459
145	119
146	30
147	229
148	40
149	129
152	10
153	40
154	30
155	339
161	90
165	30
166	20
167	409
168	20
179	10
180	30
181	209
193	499
194	149
195	2389
196	129
229	10
245	10
247	10
254	229
273	119
275	119
281	10
295	10
321	369
322	20
355	10
357	20
449	1879
450	99
576	289
577	10
