Mass Spectrum: Cyclohexene, 1-nonyl-
Formula: C15 H28
CAS: 15232-88-9
Molecular weight: 208
Origin: S.A. Rang et al., IR & MS of Unsatd. Hydrocarbons, 1977
m/z	RELATIVE INTENSITY
15	16
16	5
24	7
25	26
26	147
27	1405
28	351
29	2750
30	69
31	58
37	11
38	27
39	1054
40	228
41	5641
42	597
43	2547
44	70
45	50
50	26
51	109
52	119
53	1265
54	1300
55	4103
56	494
57	703
58	46
59	18
60	4
62	4
63	27
64	8
65	437
66	541
67	7180
68	2139
69	1019
70	209
71	195
72	15
73	29
74	5
75	15
76	5
77	667
78	190
79	2037
80	843
81	9999
82	2954
83	773
84	95
85	43
86	5
87	4
88	11
89	8
90	4
91	408
92	79
93	632
94	294
95	2547
96	8205
97	2037
98	161
99	11
103	14
104	14
105	43
106	14
107	104
108	209
109	1426
110	294
111	57
112	64
113	8
115	11
116	4
117	12
118	4
119	8
120	7
121	27
122	33
123	133
124	123
125	35
126	30
127	10
128	5
129	4
131	4
133	5
135	19
136	10
137	95
138	119
139	16
144	4
149	5
150	4
151	60
152	56
153	8
165	24
166	23
167	4
179	7
180	81
181	12
192	4
193	4
206	5
207	4
208	808
209	133
210	11
