Mass Spectrum: Cyclohexene, 3-nonyl-
Formula: C15 H28
CAS: 15232-79-8
Molecular weight: 208
Origin: S.A. Rang et al., IR & MS of Unsatd. Hydrocarbons, 1977
m/z	RELATIVE INTENSITY
15	30
16	8
24	6
25	22
26	120
27	1289
28	322
29	2337
30	54
31	9
36	3
37	12
38	25
39	967
40	196
41	4706
42	599
43	2454
44	68
45	17
49	5
50	28
51	103
52	109
53	1209
54	1128
55	2454
56	457
57	725
58	34
59	5
62	3
63	22
64	6
65	349
66	436
67	4412
68	1289
69	725
70	185
71	229
72	14
73	12
74	3
75	16
76	5
77	564
78	158
79	1934
80	846
81	9999
82	3272
83	685
84	90
85	84
86	6
87	3
89	5
90	3
91	251
92	64
93	327
94	229
95	1531
96	5882
97	1491
98	120
99	11
102	3
103	9
104	17
105	33
106	11
107	62
108	114
109	766
110	185
111	47
112	50
113	8
115	9
116	3
117	12
118	3
119	6
120	5
121	22
122	14
123	98
124	34
125	25
126	31
127	14
128	5
129	5
130	3
131	5
133	3
135	12
136	6
137	72
138	93
139	12
140	3
141	3
145	3
147	3
149	3
150	3
151	44
152	44
153	6
154	3
160	5
165	22
166	19
167	3
179	5
180	68
181	9
193	5
204	5
206	6
207	5
208	461
209	81
210	9
