Mass Spectrum: Cyclohexene, 1-pentyl-
Formula: C11 H20
CAS: 15232-85-6
Molecular weight: 152
Origin: S.A. Rang et al., IR & MS of Unsatd. Hydrocarbons, 1977
m/z	RELATIVE INTENSITY
15	48
16	8
24	4
25	13
26	111
27	1353
28	151
29	1582
30	51
31	10
37	9
38	31
39	1422
40	264
41	3714
42	281
43	634
44	44
45	11
49	3
50	47
51	254
52	211
53	1232
54	1191
55	2411
56	212
57	143
58	15
59	4
60	3
61	44
62	6
63	45
64	18
65	554
66	474
67	6573
68	1901
69	552
70	116
71	42
72	3
73	9
74	46
75	19
76	8
77	832
78	211
79	1662
80	753
81	9999
82	2634
83	313
84	32
85	15
86	3
88	1
89	11
90	5
91	710
92	241
93	472
94	211
95	2633
96	5432
97	911
98	73
99	11
102	3
103	16
104	10
105	32
106	9
107	61
108	54
109	1461
110	261
111	32
112	11
113	3
115	11
116	5
117	10
119	4
120	3
121	16
122	8
123	78
124	108
125	15
126	3
135	6
137	18
138	4
139	3
148	4
149	3
150	13
151	9
152	2025
153	303
154	13
