Mass Spectrum: Cyclohexene,3-(1-methylpropyl)-
Formula: C10 H18
CAS: 15232-91-4
Molecular weight: 138
Origin: S.A. Rang et al., IR & MS of Unsatd. Hydrocarbons, 1977
m/z	RELATIVE INTENSITY
25	13
26	97
27	1385
28	98
29	1949
30	98
37	22
38	53
39	1590
40	258
41	3899
42	258
43	377
45	13
50	75
51	313
52	230
53	1488
54	770
55	1436
56	506
57	1231
58	65
59	6
60	9
61	3
62	13
63	62
64	22
65	497
66	368
67	3606
68	386
69	184
70	128
71	81
72	6
73	13
74	9
75	41
76	16
77	1026
78	285
79	2514
80	1847
81	9999
82	2770
83	276
84	41
85	9
86	9
89	9
90	6
91	368
92	56
93	184
94	65
95	248
96	368
97	59
98	9
99	6
102	6
103	34
104	16
105	65
106	13
107	156
108	106
109	4386
110	497
111	34
112	3
121	28
122	6
123	166
124	25
134	6
136	46
137	28
138	1436
139	156
140	9
