Mass Spectrum: Cyclohexene, 1-octyl-
Formula: C14 H26
CAS: 15232-87-8
Molecular weight: 194
Origin: S.A. Rang et al., IR & MS of Unsatd. Hydrocarbons, 1977
m/z	RELATIVE INTENSITY
15	40
16	10
24	6
25	24
26	132
27	1673
28	361
29	2895
30	64
31	6
37	11
38	25
39	1226
40	263
41	5790
42	613
43	2405
44	64
45	11
50	28
51	136
52	141
53	1406
54	1370
55	3947
56	505
57	1009
58	47
59	4
62	6
63	22
64	10
65	505
66	577
67	7368
68	2195
69	865
70	195
71	283
72	17
73	11
74	4
75	17
76	6
77	757
78	205
79	1986
80	829
81	9999
82	2823
83	649
84	79
85	107
86	8
88	3
89	7
90	4
91	397
92	77
93	613
94	283
95	2405
96	7368
97	1777
98	195
99	36
100	4
103	14
104	11
105	40
106	13
107	93
108	195
109	1359
110	273
111	65
112	46
113	22
114	4
115	10
116	4
117	10
119	8
120	4
121	22
122	21
123	136
124	127
125	20
126	8
127	11
128	4
129	4
131	4
133	4
135	14
136	7
137	83
138	77
139	11
140	4
141	8
144	4
149	4
150	4
151	52
152	42
153	6
154	4
155	6
162	4
165	8
166	75
167	11
168	4
169	6
179	4
183	4
192	6
194	829
195	136
196	10
