Mass Spectrum: Cyclohexene, 3-heptyl-
Formula: C13 H24
CAS: 15232-93-6
Molecular weight: 180
Origin: S.A. Rang et al., IR & MS of Unsatd. Hydrocarbons, 1977
m/z	RELATIVE INTENSITY
25	14
26	80
27	832
28	172
29	1201
30	26
31	7
37	8
38	8
39	693
40	124
41	2860
42	312
43	1144
45	8
50	20
51	80
52	75
53	815
54	858
55	1545
56	231
57	451
58	22
63	18
64	7
65	260
66	329
67	3478
68	1087
69	399
70	93
71	62
72	4
73	7
74	3
75	18
76	4
77	520
78	133
79	1602
80	745
81	9999
82	2975
83	433
84	61
85	36
91	169
92	41
93	182
94	151
95	1373
96	5000
97	1087
98	89
99	14
103	4
104	9
105	16
106	5
107	30
108	46
109	624
110	151
111	23
112	5
113	4
115	5
116	3
117	7
121	16
122	7
123	80
124	62
125	9
126	4
127	4
137	57
138	50
139	5
150	28
151	71
152	8
165	5
176	4
178	9
180	745
181	93
182	8
