Mass Spectrum: 2-Naphthalenol, acetate
Formula: C12 H10 O2
CAS: 1523-11-1
Molecular weight: 186
Origin: Japan AIST/NIMC Database- Spectrum MS-NW-4468
m/z	RELATIVE INTENSITY
14	30
15	119
27	10
28	10
37	10
38	30
39	139
41	10
42	40
43	759
44	20
50	90
51	90
52	10
57	40
61	30
62	129
63	309
64	50
65	139
74	70
75	90
76	30
77	50
85	10
86	50
87	70
88	80
89	249
90	30
98	10
99	10
101	20
113	80
114	119
115	1939
116	479
117	40
126	60
127	109
128	20
142	10
143	99
144	9999
145	1099
146	80
186	1159
187	149
188	10
