Mass Spectrum: Benzene, 2-cyclohexen-1-yl-
Formula: C12 H14
CAS: 15232-96-9
Molecular weight: 158
Origin: S.A. Rang et al., IR & MS of Unsatd. Hydrocarbons, 1977
m/z	RELATIVE INTENSITY
15	58
16	22
25	22
26	169
27	1144
28	189
29	307
30	18
31	76
37	18
38	93
39	1944
40	169
41	858
42	76
43	129
44	189
45	278
50	468
51	2058
52	600
53	570
54	93
55	182
56	27
57	62
58	89
59	31
60	9
61	13
62	160
63	848
64	468
65	1372
66	336
67	1086
68	102
69	53
70	125
71	93
72	27
73	138
74	178
75	351
76	600
77	2687
78	1372
79	1315
80	1315
81	307
82	31
83	18
85	9
86	40
87	111
88	85
89	644
90	116
91	3962
92	351
93	31
94	18
95	22
96	22
97	22
98	22
99	22
100	18
101	151
102	848
103	804
104	2230
105	556
106	40
107	18
113	107
114	156
115	6981
116	943
117	1887
118	231
119	22
120	71
121	67
125	53
126	200
127	1315
128	4340
129	9999
130	8679
131	915
132	62
133	67
139	116
140	49
141	746
142	483
143	5094
144	834
145	196
150	45
151	142
152	439
153	497
154	1029
155	395
156	497
157	1144
158	9811
159	1258
160	89
