Mass Spectrum: Cyclohexene,3-(2-propenyl)-
Formula: C9 H14
CAS: 15232-95-8
Molecular weight: 122
Origin: S.A. Rang et al., IR & MS of Unsatd. Hydrocarbons, 1977
m/z	RELATIVE INTENSITY
25	5
26	53
27	810
28	41
29	228
30	6
31	15
37	13
38	54
39	1336
40	169
41	1498
42	70
43	22
45	21
49	4
50	88
51	329
52	202
53	1336
54	155
55	291
56	15
57	7
58	8
59	8
60	4
61	3
62	17
63	78
64	21
65	367
66	240
67	278
68	49
69	7
73	20
74	10
75	33
76	19
77	850
78	215
79	2462
80	769
81	9999
82	648
83	22
87	3
89	15
90	6
91	240
92	36
93	127
94	55
95	16
96	4
97	3
102	3
103	13
105	25
106	5
107	57
108	6
119	2
120	2
121	13
122	544
123	47
124	5
