Mass Spectrum: 1-Octanol, 2,7-dimethyl-
Formula: C10 H22 O
CAS: 15250-22-3
Molecular weight: 158
m/z	RELATIVE INTENSITY
15	70
17	60
18	250
19	80
26	30
27	1471
28	350
29	2072
30	50
31	771
32	40
38	20
39	1091
40	230
41	5675
42	1571
43	8518
44	400
45	360
46	70
50	20
51	80
52	30
53	410
54	240
55	8338
56	9999
57	7547
58	340
59	80
65	70
66	30
67	631
68	591
69	7016
70	8267
71	3513
72	230
73	120
74	10
75	20
76	10
77	70
78	10
79	80
80	30
81	621
82	791
83	2843
84	2722
85	671
86	70
87	60
91	30
93	40
94	20
95	300
96	891
97	2542
98	440
99	60
105	30
107	20
109	120
110	70
111	1051
112	2422
113	260
114	10
115	20
121	20
123	140
124	20
125	450
126	50
137	20
138	70
139	20
140	270
141	70
156	60
157	20
