Mass Spectrum: 2,6-Dichlorobenzyl alcohol
Formula: C7 H6 Cl2 O
CAS: 15258-73-8
Molecular weight: 176
Origin: NIST Mass Spectrometry Data Center, 1994
m/z	RELATIVE INTENSITY
12	33
14	9
16	37
17	16
18	9
19	3
25	85
26	231
27	18
28	131
29	2022
30	316
31	687
32	38
35	254
36	275
37	1120
38	1198
39	811
40	43
42	16
43	254
44	158
47	227
48	127
49	757
50	2783
51	2852
52	1041
53	219
55	172
56	171
57	52
60	294
61	949
62	1038
63	1138
64	79
65	69
66	46
67	24
70	155
71	91
72	315
73	1256
74	2459
75	4985
76	1093
77	9999
78	849
79	103
80	29
84	751
85	774
86	652
87	588
88	29
89	656
90	61
95	36
96	87
97	253
98	46
99	186
101	59
103	34
104	52
105	165
106	50
107	56
108	133
109	766
110	529
111	3906
112	904
113	5646
114	542
115	1485
116	91
119	44
120	26
121	49
123	863
124	229
125	290
126	75
133	117
135	88
137	33
139	3384
140	1874
141	4864
142	949
143	1361
144	108
145	335
146	339
147	453
148	243
149	191
150	46
151	38
159	739
160	103
161	471
162	51
163	96
173	314
175	1021
176	2845
177	755
178	1849
179	252
180	294
