Mass Spectrum: Hexanal, (2,4-dinitrophenyl)hydrazone
Formula: C12 H16 N4 O4
CAS: 1527-97-5
Molecular weight: 280
Origin: Japan AIST/NIMC Database- Spectrum MS-IW-6795
m/z	RELATIVE INTENSITY
14	10
15	50
16	10
17	209
18	1129
25	10
26	159
27	2089
28	1559
29	1759
30	1479
31	30
36	10
37	60
38	239
39	1139
40	239
41	3499
42	639
43	2129
44	389
45	70
46	20
49	10
50	289
51	809
52	629
53	409
54	459
55	5899
56	729
57	449
58	70
59	30
60	10
61	60
62	379
63	1069
64	819
65	639
66	249
67	459
68	359
69	529
70	169
71	129
72	70
73	20
74	169
75	1129
76	789
77	2009
78	1189
79	1249
80	389
81	539
82	439
83	9999
84	679
85	50
86	10
87	30
88	109
89	319
90	569
91	939
92	1239
93	379
94	119
95	90
96	149
97	80
98	149
99	50
100	20
101	60
102	419
103	2059
104	1569
105	529
106	269
107	269
108	109
109	30
110	10
111	20
113	10
114	20
115	189
116	199
117	299
118	319
119	429
120	249
121	119
122	1719
123	169
124	10
125	10
126	10
127	30
128	90
129	209
130	439
131	469
132	319
133	129
134	90
135	199
136	119
137	199
138	219
139	30
140	20
141	30
142	60
143	129
144	189
145	169
146	90
147	199
148	139
149	2729
150	409
151	159
152	1039
153	419
154	70
155	50
156	80
157	209
158	90
159	109
160	169
161	80
162	80
163	109
164	369
165	249
166	169
167	319
168	119
169	90
170	70
171	99
172	70
173	50
174	30
175	169
176	279
177	639
178	139
179	119
180	559
181	819
182	139
183	1119
184	209
185	70
186	40
187	60
188	50
189	139
190	329
191	159
192	90
193	399
194	60
195	30
196	479
197	90
198	40
199	149
200	40
201	50
202	80
203	339
204	119
205	90
206	5939
207	719
208	90
209	40
210	30
211	20
212	10
214	60
215	109
216	109
217	319
218	119
219	40
220	60
221	10
223	319
224	1469
225	149
226	20
228	10
229	20
230	30
231	90
232	30
233	40
234	109
235	80
236	20
237	50
238	10
243	10
244	10
245	159
246	99
247	30
248	10
249	10
250	60
251	129
252	30
261	149
262	30
263	40
264	129
265	40
266	10
276	60
277	10
278	40
279	60
280	3759
281	739
282	99
283	10
