Mass Spectrum: Stannane, butyltrimethyl-
Formula: C7 H18 Sn
CAS: 1527-99-7
Molecular weight: 222
Origin: M.GEILEN UNIVERSITE LIBRE DE BRUXELLES, BELGIUM
m/z	RELATIVE INTENSITY
14	45
15	65
26	65
27	350
28	40
29	540
36	20
38	20
39	220
40	20
41	460
42	65
43	240
50	20
51	20
53	45
55	110
56	110
57	130
112	20
113	20
114	20
115	20
116	470
117	760
118	950
119	1100
120	12
121	1170
122	130
123	170
124	150
125	220
127	110
128	20
129	110
130	220
131	1650
132	1130
133	2720
134	1280
135	3250
136	150
137	560
138	85
139	620
140	20
141	45
142	45
143	300
144	65
145	300
146	620
147	3900
148	2700
149	6300
150	3250
151	8000
152	350
153	1150
154	240
155	1400
156	45
157	320
158	20
159	220
160	150
161	4600
162	2600
163	7500
164	2930
165	9999
166	320
167	1440
168	65
169	1800
170	65
171	20
173	65
174	45
175	110
176	45
177	130
178	15
179	20
181	45
183	20
184	15
185	20
186	15
187	15
188	15
189	20
190	20
191	20
192	20
193	20
199	150
200	120
201	110
202	65
203	2170
204	1280
205	3500
206	1540
207	4700
208	330
209	700
210	65
211	650
218	65
219	45
220	85
221	45
222	110
223	15
224	20
226	20
