Mass Spectrum: Stannane, dibutyldimethyl-
Formula: C10 H24 Sn
CAS: 1528-00-3
Molecular weight: 264
Origin: A.A.Kutin, Moscow, Russia
m/z	RELATIVE INTENSITY
33	32
34	3
36	6
37	3
39	918
40	334
41	1813
43	154
44	100
50	20
51	36
52	7
53	102
55	216
56	75
57	250
112	21
113	52
114	14
116	507
117	1096
118	1065
119	1656
120	1356
121	1844
123	364
124	148
125	313
127	102
129	167
131	1894
132	1132
133	3312
134	1727
135	4498
136	661
137	2168
139	873
141	343
143	450
145	499
147	5568
148	3302
149	8108
150	3605
151	9999
153	1755
155	1938
157	3
158	4
159	35
160	23
161	55
162	28
163	61
164	5
165	13
167	5
169	6
171	19
173	246
174	141
175	359
176	155
177	435
178	20
179	64
181	68
185	56
186	2
187	63
189	1006
190	602
191	1546
192	703
193	1889
195	353
197	353
199	227
201	220
203	3245
204	1899
205	4990
206	2072
207	6091
208	440
209	908
211	1140
212	59
241	12
243	9
245	330
246	199
247	507
248	241
249	654
250	62
251	89
253	98
260	15
261	8
262	27
263	3
264	40
