Mass Spectrum: Cyclopentane, methylene-
Formula: C6 H10
CAS: 1528-30-9
Molecular weight: 82
Origin: Japan AIST/NIMC Database- Spectrum MS-NW-6766
m/z	RELATIVE INTENSITY
14	10
15	60
26	179
27	1089
28	259
29	179
31	10
37	119
38	239
39	2329
40	599
41	2159
42	349
43	80
44	10
49	60
50	349
51	519
52	289
53	999
54	2839
55	289
56	50
61	30
62	50
63	90
64	10
65	359
66	189
67	9999
68	579
69	10
75	10
77	259
78	70
79	539
80	90
81	1429
82	3109
83	219
