Mass Spectrum: 4-Heptanone, 3-ethyl-
Formula: C9 H18 O
CAS: 1528-25-2
Molecular weight: 142
Origin: NIST Mass Spectrometry Data Center, 1990.
m/z	RELATIVE INTENSITY
27	1051
28	379
29	664
32	67
39	987
40	216
41	1858
42	625
43	5644
44	226
51	75
53	212
55	1432
56	99
57	152
65	49
67	97
69	206
71	9999
72	511
83	61
86	161
99	1023
100	106
113	140
114	475
142	664
143	77
