Mass Spectrum: Ethylidenecyclobutane
Formula: C6 H10
CAS: 1528-21-8
Molecular weight: 82
Origin: V.G.Zaikin, TIPS, Russian Acad. Sci.
m/z	RELATIVE INTENSITY
41	2702
42	1151
43	450
49	100
50	600
51	950
52	700
53	2502
54	7907
55	650
56	150
63	150
65	550
66	250
67	9999
68	500
77	200
79	500
80	100
81	1201
82	5454
83	360
84	10
