Mass Spectrum: Butane, 1,2,3,4-tetrabromo-
Formula: C4 H6 Br4
CAS: 1529-68-6
Molecular weight: 370
Origin: RADIAN CORP
m/z	RELATIVE INTENSITY
15	40
25	90
26	1320
27	5710
37	190
38	440
39	2390
40	20
41	30
49	100
50	1660
51	3490
52	1210
53	4420
54	550
79	710
80	380
81	780
82	460
91	10
92	40
93	860
94	60
95	870
104	80
105	1010
106	440
107	1340
108	330
109	390
117	160
119	520
121	380
131	2740
132	1030
133	2050
134	840
158	120
160	290
161	30
162	110
171	130
173	310
175	120
185	540
186	30
187	940
189	510
197	70
199	140
201	50
211	5180
212	40
213	9999
214	40
215	4890
216	50
239	10
241	10
291	950
293	2660
295	2530
297	830
