Mass Spectrum: Dimethylgermanium dichloride
Formula: C2 H6 Cl2 Ge
CAS: 1529-48-2
Molecular weight: 174
Origin: A.A.Kutin, Moscow, Russia
m/z	RELATIVE INTENSITY
33	263
35	262
36	288
37	101
40	223
44	35
48	28
49	119
51	10
70	451
71	240
72	557
73	408
74	752
75	247
76	132
77	19
83	169
84	308
85	972
87	1045
88	1013
89	1368
91	289
99	55
100	34
101	14
102	66
103	93
105	1969
107	3021
109	4399
111	1648
113	162
118	16
119	101
120	228
121	245
122	376
123	296
124	357
125	103
126	129
133	19
135	1443
137	2558
139	3577
141	1516
142	134
143	116
144	145
146	90
147	253
148	19
153	109
155	3662
157	6773
159	9999
161	6131
163	1308
164	9
165	76
167	105
168	10
169	121
170	339
172	774
173	222
174	951
175	172
176	539
177	64
178	99
