Mass Spectrum: Oxypertine
Formula: C23 H29 N3 O2
CAS: 153-87-7
Molecular weight: 379
Origin: Finnigan MAT: Toxicological Library (LIBR-TX)
m/z	RELATIVE INTENSITY
41	94
42	282
56	523
70	2162
71	85
77	428
91	184
104	393
105	186
106	213
120	188
121	213
132	1208
133	107
144	98
146	97
159	105
160	387
161	104
173	388
174	211
175	9999
176	1438
188	195
203	96
204	610
205	95
217	388
218	207
379	614
380	206
