Mass Spectrum: 9,9'-Bi-9H-fluorene
Formula: C26 H18
CAS: 1530-12-7
Molecular weight: 330
Origin: Japan AIST/NIMC Database- Spectrum MS-IW- 38
m/z	RELATIVE INTENSITY
39	10
63	30
69	10
82	20
83	10
87	10
89	20
113	20
115	99
116	10
126	10
137	20
138	20
139	139
140	10
143	10
149	20
150	30
155	10
156	20
161	20
162	90
163	319
164	369
165	9999
166	1559
167	109
298	10
300	10
313	10
322	10
324	40
325	20
326	60
327	40
328	30
329	30
330	1569
331	449
332	60
