Mass Spectrum: 1-Piperidinecarbonitrile
Formula: C6 H10 N2
CAS: 1530-87-6
Molecular weight: 110
Origin: Japan AIST/NIMC Database- Spectrum MS-NW-8577
m/z	RELATIVE INTENSITY
14	20
15	249
25	10
26	299
27	1559
28	2489
29	1089
30	189
32	10
34	10
37	40
38	119
39	1619
40	399
41	4519
42	9999
43	2769
44	279
49	10
50	80
51	149
52	119
53	1059
54	1319
55	4859
56	1379
57	2229
58	80
63	10
64	10
65	149
66	80
67	1119
68	679
69	5609
70	439
71	10
77	10
78	80
79	50
80	90
81	379
82	959
83	349
84	50
92	219
93	60
94	20
95	459
96	30
107	20
108	10
109	5369
110	7379
111	929
112	40
