Mass Spectrum: Heptane, 1,1-diphenyl-
Formula: C19 H24
CAS: 1530-05-8
Molecular weight: 252
Origin: CONTINENTAL OIL CO., PONCA CITY, OKLA, USA
m/z	RELATIVE INTENSITY
13	6
14	14
15	45
16	9
25	5
26	32
27	488
28	135
29	558
30	15
37	8
38	16
39	268
40	37
41	430
42	51
43	303
44	22
49	4
50	45
51	157
52	39
53	41
54	10
55	78
56	22
57	20
61	4
62	16
63	77
64	18
65	143
66	14
67	18
68	6
69	22
70	16
71	5
73	7
74	39
75	51
76	69
77	273
78	110
79	32
80	4
81	9
82	22
83	26
84	4
85	3
86	12
87	30
88	20
89	91
90	22
91	589
92	55
93	4
94	3
95	4
96	3
97	2
98	6
99	7
100	4
101	19
102	78
103	192
104	99
105	55
106	6
110	3
111	5
112	5
113	20
114	17
115	268
116	54
117	77
118	18
119	10
120	3
125	4
126	27
127	42
128	145
129	37
130	9
131	19
132	4
133	5
137	7
139	105
140	24
141	86
142	16
143	7
145	9
147	6
148	5
149	5
150	16
151	81
152	746
153	121
154	20
155	7
159	5
161	5
163	82
164	141
165	1559
166	723
167	9999
168	1475
169	100
170	6
171	12
172	3
173	3
174	4
175	9
176	23
177	22
178	106
179	74
180	43
181	39
182	7
187	2
188	2
189	12
190	5
191	11
192	6
193	24
194	6
195	3
202	4
203	3
205	2
207	6
208	2
209	2
250	9
251	4
252	681
253	141
254	15
256	2
258	2
