Mass Spectrum: Benzene, 1,1'-hexylidenebis-
Formula: C18 H22
CAS: 1530-04-7
Molecular weight: 238
Origin: NIST Mass Spectrometry Data Center
m/z	RELATIVE INTENSITY
15	20
17	10
18	30
26	20
27	460
28	100
29	561
38	10
39	340
40	30
41	460
42	70
43	340
44	10
49	10
50	60
51	240
52	40
53	40
55	80
57	10
62	10
63	140
64	20
65	170
66	10
71	10
74	20
75	30
76	70
77	370
78	110
79	40
81	10
82	60
83	20
86	10
87	20
88	20
89	140
91	661
92	50
98	10
99	10
101	10
102	80
103	200
104	80
105	50
113	30
115	400
116	50
117	70
118	10
119	10
126	30
127	40
128	170
129	30
139	110
140	10
141	90
142	10
150	20
151	170
152	1371
153	210
154	10
162	10
163	90
164	180
165	2272
166	1031
167	9999
168	1431
169	100
176	30
177	20
178	120
179	70
180	20
181	20
189	10
190	10
238	1181
239	250
240	20
