Mass Spectrum: Flavoxate
Formula: C24 H25 N O4
CAS: 15301-69-6
Molecular weight: 391
Origin: Japan AIST/NIMC Database- Spectrum MS-IW-3766
m/z	RELATIVE INTENSITY
26	10
27	40
28	90
29	40
30	60
39	60
41	289
42	279
43	50
44	199
50	20
51	50
52	20
53	30
54	70
55	419
56	119
57	50
58	10
62	20
63	129
64	40
65	40
67	40
68	60
69	189
70	129
71	20
74	10
75	40
76	50
77	99
78	20
79	30
80	20
81	20
82	70
83	90
84	80
85	20
87	10
88	10
89	70
90	10
91	159
92	80
93	20
94	20
95	10
96	509
97	70
98	9999
99	729
100	20
101	10
102	10
103	20
104	40
105	50
106	20
107	10
108	40
109	109
110	159
111	2099
112	209
113	20
114	10
115	339
116	80
117	30
118	10
119	209
120	50
121	30
122	10
124	10
126	20
127	10
128	10
129	10
130	10
131	80
133	10
135	10
139	10
142	10
147	699
148	60
149	20
150	10
151	20
152	30
153	10
163	10
165	10
176	30
177	30
178	80
179	40
181	10
189	20
190	10
191	20
194	30
195	10
205	40
206	10
207	20
218	10
233	10
234	149
235	959
236	439
237	60
249	10
261	40
262	10
263	169
264	40
278	10
279	389
280	169
281	30
304	90
305	50
306	10
307	90
308	20
389	50
390	50
391	90
392	20
