Mass Spectrum: Nickel, bis[bis(2-methylpropyl)carbamodithioato-S,S']-, (SP-4-1)-
Formula: C18 H36 N2 Ni S4
CAS: 15317-78-9
Molecular weight: 466
Origin: P.A. Leclercq, Lab. Instrum. Anal., Eindhoven Univ. Technol., Netherlands
m/z	RELATIVE INTENSITY
41	8320
42	1490
43	1962
44	169
45	698
46	169
47	264
48	75
49	47
50	66
51	75
52	47
53	264
54	179
55	2650
56	1518
57	9999
58	952
59	141
60	1075
61	47
62	254
63	18
64	47
67	56
68	160
69	75
70	254
71	66
72	622
73	641
74	830
75	462
76	358
77	94
78	47
80	56
81	56
82	226
83	37
84	1216
85	207
86	471
87	66
88	311
89	235
90	103
91	84
92	47
93	28
94	103
95	37
96	113
98	122
99	122
100	207
101	132
102	75
103	84
104	75
105	75
106	66
110	56
111	28
112	75
113	613
114	481
115	1028
116	4329
117	377
118	273
119	132
120	66
121	37
122	94
123	37
124	47
125	47
126	103
127	75
128	1367
129	113
130	141
131	75
132	169
133	56
134	132
135	56
136	66
137	37
138	94
139	56
140	386
141	132
142	160
143	141
144	84
145	94
146	254
147	216
148	84
149	273
150	330
151	113
152	141
153	47
154	160
155	28
156	160
157	47
158	75
159	37
160	47
161	37
162	47
163	37
164	37
168	37
169	56
170	132
171	103
172	1735
173	905
174	339
175	188
176	75
177	47
178	56
180	75
181	84
182	94
183	47
184	75
185	94
186	226
187	782
188	330
189	424
190	122
191	66
192	47
194	132
196	75
197	37
198	56
199	56
200	66
201	37
202	66
203	282
204	367
205	726
206	103
207	75
208	37
212	103
213	499
214	94
215	226
216	66
217	56
219	94
221	56
224	37
226	216
227	94
228	547
229	943
230	848
231	481
232	301
233	84
234	56
245	47
260	47
261	37
262	1065
263	292
264	528
265	122
266	56
267	37
271	47
287	75
295	66
297	37
311	37
313	462
314	84
315	179
316	47
317	56
345	47
347	113
349	56
356	37
357	37
402	75
403	66
404	66
405	37
432	66
433	216
434	1103
435	349
436	565
437	122
438	75
439	37
466	4263
467	1113
468	2631
469	915
470	848
471	113
472	113
473	37
