Mass Spectrum: Quinoline, 2-butyl-3-methyl-
Formula: C14 H17 N
CAS: 1531-62-0
Molecular weight: 199
Origin: CARL DJERASSI DEPT OF CHEM STANFORD UNIV STANFORD CALIF 94305
m/z	RELATIVE INTENSITY
41	202
42	101
43	101
50	202
51	303
52	101
53	101
63	404
65	202
75	101
76	101
77	202
88	101
89	404
90	101
91	101
113	101
114	101
115	1212
116	606
117	101
127	101
128	303
129	202
130	202
140	303
141	101
142	707
143	404
144	101
154	202
156	808
157	9999
158	1717
167	303
168	404
170	1414
171	303
184	808
185	101
