Mass Spectrum: Norlevorphanol
Formula: C16 H21 N O
CAS: 1531-12-0
Molecular weight: 243
Origin: A. Brossi, LAC, NIDDK, NIH, Bethesda, MD 20892
m/z	RELATIVE INTENSITY
41	1310
42	723
43	612
44	2276
45	9586
46	554
47	13
49	24
50	67
51	372
52	169
53	432
54	266
55	653
56	607
57	26
58	184
59	32
62	37
63	189
64	72
65	381
66	141
67	440
68	614
69	262
70	136
71	11
72	77
74	25
75	64
76	86
77	937
78	287
79	492
80	350
81	497
82	230
83	91
84	113
86	68
87	38
88	35
89	180
90	83
91	811
92	101
93	286
94	371
95	120
96	94
97	7
98	92
100	83
101	64
102	171
103	346
104	111
105	293
106	179
107	911
108	355
109	382
110	148
111	20
113	47
114	58
115	1349
116	312
117	338
118	142
119	153
120	211
121	317
122	218
123	50
126	65
127	780
128	968
129	517
130	191
131	799
132	407
133	801
134	1200
135	215
136	4827
137	422
139	182
140	53
141	497
142	180
143	147
144	726
145	873
146	1355
147	1081
148	320
149	45
150	38
151	87
152	340
153	294
154	164
155	190
156	110
157	3244
158	1099
159	487
160	393
161	144
162	37
163	13
165	237
166	75
167	124
168	112
169	313
170	719
171	744
172	650
173	186
174	221
175	696
176	95
177	18
178	39
179	60
180	29
181	181
182	101
183	310
184	262
185	310
186	477
187	151
188	86
189	25
193	17
194	12
195	33
196	65
197	209
198	2908
199	1394
200	2771
201	493
202	72
209	8
210	13
211	36
212	76
213	92
214	1594
215	319
216	38
225	9
226	174
227	37
228	272
229	46
240	38
241	41
242	2427
243	9999
244	2547
245	293
246	26
