Mass Spectrum: Methyl 3,6-dichloropyridine-2-carboxylate
Formula: C7 H5 Cl2 N O2
CAS: 1532-24-7
Molecular weight: 205
Origin: A.A.Kutin, Moscow, Russia
m/z	RELATIVE INTENSITY
35	368
36	283
37	600
38	399
39	313
40	161
41	232
42	197
43	313
44	288
45	40
47	338
48	101
49	1181
50	1367
51	605
52	187
53	479
55	313
56	197
58	383
59	2800
60	1186
61	424
62	913
63	621
64	600
65	45
67	40
69	131
71	172
73	938
74	732
75	3789
76	3007
77	272
82	172
84	903
85	1100
86	600
87	383
88	101
90	156
94	96
95	217
96	40
97	217
99	394
101	45
104	146
105	50
110	5781
111	1231
112	2371
113	489
114	192
119	298
120	50
121	328
126	202
127	106
129	91
142	212
144	116
146	6296
147	9999
148	4142
149	6013
150	908
151	832
156	166
161	45
174	2482
175	1872
176	1509
177	1140
178	288
179	131
180	55
181	141
183	202
201	86
205	1756
206	50
207	1186
208	192
209	212
210	136
213	50
