Mass Spectrum: Isoquinoline, 4-bromo-
Formula: C9 H6 Br N
CAS: 1532-97-4
Molecular weight: 207
Origin: Japan AIST/NIMC Database- Spectrum MS-NW-4240
m/z	RELATIVE INTENSITY
25	20
26	70
27	119
28	10
36	40
37	249
38	289
39	359
40	30
41	30
43	10
44	10
45	10
48	30
49	289
50	1399
51	1569
52	219
53	30
56	20
57	20
60	60
61	369
62	579
63	489
64	279
65	20
69	30
72	30
73	199
74	1549
75	2529
76	609
77	1799
78	179
79	50
80	30
81	50
82	30
83	20
84	30
85	50
86	90
87	129
88	80
89	40
90	629
91	599
93	10
96	10
97	70
98	409
99	459
100	679
101	3409
102	1009
103	249
104	239
105	30
106	20
107	30
114	10
116	10
117	20
118	10
119	10
123	20
124	10
126	139
127	989
128	9999
129	2129
130	159
131	20
133	20
134	99
135	20
141	40
143	40
152	10
153	20
154	10
155	20
179	20
180	60
181	30
182	50
206	80
207	9959
208	1079
209	9559
210	989
211	50
