Mass Spectrum: 3-Phenylbutyrophenone
Formula: C16 H16 O
CAS: 1533-20-6
Molecular weight: 224
Origin: NIST Mass Spectrometry Data Center, 1994
m/z	RELATIVE INTENSITY
15	29
17	18
18	54
26	9
27	506
28	67
32	1
37	16
38	120
39	1055
40	88
41	701
42	65
43	19
50	777
51	2972
52	330
53	159
54	11
55	32
57	9
58	10
61	18
62	97
63	340
64	76
65	485
66	53
67	12
69	98
73	16
74	103
75	192
76	12
77	7304
78	1283
79	909
80	56
81	8
86	16
87	30
89	187
91	1572
92	142
93	11
94	12
98	13
101	39
102	182
103	947
104	11
105	9999
106	850
107	115
112	38
115	275
116	55
117	187
118	341
119	340
120	1900
121	183
122	12
126	10
127	29
128	54
129	55
130	10
131	662
132	83
133	33
139	12
145	60
146	51
147	66
151	19
152	44
153	23
165	61
166	39
167	23
176	12
178	39
179	27
181	96
182	22
189	15
191	135
192	20
194	27
195	29
196	8
203	11
204	12
205	29
206	73
207	38
208	8
209	2136
210	365
211	32
221	10
222	14
224	1376
225	236
226	24
