Mass Spectrum: Methyl thiolacetate
Formula: C3 H6 O S
CAS: 1534-08-3
Molecular weight: 90
m/z	RELATIVE INTENSITY
29	90
41	60
42	550
43	9999
44	250
45	880
46	320
47	880
48	360
49	50
57	20
58	50
59	50
60	30
61	30
75	150
90	2100
91	50
92	100
