Mass Spectrum: 3-Dodecanone
Formula: C12 H24 O
CAS: 1534-27-6
Molecular weight: 184
Origin: Japan AIST/NIMC Database- Spectrum MS-NW-3413
m/z	RELATIVE INTENSITY
14	10
15	40
18	30
26	90
27	1239
28	219
29	3909
30	90
31	50
32	60
38	20
39	739
40	149
41	2559
42	639
43	4089
44	159
45	40
50	20
51	50
52	30
53	249
54	179
55	1409
56	409
57	6799
58	309
59	90
63	10
65	40
66	20
67	369
68	149
69	629
70	199
71	2849
72	9999
73	2399
74	109
75	10
77	30
79	50
80	10
81	499
82	139
83	219
84	119
85	2789
86	229
87	30
91	10
93	10
95	589
96	149
97	90
98	70
99	259
100	50
109	70
110	319
111	60
112	149
113	80
114	129
121	10
123	20
124	20
127	229
128	80
137	159
138	30
141	119
142	50
155	3569
156	429
157	40
166	50
183	40
184	439
185	60
