Mass Spectrum: Nicofuranose
Formula: C30 H24 N4 O10
CAS: 15351-13-0
Molecular weight: 600
Origin: Finnigan MAT: Toxicological Library (LIBR-TX)
m/z	RELATIVE INTENSITY
45	485
49	395
50	2606
51	4736
52	1309
53	412
68	218
75	197
76	287
77	2264
78	6844
79	506
105	4669
106	6996
107	496
123	9999
124	586
