Mass Spectrum: Benzene, 1-(1,1-dimethylethoxy)-4-methyl-
Formula: C11 H16 O
CAS: 15359-98-5
Molecular weight: 164
m/z	RELATIVE INTENSITY
41	631
51	631
53	631
57	631
65	631
77	1251
78	500
79	751
80	500
91	751
94	631
105	631
107	2502
108	9999
109	1251
121	751
149	1001
164	751
