Mass Spectrum: Hydroxylupanine
Formula: C15 H24 N2 O2
CAS: 15358-48-2
Molecular weight: 264
m/z	RELATIVE INTENSITY
51	240
52	240
53	1301
54	1802
55	4704
56	2602
57	721
58	1021
65	480
66	360
67	1802
68	2042
69	1321
70	1441
71	120
75	240
77	721
78	240
79	841
80	1561
81	961
82	1682
83	721
84	1321
91	420
92	240
93	901
94	1922
95	1802
96	1561
97	601
98	1081
99	480
105	240
106	721
107	540
108	1802
109	721
110	721
111	420
112	3423
113	2762
114	2042
115	240
117	120
118	240
119	120
120	841
121	601
122	1201
123	480
124	601
125	120
126	1081
127	601
132	480
133	240
134	2883
135	601
136	721
137	360
138	601
139	300
140	581
141	120
146	480
147	661
148	1682
149	1682
150	2042
151	961
152	9999
153	1441
154	180
162	120
163	360
164	1441
165	4444
166	3003
167	781
176	120
177	180
178	240
179	120
180	120
191	240
192	480
193	841
194	120
204	240
205	240
206	240
207	601
208	180
209	120
218	180
219	601
220	240
221	240
222	180
223	180
231	661
235	360
236	120
245	2582
246	5225
247	2823
248	420
249	120
262	120
263	841
264	6005
265	1201
266	120
