Mass Spectrum: Benzene, 1-(1,1-dimethylethoxy)-2-methyl-
Formula: C11 H16 O
CAS: 15359-96-3
Molecular weight: 164
m/z	RELATIVE INTENSITY
41	1001
42	250
50	500
51	500
52	500
53	500
57	1251
65	631
77	1251
78	631
79	1131
80	751
89	631
90	1251
91	1251
107	2502
108	9999
109	1381
149	1001
164	500
