Mass Spectrum: 3-Cyclohexen-1-ol, 1-(1,5-dimethyl-4-hexenyl)-4-methyl-
Formula: C15 H26 O
CAS: 15352-77-9
Molecular weight: 222
Origin: NIST Mass Spectrometry Data Center, 2010
m/z	RELATIVE INTENSITY
26	10
27	270
28	50
29	390
30	10
31	70
37	10
38	20
39	811
40	250
41	4094
42	400
43	2052
44	50
45	100
50	30
51	180
52	100
53	1291
54	290
55	3133
56	901
57	1692
58	80
59	340
60	10
62	10
63	50
64	10
65	450
66	170
67	3153
68	1071
69	4304
70	731
71	310
72	2903
73	170
74	10
75	10
76	10
77	1161
78	180
79	1071
80	200
81	1341
82	9999
83	3193
84	781
85	360
86	40
89	10
90	10
91	1241
92	460
93	5985
94	981
95	1161
96	220
97	611
98	480
99	30
100	10
102	10
103	60
104	20
105	741
106	130
107	1481
108	320
109	921
110	901
111	4434
112	561
113	50
115	40
116	20
117	60
118	40
119	3153
120	500
121	4044
122	2873
123	440
124	80
125	330
126	150
127	20
128	20
129	10
132	20
133	250
134	380
135	510
136	70
137	90
138	30
139	420
140	761
141	100
142	10
145	20
146	10
147	210
148	170
149	80
151	170
152	30
153	150
154	260
155	30
157	10
160	10
161	781
162	150
166	10
175	30
176	10
189	180
190	30
193	10
203	10
204	1531
205	260
206	20
222	50
223	10
