Mass Spectrum: Benzenamine, 2-(trifluoromethoxy)-
Formula: C7 H6 F3 N O
CAS: 1535-75-7
Molecular weight: 177
Origin: NIST Mass Spectrometry Data Center, 1994
m/z	RELATIVE INTENSITY
15	27
17	26
18	50
25	72
26	496
27	1039
28	1866
29	57
30	144
37	425
38	975
39	1513
40	314
41	669
42	134
44	41
45	52
46	181
47	191
48	38
49	224
50	1198
51	1659
52	2931
53	3205
54	765
55	62
57	125
61	201
62	331
63	967
64	975
65	961
66	175
67	62
68	62
69	2946
70	61
75	131
76	171
77	83
78	454
79	631
80	9999
81	650
82	84
83	474
84	56
89	91
90	379
91	260
92	1417
93	99
101	192
102	55
106	51
108	5976
109	1081
110	135
128	293
137	2334
138	308
148	157
149	120
156	80
157	420
158	43
177	7363
178	604
