Mass Spectrum: Benzenamine, 2,3,4,5,6-pentafluoro-N-(pentafluorophenyl)-
Formula: C12 H F10 N
CAS: 1535-92-8
Molecular weight: 349
Origin: J.M. MILLER,BROCK UNIVERSITY,ONTARIO,CANADA
m/z	RELATIVE INTENSITY
31	120
68	20
69	552
70	48
74	100
75	80
76	28
79	92
80	12
81	28
82	28
85	40
86	160
87	28
93	752
94	24
98	280
99	152
100	80
105	248
106	240
108	40
110	48
117	1604
118	100
124	252
131	180
136	280
137	340
139	532
140	60
148	152
149	40
150	10
155	3088
156	184
162	372
163	21
165	80
166	10
167	300
168	100
174	100
175	13
182	972
183	63
186	10
193	140
194	10
203	80
210	132
222	72
229	100
230	200
231	22
234	112
241	168
242	28
248	140
249	48
260	180
261	252
262	30
265	80
272	500
273	62
279	1404
280	1604
281	193
292	160
298	440
299	700
300	85
303	272
304	34
310	3960
311	438
322	280
323	31
329	280
330	3140
331	432
348	380
349	9999
350	1362
351	81
