Mass Spectrum: Benzene, 1-(1,1-dimethylethoxy)-4-methoxy-
Formula: C11 H16 O2
CAS: 15360-00-6
Molecular weight: 180
m/z	RELATIVE INTENSITY
41	1001
43	250
54	631
57	631
63	380
64	380
65	380
79	631
81	751
105	500
107	751
108	631
109	4754
110	500
124	9999
125	1251
165	1131
180	631
