Mass Spectrum: Naphthalene, 1,1'-(1,2-ethanediyl)bis-
Formula: C22 H18
CAS: 15374-45-5
Molecular weight: 282
Origin: Japan AIST/NIMC Database- Spectrum MS-IW-3984
m/z	RELATIVE INTENSITY
28	20
39	20
44	10
51	10
57	10
63	30
65	20
71	10
75	10
76	10
77	20
78	20
89	40
91	40
101	10
102	10
113	30
114	10
115	889
116	90
119	10
125	20
126	50
127	20
128	30
129	10
131	20
132	30
133	10
137	20
138	60
139	249
140	80
141	9999
142	1239
143	70
150	10
151	20
152	90
153	99
154	30
155	10
158	10
165	10
239	10
250	10
252	20
253	10
263	30
264	10
265	80
266	40
267	10
276	50
277	40
278	30
279	40
280	30
281	70
282	2569
283	619
284	70
