Mass Spectrum: 2,2-Dimethylpropanoic anhydride
Formula: C10 H18 O3
CAS: 1538-75-6
Molecular weight: 186
Origin: Japan AIST/NIMC Database- Spectrum MS-NW-5678
m/z	RELATIVE INTENSITY
14	10
15	80
16	10
18	10
26	30
27	309
28	169
29	1049
30	20
31	10
32	20
37	10
38	30
39	519
40	109
41	1709
42	249
43	179
44	30
45	30
50	20
51	20
53	30
54	10
55	129
56	259
57	9999
58	459
59	99
69	20
70	40
71	10
85	3639
86	219
87	90
