Mass Spectrum: Butane, 1,4-bis(methylthio)-
Formula: C6 H14 S2
CAS: 15394-33-9
Molecular weight: 150
m/z	RELATIVE INTENSITY
15	160
26	90
29	591
31	90
32	80
33	90
34	210
35	741
39	571
41	1381
42	90
43	250
44	60
45	1661
46	701
47	1181
48	470
49	390
50	60
51	80
53	440
54	781
55	2092
56	210
57	190
58	240
59	621
60	310
61	9999
62	360
63	470
67	80
69	110
71	140
73	110
74	2032
75	430
76	150
79	90
81	70
83	80
85	260
87	1862
88	190
89	160
93	410
94	60
95	80
97	60
101	70
102	1241
103	911
104	120
105	80
135	2522
136	190
137	250
150	3423
151	300
152	330
