Mass Spectrum: Diphenyl terephthalate
Formula: C20 H14 O4
CAS: 1539-04-4
Molecular weight: 318
Origin: NIST Mass Spectrometry Data Center, 1994
m/z	RELATIVE INTENSITY
14	2
27	16
28	12
32	3
37	14
38	58
39	394
40	30
50	342
51	121
53	25
62	26
63	101
64	59
65	530
66	51
74	74
75	196
76	1193
77	182
91	15
92	12
93	75
94	38
102	9
104	2519
105	182
115	177
116	17
132	1207
133	117
139	54
141	138
142	18
152	13
168	26
169	109
170	17
196	38
197	323
198	49
225	9999
226	1523
227	167
228	15
318	911
319	194
320	26
