Mass Spectrum: Naphtho[2,3-b]furan-9(4H)-one, 4a,5,6,7,8,8a-hexahydro-3,4a,5-trimethyl-, [4aR-(4a.alpha.,5.alpha.,8a.alpha.)]-
Formula: C15 H20 O2
CAS: 15404-32-7
Molecular weight: 232
Origin: T. CLERC
m/z	RELATIVE INTENSITY
31	1379
39	1207
40	517
41	2414
42	948
43	9999
44	603
45	2414
51	431
53	690
55	1379
58	6206
59	1293
65	862
66	172
67	1810
69	1896
71	431
77	1293
78	431
79	1379
80	431
81	1293
82	776
91	2241
92	345
93	1379
94	1034
95	1552
105	1207
106	431
107	1034
108	1638
109	4224
110	862
119	1552
121	862
122	6896
123	3448
133	603
135	690
137	517
138	862
145	431
147	690
149	1293
150	1552
159	517
161	3793
162	1379
163	1724
175	2586
176	862
177	862
189	1034
203	431
204	862
217	6465
232	7758
