Mass Spectrum: 2,4-Pentanedione, 3-butyl-
Formula: C9 H16 O2
CAS: 1540-36-9
Molecular weight: 156
Origin: DC-3-5
m/z	RELATIVE INTENSITY
39	601
40	100
41	801
42	300
43	8007
44	400
45	300
51	100
53	400
54	100
55	701
56	100
57	1601
58	2402
59	1001
60	701
67	100
69	300
70	200
71	9999
72	1501
73	300
74	100
81	300
82	100
83	300
84	400
85	3203
86	400
87	400
88	400
89	200
95	300
96	200
97	100
98	100
99	500
100	3904
101	1501
102	200
113	2602
114	2002
115	300
116	100
123	100
138	100
141	200
144	100
156	801
