Mass Spectrum: 5-Ethyl bicyclo[2.2.1]-2-heptene
Formula: C9 H14
CAS: 15403-89-1
Molecular weight: 122
Origin: NIST Mass Spectrometry Data Center, 1990.
m/z	RELATIVE INTENSITY
15	33
26	54
27	401
28	171
29	184
38	118
39	1032
40	320
41	462
42	38
50	151
51	369
52	142
53	242
54	38
55	127
62	62
63	188
65	1141
66	9999
67	797
68	39
77	757
78	249
79	706
80	224
81	77
91	548
92	93
93	265
94	66
107	48
122	467
123	55
