Mass Spectrum: Acetamide, N-(2-methylpropyl)-
Formula: C6 H13 N O
CAS: 1540-94-9
Molecular weight: 115
Origin: J.A.GILPIN DOW CHEM. CO., MIDLAND, MICHIGAN, USA
m/z	RELATIVE INTENSITY
15	400
27	300
28	400
29	400
30	9999
31	400
41	700
42	300
43	3100
44	300
45	100
55	200
56	400
57	200
58	1300
59	60
60	1800
71	30
72	3100
73	600
74	100
86	60
87	10
100	1200
101	80
114	10
115	1100
116	200
