Mass Spectrum: Cyclohexanone, 2-[(dimethylamino)methyl]-
Formula: C9 H17 N O
CAS: 15409-60-6
Molecular weight: 155
m/z	RELATIVE INTENSITY
13	13
14	66
15	387
16	20
17	15
18	70
26	233
27	1321
28	750
29	398
30	364
31	55
32	91
36	20
37	84
38	256
39	2562
40	1269
41	2585
42	1753
43	865
44	3598
45	1947
46	85
49	34
50	269
51	410
52	256
53	1133
54	3211
55	1412
56	199
57	261
58	9999
59	449
60	39
61	39
62	62
63	108
64	28
65	296
66	290
67	6490
68	888
69	375
70	216
71	70
72	68
73	48
74	39
75	17
77	398
78	103
79	1099
80	148
81	1093
82	2122
83	300
84	102
85	44
87	20
91	227
92	76
93	159
94	387
95	239
96	79
97	142
98	707
99	62
100	15
103	18
104	22
105	28
107	38
108	34
109	201
110	3849
111	523
112	133
113	34
114	22
115	17
117	26
118	17
119	18
120	13
121	36
122	449
123	160
124	79
125	38
126	47
127	11
129	11
130	11
131	13
132	12
133	21
134	22
135	47
136	38
137	47
138	44
139	34
140	22
141	12
142	11
143	11
144	11
145	11
146	12
147	21
148	14
149	22
150	17
151	36
