Mass Spectrum: 2,4-Pentanedione, 3-(1-methylethyl)-
Formula: C8 H14 O2
CAS: 1540-38-1
Molecular weight: 142
Origin: ORMSBG,9(1)6(1974); VANDEWALLE
m/z	RELATIVE INTENSITY
39	600
40	100
41	700
42	200
43	9999
44	200
45	200
58	400
67	700
69	200
85	9600
86	500
99	300
100	3200
101	4400
