Mass Spectrum: 3-n-Propyl-2,4-pentanedione
Formula: C8 H14 O2
CAS: 1540-35-8
Molecular weight: 142
Origin: NIST Mass Spectrometry Data Center
m/z	RELATIVE INTENSITY
14	10
15	300
26	70
27	691
29	320
31	40
37	10
38	50
39	601
40	60
41	571
42	300
43	9999
44	260
45	80
50	70
51	110
52	40
53	330
54	60
55	671
56	60
57	120
58	641
59	50
61	10
63	10
65	30
66	10
67	90
68	10
69	100
71	8628
72	440
73	20
77	30
79	110
80	10
81	90
82	20
83	80
84	30
85	1101
86	50
95	80
97	10
98	10
99	90
100	3673
101	270
102	20
109	20
113	891
114	50
127	140
128	10
142	210
143	40
