Mass Spectrum: 2,4-Pentanedione, 3-ethyl-
Formula: C7 H12 O2
CAS: 1540-34-7
Molecular weight: 128
Origin: Japan AIST/NIMC Database- Spectrum MS-IW-3476
m/z	RELATIVE INTENSITY
14	60
15	709
16	10
26	109
27	689
28	169
29	389
30	10
31	90
37	40
38	119
39	799
40	139
41	939
42	419
43	9999
44	439
45	299
49	10
50	60
51	80
52	20
53	289
54	30
55	359
56	20
57	149
58	739
59	70
60	40
61	50
62	20
63	30
65	109
66	30
67	1049
68	119
69	429
70	70
71	9709
72	489
73	40
74	20
82	10
83	40
84	50
85	1749
86	5999
87	519
88	50
95	169
96	10
97	10
98	10
100	889
101	90
102	249
103	10
109	10
111	40
112	10
113	2879
114	189
115	20
127	10
128	1329
129	119
130	10
