Mass Spectrum: 2,3-Dimethoxyamphetamine
Formula: C11 H17 N O2
CAS: 15402-81-0
Molecular weight: 195
Origin: Dr. Jiri Zamecnik, DCIEM, North York, Canada, GP Library
m/z	RELATIVE INTENSITY
42	220
44	9999
45	380
65	410
77	330
78	190
79	140
91	670
93	90
94	80
105	170
106	190
107	130
121	100
122	90
135	140
136	370
137	300
148	90
152	1130
153	110
163	150
164	790
165	110
176	100
180	50
195	80
