Mass Spectrum: 1,5-Heptadiene
Formula: C7 H12
CAS: 1541-23-7
Molecular weight: 96
Origin: Japan AIST/NIMC Database- Spectrum MS-NW-3159
m/z	RELATIVE INTENSITY
15	40
26	99
27	1009
28	80
29	1659
30	30
37	40
38	119
39	1809
40	199
41	959
42	99
43	20
49	10
50	109
51	199
52	90
53	809
54	1049
55	9999
56	449
57	30
61	10
62	30
63	60
64	10
65	119
66	179
67	1459
68	589
69	40
74	10
77	119
78	30
79	179
80	40
81	2889
82	199
91	40
93	20
95	90
96	359
97	30
