Mass Spectrum: 1,5-Hexadiene, 3-methyl-
Formula: C7 H12
CAS: 1541-33-9
Molecular weight: 96
Origin: Japan AIST/NIMC Database- Spectrum MS-IW-3648
m/z	RELATIVE INTENSITY
15	50
26	129
27	1559
28	209
29	2439
30	50
37	70
38	199
39	2909
40	339
41	1789
42	179
43	40
49	20
50	239
51	429
52	189
53	1739
54	1659
55	9999
56	769
57	20
61	20
62	50
63	90
64	10
65	209
66	289
67	2369
68	1209
69	109
70	10
74	20
75	10
77	269
78	50
79	499
80	70
81	5239
82	349
83	10
91	50
93	20
95	209
96	40
