Mass Spectrum: 1,5-Cyclodecadiene, 1,5-dimethyl-8-(1-methylethylidene)-, (E,E)-
Formula: C15 H24
CAS: 15423-57-1
Molecular weight: 204
Origin: NIST Mass Spectrometry Data Center, 2010
m/z	RELATIVE INTENSITY
26	10
27	550
28	50
29	581
30	10
37	10
38	40
39	1822
40	681
41	3733
42	480
43	961
44	30
50	100
51	561
52	300
53	2742
54	310
55	2342
56	150
57	260
58	40
59	10
61	10
62	30
63	200
64	90
65	1171
66	430
67	4854
68	1371
69	1261
70	90
71	70
72	30
73	40
74	30
75	30
76	40
77	2562
78	520
79	3453
80	851
81	3623
82	400
83	611
84	60
85	10
86	10
87	40
88	20
89	60
90	20
91	3823
92	701
93	5575
94	811
95	971
96	140
97	180
98	20
101	10
102	50
103	330
104	120
105	5115
106	1231
107	4984
108	2042
109	1001
110	100
111	10
114	10
115	370
116	130
117	440
118	110
119	4094
120	1291
121	9999
122	2642
123	711
124	140
125	10
127	50
128	160
129	160
130	80
131	300
132	80
133	2873
134	741
135	731
136	561
137	60
139	10
141	50
142	20
143	40
144	20
145	240
146	100
147	1782
148	951
149	591
150	70
152	10
153	10
155	10
158	10
159	70
160	70
161	2282
162	460
163	70
164	10
173	20
174	30
175	200
176	80
177	10
187	10
188	10
189	1491
190	220
191	20
203	10
204	1722
205	290
206	20
