Mass Spectrum: 3-Fluorobenzoic acid, 3-methylbut-2-enyl ester
Formula: C12 H13 F O2
CAS: 154559-38-3
Molecular weight: 208
Origin: Zaikin V.G., TIPS RAS, Moscow, Russia
m/z	RELATIVE INTENSITY
26	30
27	260
28	70
29	190
39	430
40	240
41	1862
42	190
43	40
44	90
50	160
51	150
52	80
53	761
54	80
55	90
57	110
63	30
65	40
66	60
67	2282
68	5555
69	2662
70	170
74	80
75	651
76	60
79	70
83	60
85	530
94	150
95	2622
96	290
97	70
122	20
123	9999
124	791
125	50
127	30
140	420
141	120
147	30
149	50
152	30
163	60
165	30
166	40
175	40
208	220
209	20
