Mass Spectrum: N-(2-Hydroxyethyl)-4-cyclohexene-1,2-dicarboximide
Formula: C10 H13 N O3
CAS: 15458-48-7
Molecular weight: 195
Origin: NIST Mass Spectrometry Data Center, 1994
m/z	RELATIVE INTENSITY
12	41
13	3
14	39
15	591
16	23
17	13
18	85
19	107
26	408
27	2253
28	1817
29	718
30	2206
31	2412
32	27
37	63
38	279
39	2451
40	411
41	805
42	704
43	430
44	476
45	144
46	283
47	18
50	599
51	1611
52	965
53	1358
54	847
55	603
56	1293
57	199
58	1002
60	135
61	579
62	78
63	188
64	73
65	503
66	258
67	368
68	235
69	94
70	595
71	179
72	178
75	56
77	4365
78	1900
79	9999
80	4047
81	3232
82	678
83	260
84	39
85	37
86	39
88	253
89	186
91	419
92	90
93	375
94	150
95	109
96	393
97	88
98	336
99	23
105	392
106	344
107	635
108	360
109	204
110	183
111	364
112	28
117	15
118	55
119	24
120	105
121	49
122	219
123	66
124	56
125	57
132	22
133	26
134	139
135	82
136	223
137	53
140	25
148	1606
149	646
150	106
151	25
152	4237
153	384
154	36
160	27
162	85
164	206
165	399
166	146
167	52
176	177
177	1087
178	140
195	1849
196	215
197	12
