Mass Spectrum: Arsine, silyl-
Formula: As H5 Si
CAS: 15455-99-9
Molecular weight: 108
Origin: F.E.SAALFELD CHEM. DEPT., U.S. NAVAL RES. LAB., WASH. D.C.
m/z	RELATIVE INTENSITY
75	5610
76	4230
77	4260
103	4160
104	9010
105	2250
106	9999
107	1810
108	5900
