Mass Spectrum: p-Toluic acid, 3-methylbut-2-enyl ester
Formula: C13 H16 O2
CAS: 154559-35-0
Molecular weight: 204
Origin: Zaikin V.G., TIPS RAS, Moscow, Russia
m/z	RELATIVE INTENSITY
27	140
28	30
29	80
36	50
38	30
39	360
40	110
41	1281
42	90
43	40
44	30
50	50
51	100
52	40
53	330
54	40
55	30
62	30
63	140
64	40
65	631
66	60
67	851
68	3223
69	2412
70	120
77	60
85	320
89	180
90	130
91	1952
92	270
93	120
105	50
107	40
118	30
119	9999
120	721
121	60
135	70
136	500
137	530
138	40
145	140
148	50
159	80
161	40
171	30
175	40
204	470
205	60
