Mass Spectrum: 3-Decenoic acid
Formula: C10 H18 O2
CAS: 15469-77-9
Molecular weight: 170
Origin: Japan AIST/NIMC Database- Spectrum MS-IW-2573
m/z	RELATIVE INTENSITY
14	10
15	70
17	60
18	269
26	119
27	2789
28	639
29	4099
30	99
31	119
32	40
37	20
38	99
39	2629
40	469
41	7079
42	3129
43	9999
44	409
45	929
46	30
47	20
50	90
51	269
52	169
53	1329
54	2919
55	7659
56	4219
57	2289
58	659
59	259
60	1379
61	169
62	20
63	50
64	10
65	249
66	209
67	2169
68	2619
69	4399
70	2229
71	1579
72	159
73	2099
74	179
75	20
77	179
78	60
79	359
80	169
81	2249
82	1329
83	1469
84	2669
85	539
86	659
87	999
88	139
89	10
91	60
92	30
93	80
94	139
95	929
96	1219
97	829
98	699
99	969
100	1429
101	849
102	139
103	10
105	50
106	20
107	30
108	539
109	489
110	2529
111	769
112	80
113	349
114	729
115	169
116	30
119	50
120	10
121	20
122	10
123	799
124	289
125	70
126	20
127	279
128	80
129	30
133	10
134	189
135	30
137	80
138	10
139	40
140	10
141	90
142	10
151	20
152	1149
153	149
154	10
155	10
170	149
171	20
