Mass Spectrum: 4-Hydroxy-2-trifluoromethylpyrimidine
Formula: C5 H3 F3 N2 O
CAS: 1546-80-1
Molecular weight: 164
Origin: NIST Mass Spectrometry Data Center
m/z	RELATIVE INTENSITY
12	270
13	390
14	931
15	250
16	40
17	20
19	300
20	110
24	170
25	671
26	3563
27	891
28	2652
29	861
31	1672
32	70
34	60
36	80
37	180
38	1151
39	1942
40	7727
41	2903
42	3683
43	681
44	190
45	30
46	130
47	280
50	1531
51	1251
52	1271
53	3083
54	410
55	60
57	120
58	110
59	70
62	70
63	30
64	50
65	230
67	4214
68	1992
69	7297
70	310
71	50
72	30
73	80
74	10
76	801
77	410
78	90
79	200
80	130
81	80
82	30
85	20
86	190
87	20
89	571
90	270
91	170
92	160
93	120
95	9999
96	1822
97	60
100	20
101	40
108	200
109	30
116	781
118	1051
119	50
120	150
121	50
127	20
136	5255
137	350
138	20
145	1521
146	80
147	20
162	30
164	9999
165	671
166	40
