Mass Spectrum: N,N-Dimethyltrifluoroacetamide
Formula: C4 H6 F3 N O
CAS: 1547-87-1
Molecular weight: 141
Origin: NIST Mass Spectrometry Data Center, 1990.
m/z	RELATIVE INTENSITY
14	280
15	1617
16	55
17	55
18	1008
26	44
27	300
28	979
29	192
30	47
31	249
32	66
33	193
38	75
39	126
40	407
41	447
42	3215
43	699
44	337
45	44
46	43
50	538
51	91
55	73
56	1149
57	94
60	749
64	177
69	3230
70	89
72	9999
73	389
74	43
76	77
78	1299
79	62
80	53
90	335
96	59
97	167
98	33
106	126
110	223
112	186
126	262
133	23
140	724
141	4330
142	228
