Mass Spectrum: 4-Acetoxycinnamic acid
Formula: C11 H10 O4
CAS: 15486-19-8
Molecular weight: 206
Origin: NIST Mass Spectrometry Data Center, 1990.
m/z	RELATIVE INTENSITY
13	31
14	74
15	500
18	14
26	74
27	226
28	63
29	123
37	62
38	280
39	769
40	94
41	137
42	62
43	3031
44	132
45	141
49	42
50	209
51	459
52	133
53	306
54	53
55	163
61	108
62	487
63	1011
64	364
65	945
66	107
67	75
68	53
69	314
73	39
74	140
75	166
76	133
77	577
78	154
79	326
80	41
81	61
82	31
86	36
87	45
88	70
89	709
90	357
91	1103
92	161
93	82
94	130
95	151
101	69
102	63
104	26
105	47
106	63
107	634
108	91
110	80
118	1490
119	1323
120	213
121	166
122	94
123	201
134	37
135	232
136	394
137	61
146	574
147	3066
148	297
149	67
151	32
163	3373
164	9999
165	1048
166	128
189	53
206	729
207	98
