Mass Spectrum: p-Dimethylaminobenzylidene p-phenetidine
Formula: C17 H20 N2 O
CAS: 15484-93-2
Molecular weight: 268
Origin: NIST Mass Spectrometry Data Center, 1994
m/z	RELATIVE INTENSITY
12	13
15	102
16	16
17	6
18	31
26	48
27	631
28	169
29	936
30	21
38	85
39	433
40	39
41	50
42	348
43	38
44	45
50	137
51	269
52	116
53	79
54	20
55	41
56	14
57	49
62	77
63	369
64	248
65	639
66	87
67	31
68	23
69	20
71	41
75	62
76	167
77	440
78	136
79	122
80	31
81	15
84	86
85	31
87	23
88	53
89	198
90	120
91	258
92	139
93	225
94	55
97	49
98	43
99	18
101	35
102	127
103	110
104	163
105	261
106	72
111	76
112	55
113	42
114	55
115	197
116	124
117	128
118	192
119	506
120	724
126	28
127	64
128	107
129	93
130	70
131	65
132	56
133	22
134	69
139	182
140	151
141	134
142	82
143	136
144	68
145	407
146	138
147	67
151	40
152	66
153	56
154	103
155	54
156	20
157	20
158	59
159	47
164	13
166	264
167	561
168	317
169	155
170	34
171	24
178	42
179	53
180	41
181	44
182	35
183	125
184	256
185	42
192	16
193	33
194	146
195	525
196	193
197	35
207	56
208	32
209	69
210	114
211	246
212	273
213	42
221	21
223	997
224	210
225	63
237	66
239	9999
240	1705
241	161
242	13
251	19
252	27
253	14
254	13
265	17
268	5305
269	944
270	91
