Mass Spectrum: Acetic acid, trifluoro-, cyclohexyl ester
Formula: C8 H11 F3 O2
CAS: 1549-45-7
Molecular weight: 196
Origin: NIST Mass Spectrometry Data Center, 2010
m/z	RELATIVE INTENSITY
15	30
26	60
27	581
28	210
29	460
31	40
37	20
38	80
39	1291
40	260
41	2542
42	460
43	530
44	80
46	20
47	30
50	260
51	210
52	110
53	681
54	3013
55	3653
56	651
57	110
59	340
60	30
61	10
62	10
63	40
64	10
65	210
67	9909
68	611
69	3483
71	40
72	10
73	20
74	10
75	10
77	240
78	120
79	661
80	120
81	1331
82	9999
83	6045
84	370
85	40
91	10
97	310
98	20
99	180
106	10
112	210
113	20
115	20
125	350
126	20
127	20
140	160
141	20
153	450
154	30
166	10
167	10
