Mass Spectrum: Propane, 1-iodo-2,2-dimethyl-
Formula: C5 H11 I
CAS: 15501-33-4
Molecular weight: 198
Origin: RADIAN CORP
m/z	RELATIVE INTENSITY
14	40
15	230
26	110
27	980
28	140
29	1000
30	10
37	80
38	220
39	1880
40	300
41	2810
42	250
43	5420
44	220
49	30
50	180
51	210
52	70
53	480
54	110
55	3000
56	930
57	620
58	30
67	20
69	90
70	10
71	9999
72	620
91	20
92	30
127	950
128	220
139	20
140	30
141	270
142	20
155	220
167	10
183	860
184	40
198	920
199	50
