Mass Spectrum: Propane, 2-(methylthio)-
Formula: C4 H10 S
CAS: 1551-21-9
Molecular weight: 90
m/z	RELATIVE INTENSITY
1	300
2	30
12	40
13	80
14	370
15	2202
16	50
25	20
26	470
27	5385
28	340
29	260
32	100
33	90
34	70
35	180
36	10
37	230
38	561
39	4304
40	621
41	9999
42	2242
43	8167
44	350
45	3343
46	1301
47	5035
48	7717
49	4134
50	420
51	180
52	10
53	20
54	10
55	80
56	20
57	180
58	651
59	1461
60	300
61	711
62	40
63	20
68	10
69	70
70	20
71	120
72	30
73	100
74	90
75	9459
76	440
77	430
78	10
89	140
90	8598
91	450
92	390
93	20
