Mass Spectrum: Thiophane, propyl-
Formula: C7 H14 S
CAS: 1551-34-4
Molecular weight: 130
Origin: V.A.KOPTYUG, ATLAS OF MASS SPECTRA OF ORGANIC COMPOUNDS
m/z	RELATIVE INTENSITY
15	370
26	260
27	2160
39	1980
41	2500
42	340
43	200
45	2370
46	380
47	920
53	860
54	370
55	1320
56	120
57	30
58	430
59	1170
60	520
61	310
67	920
68	220
69	110
73	310
81	420
85	590
87	9999
88	550
101	1630
102	60
115	60
116	60
129	30
130	1830
