Mass Spectrum: 1H-Pyrrole, 3-ethyl-
Formula: C6 H9 N
CAS: 1551-16-2
Molecular weight: 95
Origin: D. GAMES, M. HEWLINS, A. JACKSON, CHEM DEPT, UNIV COLL, CARDIFF, U.K.
m/z	RELATIVE INTENSITY
41	531
42	113
46	113
47	262
50	161
51	294
52	388
53	2102
54	158
63	132
65	527
66	202
67	714
68	101
77	202
78	502
79	177
80	9999
81	581
92	186
93	398
94	1135
95	5352
96	360
