Mass Spectrum: Thiophene, 2-propyl-
Formula: C7 H10 S
CAS: 1551-27-5
Molecular weight: 126
Origin: NIST Mass Spectrometry Data Center, 1990.
m/z	RELATIVE INTENSITY
15	49
17	6
19	2
25	10
26	96
27	434
28	41
29	94
33	10
37	75
38	160
39	684
40	58
41	208
42	14
43	16
44	10
45	1236
46	38
47	93
49	25
50	144
51	272
52	119
53	818
54	46
57	111
58	240
59	88
60	26
61	53
62	100
63	185
64	36
65	192
66	81
67	54
69	259
70	98
71	162
72	12
73	18
74	34
75	11
76	12
77	170
78	68
79	46
81	54
82	74
83	51
84	137
85	95
86	12
91	67
92	23
93	36
94	16
95	73
96	12
97	9999
98	722
99	436
100	27
108	21
109	69
110	63
111	129
112	15
121	10
123	30
124	14
126	2312
127	211
128	118
