Mass Spectrum: Thiophene, 2-ethyltetrahydro-
Formula: C6 H12 S
CAS: 1551-32-2
Molecular weight: 116
m/z	RELATIVE INTENSITY
25	30
26	460
27	2592
28	811
29	901
30	30
31	10
32	140
33	80
34	60
35	100
36	10
37	90
38	220
39	1992
40	240
41	2392
42	360
43	100
44	30
45	3033
46	741
47	1001
48	60
49	70
50	140
51	210
52	70
53	801
54	290
55	911
56	110
57	120
58	530
59	1271
60	851
61	550
62	70
63	60
64	10
65	80
66	30
67	1001
68	100
69	290
70	50
71	170
72	40
73	400
74	290
75	240
76	30
77	40
78	10
79	50
80	10
81	160
82	300
83	110
84	20
85	410
86	110
87	9999
88	581
89	430
101	1541
102	50
103	50
116	2652
