Mass Spectrum: 1H-Pyrrole, 2-ethyl-
Formula: C6 H9 N
CAS: 1551-06-0
Molecular weight: 95
Origin: W.Baltes ET AL.J.Agric.Food Chem.,35,340(1987)
m/z	RELATIVE INTENSITY
38	450
39	691
40	621
50	380
51	450
52	721
53	1211
54	280
63	280
64	170
65	340
66	380
67	380
78	380
80	9999
81	691
94	1141
95	5665
