Mass Spectrum: Manganese, decacarbonyl(mercury)di-, (2Hg-Mn)
Formula: C10 Hg Mn2 O10
CAS: 15525-07-2
Molecular weight: 592
Origin: R.B.KING UNIVERSITY OF GEORGIA, ATHENS, GEORGIA, USA
m/z	RELATIVE INTENSITY
55	9090
58	4181
83	1454
101	1727
110	5181
139	181
166	3909
194	4090
202	9090
222	9999
250	7545
257	1545
278	181
285	90
306	181
312	1363
322	181
340	90
368	272
396	1454
424	27
452	1000
480	27
592	636
