Mass Spectrum: Europium, tris(2,2,6,6-tetramethyl-3,5-heptanedionato)-
Formula: C33 H57 Eu O6
CAS: 15522-71-1
Molecular weight: 702
Origin: MUS188 A. Mujsce, AT&T Bell Labs., Murray Hill, N.J., USA
m/z	RELATIVE INTENSITY
41	317
42	43
53	36
55	41
57	1894
58	98
69	98
79	38
81	348
82	56
83	162
85	93
97	51
109	490
110	61
111	60
127	552
146	31
151	51
168	287
170	300
180	26
184	62
192	153
194	224
196	44
201	272
202	339
206	93
207	57
208	133
209	62
210	65
216	36
220	49
221	29
223	147
228	32
231	221
232	218
234	117
235	51
236	108
237	54
238	32
239	75
240	25
244	65
245	93
247	49
248	55
249	98
250	122
251	152
252	153
254	31
259	233
260	340
261	103
262	105
263	69
265	621
266	773
272	79
273	63
274	135
276	671
277	282
278	747
279	262
280	121
281	31
282	25
286	126
287	160
288	95
289	36
290	108
291	108
292	117
293	400
294	602
296	166
297	33
300	48
301	56
302	79
303	91
304	262
305	118
306	246
307	44
308	26
312	31
314	74
316	81
318	709
319	755
320	880
321	869
322	226
323	103
332	148
334	9525
336	9999
337	1254
338	126
350	42
351	56
352	39
360	36
362	35
365	150
366	49
374	30
377	30
379	35
421	31
422	129
423	31
434	30
445	37
446	53
447	30
460	147
462	148
463	68
491	28
502	36
503	104
504	38
505	38
515	50
517	5260
518	2023
519	5959
520	2153
521	427
522	89
595	30
616	29
617	35
643	1068
644	400
645	1176
646	404
647	97
700	106
701	51
702	141
703	47
