Mass Spectrum: 2-Methyl-1,5-pentanediamine
Formula: C6 H16 N2
CAS: 15520-10-2
Molecular weight: 116
Origin: Chuck Anderson, Aldrich Chemical Co.
m/z	RELATIVE INTENSITY
15	56
16	14
17	81
18	932
19	1
26	30
27	264
28	718
29	239
30	9999
31	240
32	53
35	67
36	421
37	28
38	170
39	287
40	55
41	906
42	833
43	932
44	253
45	1374
46	36
47	20
50	11
51	23
52	20
53	83
54	95
55	364
56	1479
57	246
58	153
59	210
60	8
65	20
66	11
67	187
68	76
69	320
70	781
71	55
72	40
73	36
77	5
79	34
80	16
81	43
82	156
83	30
84	174
85	13
86	174
87	1520
88	83
94	5
96	26
97	57
98	128
99	359
100	97
101	6
117	26
