Mass Spectrum: Nickel, bis(dimethylcarbamodithioato-S,S')-, (SP-4-1)-
Formula: C6 H12 N2 Ni S4
CAS: 15521-65-0
Molecular weight: 298
Origin: Japan AIST/NIMC Database- Spectrum MS-IW- 894
m/z	RELATIVE INTENSITY
14	10
15	149
27	30
28	50
29	30
30	99
32	40
33	10
34	40
35	10
38	20
39	10
40	50
41	90
42	519
43	119
44	939
45	159
46	50
47	159
48	10
54	10
55	40
56	209
57	50
58	169
59	10
60	70
61	70
64	359
66	30
67	10
68	50
69	40
70	40
71	40
72	239
73	719
74	80
75	30
76	489
77	40
78	40
81	10
82	10
83	20
84	10
85	20
87	10
88	9999
89	819
90	499
91	40
92	20
93	10
95	10
96	10
97	119
98	10
99	229
100	70
101	139
102	119
103	60
104	50
105	30
106	10
111	20
112	179
113	20
114	10
115	10
116	10
117	10
118	20
119	20
120	20
121	119
122	80
123	10
124	40
131	259
132	169
133	129
134	139
135	80
136	70
137	30
138	20
140	10
141	10
143	10
144	169
145	439
146	639
147	369
148	279
149	219
150	99
151	30
152	10
161	90
162	10
163	279
164	20
165	129
166	20
167	30
176	449
177	40
178	1039
179	1199
180	559
181	589
182	139
183	109
184	20
185	20
187	189
188	40
189	159
190	60
191	70
192	20
193	20
195	20
197	10
208	10
210	30
212	20
219	529
220	40
221	279
222	249
223	80
224	109
225	30
226	20
234	819
235	80
236	389
237	50
238	70
240	10
251	10
254	40
255	10
256	20
266	509
267	50
268	259
269	30
270	60
272	10
296	10
298	6299
299	679
300	3569
301	469
302	859
303	99
304	179
305	10
306	20
