Mass Spectrum: 9H-Fluorene, 4-methyl-
Formula: C14 H12
CAS: 1556-99-6
Molecular weight: 180
m/z	RELATIVE INTENSITY
63	1244
76	1769
87	420
88	1244
89	2728
90	1004
115	315
139	480
151	765
152	1139
153	225
163	600
164	465
165	9999
166	1619
167	300
176	1049
177	839
178	2548
179	2608
180	9294
181	1859
182	270
