Mass Spectrum: 3,4-Dimethylthiophene-2,5-dicarbonitrile
Formula: C8 H6 N2 S
CAS: 155632-41-0
Molecular weight: 162
Origin: NIST Mass Spectrometry Data Center
m/z	RELATIVE INTENSITY
12	40
13	40
14	170
15	921
16	10
17	30
18	90
24	10
26	510
27	1121
28	571
31	10
32	270
33	40
34	20
36	150
37	1501
38	1461
39	2222
40	310
41	210
42	20
44	440
45	1952
46	280
47	130
48	60
49	260
50	711
51	791
52	631
53	200
54	100
56	70
57	210
58	450
59	310
60	120
61	430
62	681
63	1371
64	1742
65	1031
66	250
68	260
69	1862
70	5895
71	741
72	320
73	90
74	150
75	691
76	821
77	250
78	120
80	140
81	170
82	440
83	370
84	230
85	60
86	150
87	180
88	310
89	90
90	430
91	601
92	230
93	230
94	611
95	240
96	440
97	130
98	60
99	60
100	80
101	110
102	280
103	140
104	60
105	30
106	110
107	240
108	561
109	250
110	170
111	20
112	10
115	20
116	70
117	130
118	140
120	581
122	1391
123	130
124	70
127	20
128	110
129	350
130	40
133	240
134	1161
135	3513
136	831
137	210
138	30
147	9999
148	971
149	510
150	30
159	90
161	6176
162	8518
163	1191
164	390
165	40
