Mass Spectrum: Cyclooctyl bromide
Formula: C8 H15 Br
CAS: 1556-09-8
Molecular weight: 190
Origin: NIST Mass Spectrometry Data Center, 1990.
m/z	RELATIVE INTENSITY
26	165
27	1044
28	311
29	598
39	2483
40	623
41	4248
42	603
43	444
50	188
51	450
52	283
53	1225
54	1939
55	4191
56	384
57	403
63	103
65	427
67	3581
68	1196
69	9999
70	559
77	365
78	130
79	701
80	447
81	1486
82	1531
83	219
91	134
93	95
95	531
109	92
110	699
111	4412
112	383
