Mass Spectrum: Pizotyline
Formula: C19 H21 N S
CAS: 15574-96-6
Molecular weight: 295
Origin: Tox21 Consortium/NIST Mass Spectrometry Data Center, 2012
m/z	RELATIVE INTENSITY
15	50
26	10
27	100
28	60
29	50
30	50
38	10
39	200
40	30
41	170
42	2422
43	1131
44	3123
45	450
46	10
47	40
50	50
51	200
52	60
53	190
54	70
55	100
56	140
57	1411
58	5655
59	300
60	10
61	10
62	50
63	250
64	50
65	180
66	50
67	90
68	80
69	150
70	2943
71	741
72	150
73	20
74	50
75	120
76	130
77	290
78	90
79	90
80	70
81	140
82	350
83	220
84	70
85	50
86	40
87	90
88	130
89	320
90	60
91	320
92	80
93	100
94	631
95	360
96	9999
97	1762
98	1301
99	160
100	50
101	210
102	180
103	120
104	180
105	80
106	50
107	80
108	120
109	200
111	310
112	70
113	100
114	80
115	851
116	190
117	280
118	90
120	30
121	130
122	150
123	160
124	60
125	90
126	190
127	290
128	430
129	180
130	70
131	80
132	40
133	20
134	130
135	140
136	30
137	110
138	100
139	530
140	160
141	380
142	110
143	30
144	30
145	70
147	260
149	50
150	210
151	430
152	1101
153	480
154	140
155	210
156	40
157	20
158	60
159	30
160	30
161	70
162	50
163	350
164	340
165	1682
166	360
167	190
168	50
169	60
170	60
171	300
172	60
173	40
174	50
175	60
176	420
177	230
178	1371
179	851
180	160
181	50
182	60
183	70
184	510
185	160
186	60
187	120
188	130
189	1692
190	1141
191	1271
192	360
193	150
194	60
195	190
196	180
197	2232
198	591
199	290
200	120
201	110
202	991
203	1061
204	611
205	470
206	150
207	90
208	1091
209	701
210	300
211	260
212	100
213	80
214	30
215	170
216	100
217	280
218	170
219	380
220	130
221	1872
222	841
223	1792
224	681
225	350
226	80
227	30
228	10
229	20
230	20
231	30
232	70
233	80
234	300
235	460
236	240
237	741
238	230
239	180
240	40
241	20
242	10
243	10
244	10
245	40
246	40
247	70
248	70
249	150
250	60
251	721
252	240
253	70
254	20
255	10
258	10
259	10
260	40
261	30
262	561
263	150
264	40
265	20
266	80
267	30
268	10
274	10
276	10
277	10
278	20
279	10
280	150
281	30
282	10
290	10
291	10
292	110
293	200
294	1601
295	7507
296	1672
297	500
298	80
299	10
