Mass Spectrum: 1,2,4,5-Tetrazine, 3,6-dimethyl-
Formula: C4 H6 N4
CAS: 1558-23-2
Molecular weight: 110
Origin: J.MOLLER, UNIV. OF COPENHAGEN, DENMARK
m/z	RELATIVE INTENSITY
14	1040
15	3660
25	220
26	750
27	580
28	1990
38	610
39	1110
40	3820
41	6250
42	9999
43	310
82	290
110	1990
