Mass Spectrum: 1-Heneicosanol
Formula: C21 H44 O
CAS: 15594-90-8
Molecular weight: 312
Origin: NIST Mass Spectrometry Data Center
m/z	RELATIVE INTENSITY
15	10
19	10
26	20
27	370
28	100
29	1431
30	50
31	791
39	520
41	5885
42	1551
43	8678
44	370
45	140
46	10
50	10
51	20
52	20
53	370
54	1081
55	9999
56	4334
57	9278
58	430
59	20
65	70
66	140
67	1591
68	2993
69	7317
70	3483
71	3944
72	210
73	140
77	50
78	10
79	160
80	80
81	1101
82	4124
83	8868
84	2632
85	2632
86	160
87	30
91	20
92	10
93	40
94	30
95	641
96	1772
97	8087
98	1762
99	661
100	50
108	10
109	280
110	781
111	4444
112	1181
113	370
114	30
122	20
123	160
124	490
125	2182
126	741
127	220
128	20
136	10
137	100
138	300
139	751
140	450
141	130
142	20
151	20
152	190
153	370
154	290
155	90
156	10
165	10
166	140
167	220
168	190
169	50
180	80
181	120
182	130
183	30
194	70
195	70
196	90
197	20
208	50
209	40
210	70
211	20
222	40
223	30
224	40
225	20
236	20
237	20
238	50
239	10
250	10
251	10
252	10
264	10
265	10
266	150
267	40
292	10
294	90
295	20
