Mass Spectrum: 3-n-Propyl-adamantol-1
Formula: C13 H22 O
CAS: 15598-88-6
Molecular weight: 194
Origin: B. Derendyaev, Novosibirsk Institute of Organic Chemistry
m/z	RELATIVE INTENSITY
41	2429
42	1259
43	2159
53	529
55	1589
57	599
59	399
65	299
67	1319
68	199
69	399
77	1299
78	269
79	1399
81	1359
91	1529
92	329
93	5529
94	529
95	7209
96	469
105	269
107	1659
108	429
109	1059
132	469
136	629
137	4879
138	299
151	9999
152	1159
194	4879
195	689
