Mass Spectrum: 5-Chlorosalicylidene aniline
Formula: C13 H10 Cl N O
CAS: 15597-76-9
Molecular weight: 231
Origin: NIST Mass Spectrometry Data Center, 1994
m/z	RELATIVE INTENSITY
16	30
17	25
18	123
26	126
27	429
28	650
32	39
35	78
36	64
37	335
38	980
39	2134
40	195
41	70
42	40
47	69
49	239
50	2296
51	6659
52	982
53	522
54	73
55	66
56	42
58	68
59	32
60	48
61	383
62	772
63	2315
64	767
65	1119
66	250
67	57
68	28
69	28
70	539
72	132
73	873
74	793
75	2163
76	980
77	9999
78	1844
79	166
83	281
84	1537
85	245
86	158
87	238
88	219
89	447
90	540
91	221
92	102
93	84
98	388
99	670
100	396
101	345
102	221
103	84
104	1650
105	206
109	31
110	56
111	466
112	140
113	256
114	215
115	557
117	239
118	54
119	29
123	30
124	59
125	450
126	235
127	288
128	473
129	83
130	185
131	27
136	235
137	63
138	138
139	780
140	450
141	418
142	93
149	72
150	52
151	112
152	52
153	685
154	1804
155	325
156	537
157	42
164	53
166	583
167	1737
168	745
169	112
175	44
176	54
177	124
178	112
179	57
186	113
188	59
194	82
195	335
196	1402
197	214
201	62
202	286
203	84
204	107
214	784
215	361
216	318
217	129
228	27
230	7626
231	9918
232	3801
233	3364
234	463
235	45
