Mass Spectrum: 1-Propanol, 3-amino-
Formula: C3 H9 N O
CAS: 156-87-6
Molecular weight: 75
Origin: Japan AIST/NIMC Database- Spectrum MS-NW-8463
m/z	RELATIVE INTENSITY
14	20
15	139
16	10
17	119
18	69
26	90
27	349
28	1119
29	509
30	9999
31	729
32	10
38	20
39	80
40	60
41	179
42	369
43	239
44	779
45	249
46	60
52	20
53	10
54	40
55	30
56	419
57	249
58	90
72	20
74	30
75	159
76	30
