Mass Spectrum: 4-Chloro-2,6-diaminopyrimidine
Formula: C4 H5 Cl N4
CAS: 156-83-2
Molecular weight: 144
Origin: Japan AIST/NIMC Database- Spectrum MS-NW-9997
m/z	RELATIVE INTENSITY
13	10
14	10
16	10
26	10
27	60
28	569
29	20
35	10
36	60
38	139
39	279
40	679
41	189
42	239
43	2989
44	70
46	10
47	40
48	10
49	10
50	10
51	60
52	40
53	119
54	40
55	109
56	60
60	70
61	10
62	129
63	30
64	80
65	109
66	519
67	4779
68	309
69	20
72	60
73	30
74	159
75	60
76	60
77	20
80	10
81	20
82	50
86	50
87	10
88	20
89	129
90	90
91	50
92	289
93	10
101	40
102	20
103	30
108	90
109	6629
110	389
111	10
116	179
117	439
118	70
119	139
127	10
128	149
129	10
130	50
143	10
144	9999
145	819
146	3259
147	259
