Mass Spectrum: Benzenamine, 4-ethoxy-
Formula: C8 H11 N O
CAS: 156-43-4
Molecular weight: 137
Origin: Japan AIST/NIMC Database- Spectrum MS-NW-9165
m/z	RELATIVE INTENSITY
15	20
17	10
18	30
26	90
27	499
28	389
29	249
30	50
39	389
40	50
41	149
42	60
43	30
44	10
46	20
47	99
50	60
51	149
52	509
53	879
54	259
55	70
56	10
61	159
62	60
63	169
64	149
65	589
66	99
67	20
68	70
69	10
70	10
74	10
75	10
76	10
77	20
78	50
79	109
80	2219
81	719
82	139
83	10
90	20
91	80
92	229
93	70
94	60
106	20
107	50
108	9999
109	6449
110	459
111	20
120	10
122	10
136	80
137	8519
138	809
139	50
