Mass Spectrum: Ethylene, 1,2-dichloro-, (E)-
Formula: C2 H2 Cl2
CAS: 156-60-5
Molecular weight: 96
Origin: NIST Mass Spectrometry Data Center, 1998.
m/z	RELATIVE INTENSITY
12	10
13	20
24	110
25	500
26	1140
27	30
35	730
36	130
37	260
38	50
47	460
48	490
49	300
50	140
51	20
59	240
60	2210
61	9999
62	900
63	3250
64	70
70	90
72	60
74	10
94	50
95	160
96	6979
97	260
98	4470
99	120
100	720
101	20
