Mass Spectrum: Benzphetamine
Formula: C17 H21 N
CAS: 156-08-1
Molecular weight: 239
Origin: Virginia Division of Forensic Science
m/z	RELATIVE INTENSITY
15	20
17	10
26	10
27	30
28	60
29	20
30	10
31	10
37	10
38	20
39	320
40	30
41	180
42	450
43	10
44	30
50	70
51	220
52	60
53	20
54	30
56	350
57	40
58	10
61	10
62	40
63	210
65	1271
66	70
68	10
70	10
71	10
73	10
74	10
75	20
76	30
77	210
78	90
79	40
80	10
81	10
85	10
86	10
87	10
89	260
91	9999
92	780
93	20
101	10
102	20
103	70
104	50
105	80
106	10
115	90
116	30
117	130
118	60
119	20
120	30
121	10
127	10
128	10
129	10
130	30
131	30
132	90
133	10
134	10
143	10
144	20
146	100
148	7837
149	870
150	40
151	10
152	10
162	10
165	10
166	10
167	10
177	10
178	10
179	10
181	10
222	10
224	30
225	10
236	10
237	10
238	10
