Mass Spectrum: Ethylene, 1,2-dichloro-, (Z)-
Formula: C2 H2 Cl2
CAS: 156-59-2
Molecular weight: 96
Origin: NIST Mass Spectrometry Data Center, 1998.
m/z	RELATIVE INTENSITY
12	20
13	30
24	120
25	530
26	1190
27	20
35	370
36	120
37	130
38	40
47	610
48	520
49	360
50	150
51	20
59	320
60	2690
61	9999
62	1080
63	3250
64	70
94	100
95	290
96	6349
97	330
98	4010
99	130
100	640
101	20
