Mass Spectrum: Benzenamine, 4-nitroso-N-phenyl-
Formula: C12 H10 N2 O
CAS: 156-10-5
Molecular weight: 198
Origin: Japan AIST/NIMC Database- Spectrum MS-NW-6163
m/z	RELATIVE INTENSITY
26	60
27	189
28	139
29	10
30	329
37	139
38	329
39	969
40	109
41	129
42	30
43	20
44	30
49	30
50	839
51	1569
52	509
53	80
54	30
55	30
56	20
57	30
58	20
60	10
61	80
62	299
63	969
64	599
65	1039
66	159
67	20
69	70
70	90
71	20
73	40
74	279
75	249
76	399
77	1799
78	359
79	90
80	80
81	40
82	50
83	179
84	30
85	20
86	40
87	70
88	109
89	329
90	469
91	419
92	199
93	80
94	10
95	20
97	20
98	20
99	90
100	30
101	90
102	129
103	169
104	90
105	60
106	20
107	169
108	10
109	10
110	10
111	20
112	10
113	99
114	169
115	849
116	209
117	159
118	40
119	10
120	10
125	20
126	70
127	129
128	369
129	119
130	119
131	20
137	20
138	60
139	799
140	659
141	519
142	99
143	30
144	10
146	10
149	10
150	10
151	40
152	60
153	129
154	229
155	119
156	50
157	20
161	10
163	10
164	60
165	109
166	1509
167	9999
168	6919
169	939
170	70
171	10
179	80
180	60
181	389
182	379
183	159
193	10
194	10
196	20
197	50
198	9779
199	1369
200	109
201	10
