Mass Spectrum: Tetradecane, 2-methyl-
Formula: C15 H32
CAS: 1560-95-8
Molecular weight: 212
Origin: H.PICHLER THE UNIV. KARLSRUHE, KARLSRUHE, GERMANY, F.R.G.
m/z	RELATIVE INTENSITY
2	78
12	1
13	2
14	5
15	31
16	5
19	1
24	2
25	6
26	56
27	914
28	232
29	2040
30	46
31	1
32	4
36	2
37	6
38	11
39	508
40	119
41	3730
42	1610
43	9760
44	324
45	4
48	1
49	2
50	7
51	16
52	12
53	173
54	176
55	1880
56	1790
57	9999
58	455
59	11
63	2
65	23
66	17
67	164
68	159
69	920
70	852
71	5520
72	302
73	7
77	15
78	4
79	22
80	5
81	47
82	146
83	507
84	418
85	3640
86	242
87	7
91	6
92	1
93	5
94	1
95	11
96	73
97	366
98	260
99	1510
100	101
101	13
105	1
109	4
110	40
111	214
112	165
113	994
114	88
115	6
117	2
122	4
123	2
124	18
125	113
126	109
127	621
128	62
129	3
138	8
139	42
140	109
141	320
142	35
143	2
152	2
153	5
154	34
155	163
156	20
157	2
167	5
168	724
169	1640
170	249
171	16
172	1
182	9
183	21
184	3
196	72
197	513
198	48
210	5
211	8
212	178
213	33
214	3
