Mass Spectrum: Dodecane, 2-methyl-
Formula: C13 H28
CAS: 1560-97-0
Molecular weight: 184
Origin: D.HENNEBERG, MAX-PLANCK INSTITUTE, MULHEIM, WEST GERMANY
m/z	RELATIVE INTENSITY
24	14
26	119
27	583
28	535
29	2124
32	4
33	32
34	6
35	47
36	55
37	52
39	585
40	106
41	3275
42	1746
43	9999
44	283
45	11
50	18
51	27
53	166
54	139
55	1228
56	1400
57	8628
58	303
59	122
60	56
61	24
67	97
68	157
69	441
70	652
71	4329
72	215
81	32
82	56
83	233
84	242
85	2687
86	157
88	1
93	18
96	2
97	236
98	131
99	722
100	2
103	13
110	18
111	176
112	106
113	220
114	16
125	4
127	144
139	10
140	305
141	623
142	27
167	12
168	23
184	14
