Mass Spectrum: Eicosane, 2-methyl-
Formula: C21 H44
CAS: 1560-84-5
Molecular weight: 296
Origin: NIST Mass Spectrometry Data Center, 1990.
m/z	RELATIVE INTENSITY
27	624
28	624
29	1645
30	43
32	98
39	459
41	4521
42	1484
43	8852
44	329
53	156
54	311
55	2717
56	1984
57	9999
58	458
65	36
67	302
68	257
69	1433
70	938
71	5770
72	333
81	114
82	242
83	791
84	469
85	3552
86	238
95	42
96	150
97	631
98	254
99	1610
100	123
110	72
111	339
112	165
113	985
114	83
124	49
125	174
126	101
127	634
128	58
139	66
140	75
141	448
142	49
153	37
154	55
155	320
156	40
169	256
170	36
183	186
197	125
211	81
252	210
253	487
254	97
281	77
