Mass Spectrum: cis-Bis(triphenylphosphine)platinum(II) chloride
Formula: C36 H30 Cl2 P2 Pt
CAS: 15604-36-1
Molecular weight: 789
Origin: Japan AIST/NIMC Database- Spectrum MS-IW-1452
m/z	RELATIVE INTENSITY
27	20
35	50
36	549
37	20
38	169
39	169
40	10
41	30
42	40
43	20
50	129
51	309
52	119
53	10
55	10
56	20
57	129
62	10
63	99
64	20
65	70
69	20
70	10
71	20
72	10
74	50
75	40
76	70
77	249
78	579
79	40
80	40
81	109
82	40
83	70
85	10
87	10
88	10
89	40
91	30
92	10
93	10
101	10
102	40
103	10
105	10
106	10
107	689
108	1959
109	159
113	10
114	10
115	169
116	20
120	20
126	30
127	20
128	60
129	20
130	10
131	99
133	159
134	10
139	99
140	10
141	70
144	20
145	10
146	10
150	20
151	50
152	489
153	169
154	239
155	30
157	239
158	30
159	30
165	10
169	10
170	129
171	20
181	80
182	50
183	4369
184	1149
185	619
186	70
189	10
202	20
207	10
215	20
220	10
226	30
227	20
228	129
229	40
230	50
231	10
233	30
244	10
245	10
257	80
258	20
259	129
260	339
261	1929
262	9999
263	1959
264	179
265	10
277	10
278	10
297	279
298	50
299	90
300	20
301	10
302	10
303	10
304	10
337	20
338	10
376	10
377	20
378	20
379	20
454	10
455	10
456	10
717	10
718	20
719	10
753	10
754	10
755	10
789	10
790	10
791	10
792	10
