Mass Spectrum: 1,3,5,2,4,6-Triazatriphosphorine, 2,2,4,4,6-pentabromo-6-chloro-2,2,4,4,6,6-hexahydro-
Formula: Br5 Cl N3 P3
CAS: 15608-37-4
Molecular weight: 565
m/z	RELATIVE INTENSITY
76	370
90	130
111	160
125	130
135	20
155	190
169	120
170	540
190	360
204	60
213	240
234	200
235	50
248	20
249	260
269	30
279	10
283	120
293	70
327	50
328	1960
348	80
362	130
407	210
486	9999
530	50
565	220
