Mass Spectrum: Octadecane, 2-methyl-
Formula: C19 H40
CAS: 1560-88-9
Molecular weight: 268
Origin: NIST Mass Spectrometry Data Center, 1990.
m/z	RELATIVE INTENSITY
27	473
28	474
29	1055
32	86
39	553
41	4657
42	1543
43	8897
44	359
53	304
54	414
55	3541
56	2489
57	9999
58	473
67	463
68	401
69	2008
70	1326
71	6324
72	365
81	151
82	295
83	1126
84	667
85	4224
86	318
96	129
97	736
98	335
99	1502
100	132
110	65
111	327
112	200
113	799
114	82
125	163
126	130
127	571
140	101
141	379
154	71
155	326
169	269
183	153
197	88
224	389
225	795
226	143
253	116
