Mass Spectrum: Diazene, bis(4-methoxyphenyl)-, 1-oxide
Formula: C14 H14 N2 O3
CAS: 1562-94-3
Molecular weight: 258
Origin: RADIAN CORP
m/z	RELATIVE INTENSITY
15	220
26	60
27	90
29	30
30	80
37	50
38	270
39	310
41	200
42	30
43	20
50	600
51	1100
52	1200
53	390
54	100
55	230
61	70
62	350
63	1920
64	2810
65	510
66	710
67	260
68	60
69	90
74	210
75	220
76	560
77	4370
78	3000
79	560
80	2430
81	160
88	30
89	40
90	120
91	910
92	3990
93	740
94	150
95	820
96	70
102	30
106	2990
107	6240
108	600
109	60
111	30
115	90
116	40
120	590
121	8400
122	1860
123	400
124	50
127	80
128	140
129	120
132	20
133	20
134	150
135	1000
136	180
137	1390
138	130
139	70
140	20
141	30
143	20
144	120
145	50
147	20
149	140
150	10
151	120
152	10
155	60
156	60
157	20
158	40
159	100
160	20
169	30
170	20
171	80
172	60
175	20
183	70
184	80
185	30
186	60
187	330
188	50
197	40
198	210
199	280
200	110
201	200
202	30
212	10
213	20
214	90
215	710
216	100
227	70
228	20
229	120
230	120
231	10
242	180
243	170
244	20
257	330
258	9999
259	1640
260	190
