Mass Spectrum: Iron, bis[.mu.-(benzenethiolato)]hexacarbonyldi-, (Fe-Fe)
Formula: C18 H10 Fe2 O6 S2
CAS: 15634-63-6
Molecular weight: 498
Origin: B.F.G.JOHNSON DEPT. OF CHEM., UNIV. OF MANCHESTER, UK
m/z	RELATIVE INTENSITY
56	480
112	280
144	1630
165	2840
176	6520
197	3170
221	240
330	9999
358	1320
386	570
414	820
442	1630
470	80
498	820
