Mass Spectrum: Acetamide, N,N-dibutyl-
Formula: C10 H21 N O
CAS: 1563-90-2
Molecular weight: 171
Origin: Japan AIST/NIMC Database- Spectrum MS-NW-6375
m/z	RELATIVE INTENSITY
14	10
15	209
26	40
27	429
28	199
29	869
30	1409
31	40
32	10
38	10
39	229
40	40
41	689
42	419
43	1949
44	1999
45	119
51	10
52	10
53	40
54	50
55	219
56	219
57	509
58	99
59	10
60	90
67	10
68	20
69	10
70	80
71	30
72	479
73	579
74	40
84	119
85	20
86	9999
87	899
88	40
96	10
98	20
99	80
100	639
101	60
112	40
114	409
115	40
116	70
126	10
128	2269
129	289
130	20
142	179
143	20
154	20
156	589
157	60
170	10
171	549
172	70
