Mass Spectrum: 7-Benzofuranol, 2,3-dihydro-2,2-dimethyl-
Formula: C10 H12 O2
CAS: 1563-38-8
Molecular weight: 164
Origin: Japan AIST/NIMC Database- Spectrum MS-IW-4054
m/z	RELATIVE INTENSITY
15	30
26	30
27	339
28	149
29	159
31	30
37	10
38	90
39	979
40	209
41	699
42	50
43	379
44	20
45	60
46	30
47	10
49	10
50	199
51	959
52	349
53	379
54	60
55	559
56	99
57	40
58	80
59	70
60	30
61	20
62	70
63	269
64	139
65	649
66	379
67	219
68	50
69	50
70	10
71	10
72	40
73	99
74	149
75	80
76	90
77	1389
78	609
79	419
80	119
81	149
82	179
83	50
84	10
85	10
86	10
87	10
88	10
89	129
90	50
91	1089
92	189
93	379
94	509
95	329
96	40
101	40
102	139
103	1679
104	189
105	369
106	209
107	829
108	149
109	70
110	519
111	30
115	349
116	119
117	799
118	469
119	269
120	99
121	2129
122	2789
123	2879
124	579
125	50
126	10
127	159
128	60
129	70
130	40
131	3149
132	389
133	50
134	109
135	609
136	299
137	129
138	10
143	10
144	40
145	759
146	689
147	1319
148	299
149	8289
150	829
151	70
161	40
162	20
163	489
164	9999
165	1099
166	99
167	10
