Mass Spectrum: Iridium, tris(2,4-pentanedionato-O,O')-, (OC-6-11)-
Formula: C15 H21 Ir O6
CAS: 15635-87-7
Molecular weight: 490
m/z	RELATIVE INTENSITY
43	192
87	192
261	115
275	115
277	115
287	192
288	192
289	769
290	192
291	769
292	115
293	192
301	192
303	385
305	192
316	192
317	308
318	192
319	385
320	115
321	385
329	192
331	385
332	115
333	577
335	115
345	385
346	115
347	769
348	115
349	308
351	192
359	115
360	192
361	192
362	308
373	308
375	385
387	192
388	192
389	2692
390	385
391	4230
392	308
404	192
406	192
429	115
488	5769
489	577
490	9999
491	1154
