Mass Spectrum: Acetamide, N-acetyl-N-butyl-
Formula: C8 H15 N O2
CAS: 1563-86-6
Molecular weight: 157
m/z	RELATIVE INTENSITY
27	592
28	947
29	651
30	8224
31	296
39	296
40	59
41	1627
42	828
43	9999
44	1035
45	237
55	532
56	592
57	651
58	148
59	59
60	1538
61	59
68	89
69	59
70	59
71	59
72	9112
73	3550
74	89
84	3491
85	148
86	1775
87	828
93	148
97	444
98	89
100	1420
101	59
102	1834
103	89
114	1923
115	1183
116	237
128	237
129	59
142	3402
143	148
157	651
158	118
