Mass Spectrum: Methanone, (2-amino-5-bromophenyl)-2-pyridinyl-
Formula: C12 H9 Br N2 O
CAS: 1563-56-0
Molecular weight: 276
Origin: H.Maurer ET AL.J.Chromatogr. 222,409(1981)
m/z	RELATIVE INTENSITY
41	1581
43	741
51	340
52	1982
53	2382
54	571
56	771
57	340
58	571
62	340
63	2212
64	1371
65	771
67	971
69	340
72	370
73	370
75	370
76	370
77	771
78	2983
79	1171
80	370
81	370
84	340
85	370
86	370
89	370
90	2582
91	3793
92	370
93	340
95	340
98	370
99	2813
105	571
107	370
115	571
117	370
119	370
121	370
129	340
140	370
141	540
142	340
143	971
145	971
149	340
152	340
167	340
168	2783
169	1171
170	2182
171	340
172	2182
196	741
197	711
198	1752
200	1722
205	310
213	310
247	9198
248	6176
249	9999
250	5975
251	711
275	480
276	2702
277	681
278	2722
279	220
