Mass Spectrum: Carbofuran
Formula: C12 H15 N O3
CAS: 1563-66-2
Molecular weight: 221
Origin: ACCUSTANDARD Chemicals / NIST MS Data Center.
m/z	RELATIVE INTENSITY
12	26
13	34
14	28
15	813
16	8
17	10
18	27
26	81
27	623
28	140
29	26
30	58
37	28
38	151
39	1107
40	237
41	691
42	89
43	364
44	29
45	20
46	10
50	255
51	986
52	285
53	357
54	81
55	529
56	259
57	477
58	1080
59	41
61	23
62	95
63	313
64	149
65	645
66	313
67	179
68	27
69	31
72	13
74	52
75	58
77	909
78	399
79	427
80	103
81	75
82	34
83	19
87	18
89	140
91	1100
92	194
93	226
94	363
95	251
96	22
101	27
102	142
103	874
104	144
105	316
106	153
107	696
108	142
109	39
110	227
111	21
115	309
116	111
117	524
118	377
119	233
120	21
121	1213
122	1875
123	1583
124	217
125	18
127	96
128	34
129	41
130	18
131	1787
132	225
133	62
134	97
135	485
136	188
137	64
143	13
145	449
146	687
147	886
148	13
149	6134
150	578
151	50
157	7
158	11
159	14
160	37
161	45
164	9999
165	1065
166	109
177	29
191	11
221	651
222	97
