Mass Spectrum: Cyclohexanol, 3-(aminomethyl)-3,5,5-trimethyl-
Formula: C10 H21 N O
CAS: 15647-11-7
Molecular weight: 171
Origin: Japan AIST/NIMC Database- Spectrum MS-IW- 903
m/z	RELATIVE INTENSITY
12	20
14	40
15	40
16	29
17	369
18	919
19	20
22	50
26	10
27	359
28	2609
29	959
30	9999
31	759
32	549
33	10
38	10
39	529
40	99
41	2189
42	229
43	1799
44	4079
45	139
46	40
48	129
50	20
51	60
52	30
53	359
54	129
55	2449
56	819
57	2709
58	179
59	109
60	20
63	20
65	139
66	70
67	1729
68	5229
69	1909
70	689
71	399
72	109
73	20
75	10
77	199
78	50
79	529
80	289
81	3439
82	3739
83	1179
84	719
85	659
86	80
87	10
89	10
90	10
91	329
92	149
93	899
94	329
95	1179
96	879
97	819
98	189
99	60
100	70
103	10
104	10
105	139
106	50
107	1789
108	269
109	5029
110	559
111	119
112	90
113	20
114	10
115	50
117	10
118	20
119	129
120	20
121	1379
122	2549
123	3229
124	3069
125	2079
126	329
127	30
131	10
133	10
134	20
135	40
136	589
137	139
138	589
139	749
140	429
141	80
142	10
146	10
147	40
148	20
149	80
150	30
151	10
152	60
153	269
154	119
155	10
156	109
157	10
162	10
164	10
165	20
166	10
167	50
168	10
170	10
171	229
172	139
173	10
