Mass Spectrum: 3-Phenyl-3-pentanol
Formula: C11 H16 O
CAS: 1565-71-5
Molecular weight: 164
Origin: NIST Mass Spectrometry Data Center, 1990.
m/z	RELATIVE INTENSITY
14	113
26	136
27	964
28	636
29	1530
31	79
32	150
38	158
39	1156
40	199
41	524
42	79
43	790
45	151
50	758
51	2155
52	442
53	621
54	151
55	363
56	79
57	7443
58	360
62	320
63	1012
64	475
65	1322
66	174
67	543
68	334
69	84
71	89
74	304
75	363
76	500
77	3177
78	1160
79	601
86	107
87	164
88	83
89	669
90	83
91	4984
92	405
93	170
102	557
103	608
104	360
105	1262
106	116
113	90
115	4877
116	1634
117	9999
118	1043
119	76
127	278
128	693
129	792
130	301
131	1697
132	199
133	154
134	76
135	8249
136	785
145	571
146	4582
147	552
