Mass Spectrum: 3-Decanol
Formula: C10 H22 O
CAS: 1565-81-7
Molecular weight: 158
Origin: Japan AIST/NIMC Database- Spectrum MS-NW-5194
m/z	RELATIVE INTENSITY
15	50
17	10
18	40
26	50
27	829
28	189
29	1349
30	70
31	1519
32	20
38	10
39	519
40	90
41	2399
42	509
43	1879
44	229
45	179
51	30
52	10
53	129
54	90
55	3109
56	719
57	889
58	909
59	9999
60	359
61	30
65	20
66	20
67	169
68	99
69	6849
70	649
71	169
72	90
73	40
77	10
79	20
81	70
82	90
83	589
84	219
85	119
86	10
87	10
95	20
96	20
97	139
98	109
99	20
100	20
101	10
109	10
110	40
111	1549
112	189
113	10
127	30
128	30
129	1469
130	139
131	10
140	159
141	20
156	10
157	30
