Mass Spectrum: 1-Butanol, 2-methyl-, (S)-
Formula: C5 H12 O
CAS: 1565-80-6
Molecular weight: 88
Origin: Chuck Anderson, Aldrich Chemical Co.
m/z	RELATIVE INTENSITY
14	27
15	248
16	10
18	23
19	78
20	8
25	11
26	305
27	2467
28	709
29	8470
30	267
31	4104
32	73
33	150
36	17
37	62
38	168
39	2019
40	311
41	9999
42	1320
43	1386
44	80
45	775
46	15
49	16
50	109
51	141
52	36
53	264
54	68
55	2030
56	7160
57	6549
58	311
59	226
60	35
65	7
67	16
68	7
69	259
70	3100
71	204
72	8
87	8
88	8
