Mass Spectrum: 3,3-Dimethylbutylamine
Formula: C6 H15 N
CAS: 15673-00-4
Molecular weight: 101
Origin: Chuck Anderson, Aldrich Chemical Co.
m/z	RELATIVE INTENSITY
15	50
17	28
18	21
26	23
27	321
28	334
29	468
30	9999
31	158
32	3
37	3
38	23
39	330
40	58
41	774
42	187
43	222
44	360
45	424
46	15
50	18
51	29
52	9
53	52
54	18
55	84
56	84
57	301
58	28
65	3
67	14
68	13
69	35
70	27
84	4
86	16
101	402
102	35
