Mass Spectrum: Thiazole, 2-ethyl-
Formula: C5 H7 N S
CAS: 15679-09-1
Molecular weight: 113
Origin: Japan AIST/NIMC Database- Spectrum MS-IW-7679
m/z	RELATIVE INTENSITY
14	10
15	30
25	10
26	189
27	359
28	219
29	209
30	10
32	50
33	20
34	10
37	60
38	99
39	359
40	119
41	479
42	40
43	10
44	60
45	669
46	70
47	50
50	20
51	70
52	219
53	50
54	549
55	60
56	159
57	1029
58	9039
59	1459
60	519
61	60
64	10
66	10
67	10
68	439
69	60
70	90
71	179
72	70
73	90
76	30
80	20
82	20
83	60
84	50
85	599
86	349
87	60
88	10
97	10
98	2309
99	129
100	109
110	10
112	9589
113	9999
114	1229
115	479
116	30
