Mass Spectrum: (CH3)2C=NC2H5
Formula: C8 H19 N
CAS: 15673-04-8
Molecular weight: 129
Origin: NIST Mass Spectrometry Data Center
m/z	RELATIVE INTENSITY
14	20
15	390
18	100
26	30
27	390
28	250
29	460
30	440
39	330
40	70
41	761
42	1001
43	330
44	350
45	180
46	20
50	10
51	20
52	10
53	70
54	40
55	130
56	210
58	9999
59	330
67	10
68	10
69	20
70	50
71	30
72	140
80	10
82	20
84	10
98	10
112	20
126	10
129	330
130	30
