Mass Spectrum: Acetone, (2,4-dinitrophenyl)hydrazone
Formula: C9 H10 N4 O4
CAS: 1567-89-1
Molecular weight: 238
Origin: Japan AIST/NIMC Database- Spectrum MS-IW-6503
m/z	RELATIVE INTENSITY
15	389
26	30
27	149
28	699
29	299
30	489
31	50
37	40
38	119
39	639
40	159
41	1289
42	749
43	509
44	30
45	10
46	10
50	159
51	649
52	309
53	99
54	169
55	99
56	1949
57	189
58	90
59	2689
60	90
61	60
62	279
63	569
64	239
65	229
66	139
67	40
68	99
69	40
71	10
72	30
73	20
74	169
75	539
76	409
77	679
78	1319
79	1849
80	199
81	50
82	30
84	489
85	20
87	20
88	80
89	139
90	249
91	579
92	429
93	149
94	50
95	30
96	10
98	10
101	20
102	139
103	169
104	399
105	419
106	319
107	169
108	30
115	579
116	249
117	469
118	229
119	259
120	80
121	70
122	909
123	119
124	10
128	20
129	50
130	149
131	179
132	99
133	50
134	40
135	439
136	119
137	30
138	30
143	10
144	40
145	299
146	159
147	139
148	40
149	60
150	50
151	70
152	1789
153	289
154	20
158	10
159	10
160	20
161	50
162	20
163	109
164	60
165	179
166	40
167	10
174	10
175	30
176	30
177	60
178	70
179	20
180	1049
181	1569
182	159
183	30
189	10
190	30
191	40
192	50
193	10
196	159
197	20
204	90
205	40
206	10
207	20
208	50
210	10
221	30
222	99
223	40
238	9999
239	1249
240	159
241	10
