Mass Spectrum: Thiazole, 4-methyl-2-(1-methylethyl)-
Formula: C7 H11 N S
CAS: 15679-13-7
Molecular weight: 141
Origin: Japan AIST/NIMC Database- Spectrum MS-IW-3487
m/z	RELATIVE INTENSITY
15	60
26	60
27	489
28	229
29	109
32	20
37	60
38	129
39	1069
40	119
41	519
42	589
43	399
44	60
45	1679
46	99
47	149
50	30
51	60
52	109
53	119
54	419
55	469
56	30
57	60
58	80
59	119
60	40
61	10
62	60
63	80
64	20
65	40
66	40
67	20
68	149
69	289
70	139
71	2949
72	2489
73	1869
74	179
75	80
76	10
78	10
79	10
80	40
81	10
82	30
83	20
84	10
85	70
86	20
87	30
93	10
94	10
96	809
97	60
98	40
99	1039
100	369
101	90
102	20
108	20
112	70
113	289
114	30
115	10
124	40
125	50
126	9999
127	819
128	479
129	30
138	20
140	1879
141	4629
142	519
143	219
144	10
