Mass Spectrum: Methyl 1-methylcyclopropyl ketone
Formula: C6 H10 O
CAS: 1567-75-5
Molecular weight: 98
Origin: Chuck Anderson, Aldrich Chemical Co.
m/z	RELATIVE INTENSITY
14	43
15	317
16	5
25	13
26	170
27	937
28	228
29	1213
30	30
31	17
36	6
37	74
38	178
39	1358
40	172
41	646
42	410
43	9999
44	232
45	53
49	41
50	234
51	272
52	106
53	646
54	214
55	3458
56	243
57	19
58	22
61	12
62	17
63	19
65	26
66	11
67	78
68	16
69	85
70	58
71	10
74	1
77	29
78	3
79	58
80	7
81	7
82	29
83	981
84	53
96	20
97	922
98	1155
99	92
100	6
