Mass Spectrum: Pyrroliphene
Formula: C23 H29 N O2
CAS: 15686-97-2
Molecular weight: 351
Origin: AAFS Toxicology Section MS DB Committee, U. Alberta, Canada
m/z	RELATIVE INTENSITY
38	10
39	60
41	100
42	320
43	240
44	10
45	10
50	10
51	60
52	10
53	20
54	10
55	220
56	70
57	10
58	10
60	10
62	10
63	50
64	10
65	140
66	10
67	30
68	30
69	20
70	90
71	30
72	10
74	10
75	10
76	40
77	300
78	50
79	20
80	30
81	20
82	210
83	180
84	9999
85	570
86	10
87	10
88	10
89	80
90	10
91	860
92	60
93	10
94	10
96	50
97	10
98	10
99	10
100	10
101	10
102	50
103	70
104	30
105	340
106	20
108	10
110	60
111	40
112	80
113	10
114	10
115	850
116	150
117	430
118	40
119	10
126	20
127	60
128	140
129	260
130	330
131	60
132	10
133	30
134	10
139	10
141	10
142	10
143	50
144	10
147	10
150	10
151	20
152	70
153	10
154	10
156	10
163	10
164	10
165	110
166	20
167	10
168	10
176	30
177	20
178	240
179	210
180	20
181	10
189	40
190	20
191	60
192	30
193	360
194	60
195	10
196	10
197	20
198	10
200	30
201	10
202	30
203	20
204	10
205	20
206	10
207	60
208	490
209	70
210	10
219	10
220	10
276	20
287	10
291	20
292	40
293	10
