Mass Spectrum: 11-Methylheptacosane
Formula: C28 H58
CAS: 15689-68-6
Molecular weight: 394
Origin: J. Klune, Insect Chem. Ecol. Lab., USDA, Beltsville, MD 20705
m/z	RELATIVE INTENSITY
41	3376
42	1104
43	9070
44	275
49	4
53	140
54	303
55	3176
56	2117
57	9999
58	485
59	10
65	24
66	29
67	333
68	395
69	1938
70	1323
71	7384
72	380
73	4
77	10
79	43
80	15
81	183
82	539
83	1527
84	769
85	5597
86	345
87	5
91	12
93	5
95	87
96	406
97	1570
98	502
99	2091
100	145
109	36
110	222
111	987
112	366
113	1296
114	105
123	15
124	131
125	531
126	243
127	696
128	59
137	10
138	90
139	221
140	1120
141	522
142	51
152	51
153	85
154	116
155	266
156	33
166	50
167	86
168	7967
169	3519
170	372
171	24
180	29
181	40
182	220
183	261
184	35
194	19
195	28
196	145
197	161
198	23
208	13
209	20
210	107
211	106
212	14
222	5
223	13
224	1094
225	451
226	64
238	75
239	70
240	11
251	6
252	3580
253	2870
254	506
255	35
266	144
267	135
268	25
280	134
281	129
282	26
294	95
295	104
296	24
308	105
309	137
310	29
322	113
323	150
324	35
336	97
337	153
338	37
350	92
351	169
352	45
353	4
364	119
365	295
366	83
367	12
378	59
379	415
380	124
381	16
392	15
393	52
394	342
395	98
396	14
