Mass Spectrum: Phenol, 4-methoxy-2-nitro-
Formula: C7 H7 N O4
CAS: 1568-70-3
Molecular weight: 169
Origin: Japan AIST/NIMC Database- Spectrum MS-IW-5204
m/z	RELATIVE INTENSITY
15	80
18	20
25	10
26	99
27	60
28	129
29	70
30	99
31	10
37	60
38	109
39	259
40	30
41	189
42	30
43	40
45	10
49	30
50	209
51	819
52	659
53	1029
54	189
55	329
56	10
57	10
58	20
59	50
60	10
61	90
62	219
63	339
64	149
65	319
66	99
67	99
68	99
69	299
70	40
71	10
73	10
74	20
75	20
76	50
77	70
78	80
79	1699
80	409
81	90
82	80
83	40
84	40
90	10
91	80
92	139
93	359
94	389
95	579
96	169
97	10
98	139
99	10
107	1389
108	939
109	289
110	40
111	839
112	60
120	10
121	10
122	239
123	889
124	729
125	60
126	10
136	80
137	30
139	279
140	20
152	559
153	119
154	399
155	30
168	10
169	9999
170	819
171	109
