Mass Spectrum: Clemastine
Formula: C21 H26 Cl N O
CAS: 15686-51-8
Molecular weight: 343
Origin: Patti Price, Georgia Bureau of Investigation, Decatur, Georgia
m/z	RELATIVE INTENSITY
41	220
42	1070
43	280
44	150
45	230
50	40
51	130
52	20
53	170
54	110
55	260
56	120
57	80
58	60
60	10
63	30
65	30
67	70
68	80
69	130
70	180
71	100
72	70
73	20
74	10
75	90
76	60
77	390
78	40
79	40
80	20
81	100
82	520
83	140
84	9999
85	570
86	20
87	10
88	130
89	40
90	10
91	30
93	10
94	20
95	20
96	80
97	80
98	340
99	140
100	60
101	120
102	140
103	340
104	40
105	310
106	20
107	10
108	20
109	10
110	160
111	140
112	70
113	40
114	10
115	30
116	80
117	10
121	10
123	10
125	10
126	30
127	20
128	3683
129	300
130	20
133	10
136	10
137	170
138	20
139	380
140	30
141	90
142	10
147	10
149	70
150	20
151	50
152	90
153	20
154	10
162	10
163	40
164	40
165	320
166	50
167	20
175	10
176	50
177	40
178	290
179	270
180	170
181	60
182	10
199	30
200	10
214	10
215	230
216	50
217	80
218	20
219	10
342	10
