Mass Spectrum: Osmium, dodecacarbonyltri-, triangulo
Formula: C12 O12 Os3
CAS: 15696-40-9
Molecular weight: 912
Origin: B.F.G.JOHNSON DEPT. OF CHEM., UNIV. OF MANCHESTER, UK
m/z	RELATIVE INTENSITY
288	1318
302	2527
316	2967
330	3406
344	2197
358	2527
372	1648
386	1758
400	1758
414	329
428	219
442	219
576	5054
604	3516
632	5274
660	5934
688	3736
716	5494
744	4395
772	7802
800	9999
828	1648
856	879
884	2857
912	3736
