Mass Spectrum: 2-Propanol, 1-propoxy-
Formula: C6 H14 O2
CAS: 1569-01-3
Molecular weight: 118
Origin: NIST Mass Spectrometry Data Center, 2009
m/z	RELATIVE INTENSITY
14	10
15	110
16	10
19	70
26	90
27	1041
28	170
29	771
30	60
31	1301
32	20
33	290
37	20
38	60
39	851
40	160
41	2783
42	1091
43	8348
44	811
45	9999
46	250
47	30
55	320
56	230
57	430
58	270
59	3193
60	130
61	931
62	20
67	10
69	10
71	50
72	1381
73	5265
74	761
75	731
76	30
85	10
89	260
90	10
101	10
103	150
104	10
117	10
118	10
