Mass Spectrum: 5-Hepten-2-ol, 6-methyl-
Formula: C8 H16 O
CAS: 1569-60-4
Molecular weight: 128
Origin: NIST Mass Spectrometry Data Center, 1994
m/z	RELATIVE INTENSITY
13	31
14	64
15	803
16	31
17	5
18	21
19	428
27	2913
28	171
29	2168
30	102
31	653
37	56
39	3213
41	7789
42	1014
43	3334
44	580
45	4118
46	117
50	221
51	485
52	228
53	1298
54	465
55	3069
56	1200
57	712
58	1240
59	337
62	47
63	118
65	337
67	3724
68	1924
69	4089
70	551
71	2168
72	216
77	246
78	62
79	422
80	62
81	1025
82	217
83	212
84	153
85	646
86	140
91	100
93	522
95	9999
96	764
97	47
108	47
110	1872
111	195
113	279
128	814
129	79
