Mass Spectrum: 5-Hexen-3-ol, 3-methyl-
Formula: C7 H14 O
CAS: 1569-44-4
Molecular weight: 114
Origin: NIST Mass Spectrometry Data Center, 1990.
m/z	RELATIVE INTENSITY
26	176
27	947
28	96
29	968
31	440
38	252
39	1927
40	392
41	1550
43	7069
44	285
45	1353
50	178
51	257
52	141
53	709
55	5707
56	432
57	1953
58	178
65	247
66	121
67	499
68	131
69	275
71	151
73	9999
74	464
77	220
79	629
81	1328
85	917
96	393
99	157
