Mass Spectrum: 4-Penten-2-ol, 3-methyl-
Formula: C6 H12 O
CAS: 1569-59-1
Molecular weight: 100
Origin: NIST Mass Spectrometry Data Center, 1990.
m/z	RELATIVE INTENSITY
15	536
26	385
27	2122
28	1055
29	1613
39	1860
40	637
41	3757
42	416
43	3028
45	7851
50	331
51	442
53	630
54	404
55	1840
56	9999
57	899
