Mass Spectrum: Spiropentane
Formula: C5 H8
CAS: 157-40-4
Molecular weight: 68
Origin: NIST Mass Spectrometry Data Center, 1990.
m/z	RELATIVE INTENSITY
12	26
13	41
14	146
15	158
24	21
25	89
26	784
27	2167
28	557
29	123
31	144
32	55
36	80
37	679
38	1502
39	7293
40	5618
41	1352
42	718
43	30
48	25
49	174
50	660
51	619
52	329
53	2984
54	130
55	6
60	37
61	139
62	180
63	211
64	6
65	645
66	6
67	9999
68	736
69	31
