Mass Spectrum: Nickel[II] bis(O,O'-diethyldithiophosphate)
Formula: C8 H20 Ni O4 P2 S4
CAS: 15701-66-3
Molecular weight: 428
Origin: W. SZCZEPANIAK, INSTRUM. LAB., MICKIEWICZ UNIV., POZNAN, POL.
m/z	RELATIVE INTENSITY
109	300
121	2100
122	900
123	600
124	500
125	400
137	500
139	400
143	400
153	400
154	700
155	700
156	400
157	300
169	500
170	600
171	300
172	200
185	500
186	500
187	2400
188	500
189	1000
214	300
215	900
216	300
217	600
218	500
219	900
220	300
221	400
234	900
236	600
243	1000
244	300
245	500
251	400
252	500
262	900
264	300
279	300
280	300
281	300
298	300
307	600
308	200
309	500
316	2500
318	1400
320	300
326	300
344	2300
346	1300
348	300
354	400
355	300
356	300
372	2300
374	1300
376	300
383	300
400	1900
402	1100
428	9999
429	1200
430	6000
431	900
432	1500
434	300
