Mass Spectrum: Butyl 2-methylbutanoate
Formula: C9 H18 O2
CAS: 15706-73-7
Molecular weight: 158
Origin: MASS SPECTRA OF ORGANIC COMPOUNDS, CSIRO, B.H. KENNETT ET AL
m/z	RELATIVE INTENSITY
26	180
27	1660
28	1030
29	5370
30	150
31	180
39	730
40	130
41	4350
42	260
43	700
45	180
53	110
55	850
56	4430
57	9999
58	460
59	60
69	70
71	120
73	290
74	1840
75	200
84	60
85	4770
86	270
87	690
101	120
102	360
103	6300
104	360
115	140
130	420
131	40
