Mass Spectrum: 2,3-Diethylpyrazine
Formula: C8 H12 N2
CAS: 15707-24-1
Molecular weight: 136
Origin: NIST Mass Spectrometry Data Center
m/z	RELATIVE INTENSITY
13	10
14	30
15	380
18	10
25	40
26	1391
27	2142
28	2262
29	1181
30	80
31	10
37	160
38	480
39	2592
40	831
41	1661
42	450
43	30
46	10
47	30
49	20
50	370
51	751
52	2182
53	1351
54	1672
55	1061
56	1301
57	50
60	240
62	80
63	200
64	210
65	571
66	470
67	350
68	140
69	70
74	20
75	50
76	70
77	220
78	330
79	861
80	4044
81	1591
82	190
83	10
91	40
92	130
93	410
94	310
95	100
96	10
104	40
105	90
106	330
107	1952
108	761
109	210
110	10
117	10
118	70
119	631
120	841
121	9999
122	801
123	30
131	20
132	20
133	140
135	4504
136	9569
137	881
138	30
