Mass Spectrum: p-Menth-3-en-9-ol
Formula: C10 H18 O
CAS: 15714-10-0
Molecular weight: 154
m/z	RELATIVE INTENSITY
26	50
27	881
29	891
30	80
31	631
39	1291
40	210
41	2642
42	210
43	1221
44	70
45	50
50	90
51	310
52	190
53	1291
54	190
55	2362
56	140
57	520
58	160
63	90
65	460
66	250
67	2933
68	591
69	861
70	90
71	50
77	1001
78	220
79	2002
80	390
81	7156
82	691
83	320
84	70
91	801
92	240
93	1641
94	921
95	2502
96	240
97	190
105	190
106	50
107	1862
108	360
109	120
121	1291
122	380
123	9999
124	1221
125	60
135	50
136	861
137	110
154	1501
155	160
