Mass Spectrum: Pentanedinitrile, 2-methylene-
Formula: C6 H6 N2
CAS: 1572-52-7
Molecular weight: 106
Origin: Japan AIST/NIMC Database- Spectrum MS-NW-1035
m/z	RELATIVE INTENSITY
13	10
14	20
15	119
25	30
26	389
27	509
28	309
29	20
36	30
37	279
38	309
39	2489
40	619
41	189
42	10
44	20
48	10
49	60
50	199
51	539
52	999
53	389
54	559
55	30
61	10
62	40
63	90
64	369
65	60
66	9999
67	509
74	10
75	80
76	90
77	60
78	209
79	399
80	30
91	50
105	70
106	2129
107	149
