Mass Spectrum: 2,2-Dimethylvaleroyl chloride
Formula: C7 H13 Cl O
CAS: 15721-22-9
Molecular weight: 148
Origin: NIST Mass Spectrometry Data Center, 1994
m/z	RELATIVE INTENSITY
4	25
14	62
15	397
26	236
27	1784
28	503
29	1245
30	27
31	15
32	22
35	33
36	53
37	89
38	256
39	2308
40	530
41	4245
42	981
43	9709
44	324
49	66
50	115
51	208
52	67
53	413
54	83
55	794
56	738
57	1659
58	70
61	26
63	423
64	26
65	181
66	39
67	144
68	26
69	854
70	546
71	145
75	15
77	91
78	15
79	31
83	101
85	9999
86	678
87	24
91	184
93	55
97	14
106	289
107	23
108	97
113	58
119	33
133	11
