Mass Spectrum: 4-Heptanone, 3-methyl-
Formula: C8 H16 O
CAS: 15726-15-5
Molecular weight: 128
Origin: CONTINENTAL OIL CO., PONCA CITY, OKLA, USA
m/z	RELATIVE INTENSITY
13	31
14	164
15	853
16	31
17	24
18	71
19	9
20	5
24	4
25	21
26	506
27	4922
28	1396
29	4344
30	118
31	85
36	10
37	81
38	195
39	2234
40	325
41	4809
42	836
43	9999
44	356
45	53
49	13
50	83
51	130
52	51
53	303
54	73
55	1039
56	703
57	9012
58	437
59	16
61	6
62	10
63	18
65	24
66	16
67	53
68	21
69	125
70	323
71	8871
72	682
73	68
74	9
77	20
78	12
79	29
81	37
82	13
83	253
84	54
85	1447
86	89
87	9
91	5
95	10
96	4
97	7
98	85
99	36
100	564
101	39
102	4
111	4
112	5
113	83
114	8
128	1025
129	97
