Mass Spectrum: (R)-(-)-3-Methyl-2-butanol
Formula: C5 H12 O
CAS: 1572-93-6
Molecular weight: 88
Origin: NIST Mass Spectrometry Data Center
m/z	RELATIVE INTENSITY
13	10
14	110
15	561
16	30
17	10
18	30
19	280
26	190
27	1341
28	520
29	1061
30	60
31	520
32	70
37	50
38	130
39	851
40	130
41	981
42	340
43	1742
44	1411
45	9999
46	240
47	40
49	10
50	40
51	60
52	10
53	100
55	1321
56	70
57	180
58	50
59	100
67	10
69	80
70	40
71	70
73	811
74	90
87	40
88	40
