Mass Spectrum: 2-Butyne-1,4-diol, diacetate
Formula: C8 H10 O4
CAS: 1573-17-7
Molecular weight: 170
Origin: NIST Mass Spectrometry Data Center, 1994
m/z	RELATIVE INTENSITY
12	18
13	50
14	254
15	924
16	10
17	6
18	2
20	3
24	4
25	25
26	146
29	240
30	22
31	50
36	9
37	82
38	190
39	479
40	140
41	208
42	9
43	9999
44	267
45	66
46	2
50	291
51	516
52	232
53	64
54	17
55	55
56	8
57	32
58	30
61	323
62	8
65	15
66	43
68	335
69	93
70	20
71	66
72	17
73	5
82	630
83	38
84	14
85	5
86	481
87	21
95	4
96	2
97	8
98	12
99	10
100	49
103	89
104	4
110	230
111	242
112	16
113	4
127	61
128	161
129	10
