Mass Spectrum: 3-Heptanol, 3,6-dimethyl-
Formula: C9 H20 O
CAS: 1573-28-0
Molecular weight: 144
Origin: NIST Mass Spectrometry Data Center, 1990.
m/z	RELATIVE INTENSITY
15	212
27	1233
28	806
29	1500
30	212
31	331
32	99
39	863
41	2190
42	359
43	3151
44	172
45	882
53	289
55	4997
56	526
57	1353
58	344
59	418
67	156
69	2202
70	730
71	630
72	156
73	9999
74	462
83	236
97	2275
98	202
111	177
115	1402
116	108
126	128
129	429
