Mass Spectrum: 3-Penten-1-yne, (Z)-
Formula: C5 H6
CAS: 1574-40-9
Molecular weight: 66
Origin: D.HENNEBERG, MAX-PLANCK INSTITUTE, MULHEIM, WEST GERMANY
m/z	RELATIVE INTENSITY
26	393
27	755
28	409
31	8
32	29
37	420
38	1274
39	5185
40	3771
41	162
44	75
48	12
49	103
50	677
51	813
52	28
54	7
61	291
62	803
63	1521
64	405
65	4594
66	9999
67	482
