Mass Spectrum: Hydrazinecarboxamide, 2-(phenylmethylene)-
Formula: C8 H9 N3 O
CAS: 1574-10-3
Molecular weight: 163
Origin: Japan AIST/NIMC Database- Spectrum MS-IW-5266
m/z	RELATIVE INTENSITY
13	10
14	10
15	30
16	149
17	319
18	529
26	60
27	139
28	389
29	119
30	20
31	20
32	10
37	99
38	199
39	609
40	90
41	119
42	789
43	1819
44	729
45	40
46	30
49	60
50	789
51	1159
52	339
53	60
54	60
55	20
56	10
57	30
59	40
60	2349
61	2439
62	239
63	599
64	289
65	1199
66	659
67	80
68	10
69	20
71	20
73	60
74	199
75	409
76	2019
77	2569
78	949
79	139
80	109
81	20
82	10
83	20
84	10
85	20
86	50
87	40
88	30
89	879
90	609
91	609
92	1809
93	2139
94	189
95	20
96	10
97	20
98	10
99	60
100	20
101	20
102	189
103	9999
104	3119
105	399
106	40
109	10
111	10
112	10
113	10
116	10
117	60
118	219
119	6439
120	4759
121	399
122	10
125	10
127	10
128	20
137	109
138	20
139	30
145	50
146	80
147	20
162	30
163	2049
164	219
165	10
