Mass Spectrum: Nickel, bis(1,1,1-trifluoro-4-thioxo-2-pentanonato-O,S)-
Formula: C10 H8 F6 Ni O2 S2
CAS: 15744-66-8
Molecular weight: 396
Origin: P.MULLER CHEM. INST., THE UNIV., TUBINGEN, GERMANY, F.R.G
m/z	RELATIVE INTENSITY
69	1400
148	200
149	1100
150	1000
169	9999
170	1100
227	1800
228	300
229	800
231	200
259	300
261	200
299	400
301	200
327	200
329	100
377	200
379	100
396	2100
397	400
398	1100
399	200
400	300
