Mass Spectrum: 3-Penten-1-yne, 3-methyl-
Formula: C6 H8
CAS: 1574-33-0
Molecular weight: 80
Origin: A.G. HARRISON, UNIV. OF TORONTO, TORONTO 5, ONTARIO, CANADA
m/z	RELATIVE INTENSITY
39	5074
50	1995
51	2926
52	2626
53	1655
54	468
63	1010
65	2606
77	5025
78	862
79	9999
80	9557
