Mass Spectrum: 2,3-Dimethyl-4-hydroxy-2-butenoic lactone
Formula: C6 H8 O2
CAS: 1575-46-8
Molecular weight: 112
Origin: O A MAMER, MCGILL UNIVERSITY, MONTREAL, CANA5
m/z	RELATIVE INTENSITY
14	46
15	198
25	64
26	484
27	2443
28	373
29	1944
30	93
31	109
37	241
38	435
39	2699
40	410
41	1050
42	153
43	251
44	94
45	118
49	159
50	717
51	938
52	505
53	1533
54	1266
55	9999
56	634
57	62
61	77
62	83
63	95
65	132
66	139
67	262
68	55
69	183
73	26
75	8
81	42
82	154
83	5278
84	413
85	165
97	64
100	53
111	67
112	3732
113	381
