Mass Spectrum: 2-Naphthalenesulfonanilide
Formula: C16 H13 N O2 S
CAS: 1576-48-3
Molecular weight: 283
Origin: Japan AIST/NIMC Database- Spectrum MS-IW-1684
m/z	RELATIVE INTENSITY
27	30
28	30
37	30
38	129
39	839
40	99
41	50
45	20
48	10
50	139
51	339
52	139
53	30
54	10
61	20
62	109
63	419
64	259
65	1699
66	169
67	10
69	40
74	239
75	479
76	229
77	919
78	80
79	10
86	50
87	119
88	40
89	80
90	30
91	99
92	1439
93	329
94	20
98	70
99	80
100	90
101	629
102	149
103	80
104	10
111	10
113	50
114	70
115	399
116	80
117	10
121	10
122	10
125	90
126	1349
127	9999
128	1249
129	70
131	20
134	10
139	10
140	20
141	10
142	10
143	359
144	60
145	30
146	10
147	169
148	10
149	10
151	10
152	40
153	40
154	10
158	20
159	10
160	20
163	20
164	10
165	90
166	20
174	50
175	149
176	40
177	20
178	40
179	20
188	10
189	99
190	70
191	1279
192	169
193	70
194	10
201	20
202	50
203	40
204	99
205	10
214	20
215	20
216	199
217	1339
218	5559
219	2029
220	269
221	20
235	10
283	2559
284	479
285	159
286	20
