Mass Spectrum: 7-Octenoic acid, methyl ester
Formula: C9 H16 O2
CAS: 15766-90-2
Molecular weight: 156
m/z	RELATIVE INTENSITY
39	3143
40	8056
41	2000
42	4857
43	8142
44	714
50	571
51	714
52	714
53	2000
54	2714
55	9999
56	1228
57	7428
59	5999
67	1943
68	1428
71	714
73	1200
74	9999
75	657
79	371
80	514
81	1343
82	3200
83	1628
85	514
87	2200
88	429
94	571
95	2400
96	771
101	486
114	486
115	657
116	343
125	2000
126	943
128	286
141	200
156	200
