Mass Spectrum: CH3C(O)O(CH2)3CH=CH2
Formula: C7 H12 O2
CAS: 1576-85-8
Molecular weight: 128
Origin: Japan AIST/NIMC Database- Spectrum MS-IW-7677
m/z	RELATIVE INTENSITY
14	40
15	369
18	30
26	60
27	549
28	199
29	389
30	10
31	99
37	20
38	70
39	1019
40	639
41	1759
42	619
43	9459
44	499
45	99
50	40
51	70
52	50
53	1439
54	159
55	439
56	109
57	179
58	109
59	10
61	429
62	20
63	20
65	99
66	189
67	7419
68	9999
69	899
70	80
71	119
72	60
73	289
74	10
81	10
82	10
83	50
84	30
85	60
86	349
87	159
88	10
95	10
97	10
98	179
99	10
100	20
110	10
113	30
129	30
