Mass Spectrum: 2-Penten-1-ol, (E)-
Formula: C5 H10 O
CAS: 1576-96-1
Molecular weight: 86
Origin: FOOD RESEARCH REPORT 118, K.E. MURRAY & COLLEAGUES, DIV. OF FOOD RESEARCH, CSIRO, AUSTRALIA
m/z	RELATIVE INTENSITY
25	30
26	480
27	2990
28	830
29	3050
30	130
31	1430
32	50
37	250
38	530
39	3380
40	880
41	3380
42	880
43	1300
44	2600
45	350
49	80
50	420
51	480
52	190
53	1560
54	340
55	1360
56	470
57	9999
58	580
59	40
61	80
62	100
63	130
64	30
65	270
66	210
67	1750
68	1430
69	220
70	50
71	420
72	50
81	30
82	50
83	120
84	160
85	50
86	1220
87	60
