Mass Spectrum: Benzaldehyde, 2,4-dimethyl-
Formula: C9 H10 O
CAS: 15764-16-6
Molecular weight: 134
Origin: Japan AIST/NIMC Database- Spectrum MS-IW- 589
m/z	RELATIVE INTENSITY
14	30
15	20
18	10
26	40
27	809
28	239
29	139
37	80
38	219
39	1379
40	129
41	189
42	10
43	30
44	10
45	20
49	30
50	499
51	1339
52	369
53	499
54	30
55	40
57	30
58	10
59	20
61	99
62	309
63	819
64	169
65	709
66	199
67	119
73	30
74	209
75	179
76	159
77	2649
78	789
79	2409
80	159
83	10
85	30
86	70
87	70
88	10
89	269
90	109
91	1629
92	129
93	10
98	30
99	10
101	40
102	209
103	1439
104	479
105	8079
106	909
107	129
108	10
115	50
117	10
118	20
119	90
120	10
131	20
132	80
133	9999
134	8809
135	899
136	60
