Mass Spectrum: 2-Vinylethyl acetate
Formula: C6 H10 O2
CAS: 1576-84-7
Molecular weight: 114
Origin: NIST Mass Spectrometry Data Center
m/z	RELATIVE INTENSITY
14	140
15	761
16	20
25	10
26	230
27	1011
28	260
29	591
31	110
32	10
37	70
38	190
39	1792
40	200
41	500
42	400
43	9999
45	100
49	10
50	120
51	140
52	60
53	340
54	3303
55	520
56	20
57	20
60	10
61	30
69	20
70	10
71	20
73	1121
74	30
84	30
