Mass Spectrum: Phenanthrene, 2,7-dimethyl-
Formula: C16 H14
CAS: 1576-69-8
Molecular weight: 206
Origin: G.A.M.S., PARIS, FRANCE.
m/z	RELATIVE INTENSITY
39	50
40	20
41	10
43	10
50	30
51	30
52	10
53	10
57	10
62	30
64	20
65	20
67	10
68	10
71	10
74	50
75	170
76	650
77	50
81	30
82	50
83	40
86	20
87	110
88	570
89	1040
90	30
91	10
93	10
94	140
95	470
96	40
98	30
99	30
100	240
101	990
102	1400
103	860
104	10
110	10
111	20
113	20
115	30
126	12
127	20
128	20
137	10
138	10
139	70
140	10
141	10
149	10
150	70
151	90
152	150
153	30
161	10
162	20
163	130
164	50
165	210
166	50
174	30
175	40
176	190
177	80
178	250
179	140
180	20
186	10
187	120
188	90
189	1770
190	810
191	2160
192	390
193	70
194	10
198	10
199	20
200	160
201	130
202	650
203	390
204	160
205	2260
206	9999
207	1690
208	220
209	20
