Mass Spectrum: 5-Hexenoic acid
Formula: C6 H10 O2
CAS: 1577-22-6
Molecular weight: 114
Origin: Japan AIST/NIMC Database- Spectrum MS-IW- 898
m/z	RELATIVE INTENSITY
14	20
15	90
16	10
18	20
26	149
27	1319
28	559
29	1429
30	60
31	139
32	20
33	10
34	10
37	60
38	169
39	2629
40	479
41	4639
42	1799
43	929
44	219
45	989
46	30
47	30
48	10
49	10
50	80
51	129
52	60
53	719
54	2459
55	9179
56	639
57	649
58	339
59	219
60	9999
61	349
62	80
63	40
64	10
65	119
66	90
67	779
68	5109
69	2189
70	219
71	419
72	219
73	3089
74	139
75	20
77	10
79	20
80	10
81	339
82	40
83	20
84	10
85	139
86	249
87	40
91	10
93	10
94	30
95	90
96	2329
97	479
98	30
99	849
100	60
112	10
113	60
114	1499
115	159
116	10
