Mass Spectrum: 1-Acetoxynonadecane
Formula: C21 H42 O2
CAS: 1577-43-1
Molecular weight: 326
Origin: NIST Mass Spectrometry Data Center
m/z	RELATIVE INTENSITY
15	40
26	20
27	280
28	120
29	961
30	30
38	10
39	330
40	100
41	3413
42	1061
43	9999
44	300
45	70
51	20
52	10
53	220
54	781
55	5405
56	2803
57	5465
58	350
59	80
61	4644
62	110
63	20
65	40
66	90
67	1041
68	1451
69	4394
70	2512
71	2572
72	150
73	410
74	20
77	30
78	10
79	110
80	50
81	721
82	2672
83	5515
84	1812
85	1581
86	110
87	50
88	20
91	20
93	20
94	30
95	380
96	1281
97	5295
98	1381
99	390
100	30
101	70
102	30
107	10
108	10
109	160
110	500
111	2903
112	801
113	220
114	20
115	20
116	350
117	20
122	10
123	90
124	310
125	1351
126	520
127	130
128	20
129	20
130	50
136	10
137	50
138	200
139	490
140	310
141	80
142	10
151	10
152	120
153	230
154	210
155	40
156	10
165	10
166	90
167	110
168	140
169	30
180	50
181	60
182	90
183	20
194	40
195	30
196	50
197	20
208	20
209	20
210	50
211	10
222	20
223	10
224	20
236	10
237	10
238	200
239	40
240	10
254	10
264	10
266	150
267	40
311	10
