Mass Spectrum: 3-Hexenoic acid, (E)-
Formula: C6 H10 O2
CAS: 1577-18-0
Molecular weight: 114
Origin: Japan AIST/NIMC Database- Spectrum MS-NW-3273
m/z	RELATIVE INTENSITY
12	10
13	10
14	50
15	259
16	10
17	40
18	159
19	10
24	10
25	30
26	419
27	3109
28	339
29	2889
30	90
31	279
32	50
33	30
34	10
36	50
37	219
38	499
39	3929
40	839
41	9999
42	3109
43	1509
44	169
45	1249
46	40
47	40
48	10
49	60
50	349
51	469
52	209
53	1619
54	1019
55	7719
56	449
57	2109
58	339
59	339
60	4419
61	179
62	119
63	139
64	30
65	229
66	129
67	1169
68	4749
69	4069
70	299
71	659
72	309
73	3469
74	149
75	30
76	10
77	80
78	20
79	40
80	20
81	539
82	50
83	70
84	30
85	159
86	219
87	40
91	50
93	20
94	10
95	149
96	859
97	329
98	40
99	1379
100	90
101	20
111	30
112	20
113	99
114	3909
115	299
116	30
