Mass Spectrum: 4-Chlorobenzoic acid, 2-propenyl ester
Formula: C10 H9 Cl O2
CAS: 15784-28-8
Molecular weight: 196
Origin: V.Zaikin,Topchiev Inst.Petrochem.Synth.,Moscow
m/z	RELATIVE INTENSITY
27	20
29	20
35	10
36	80
38	30
39	110
40	10
41	130
50	170
51	100
52	20
55	10
57	50
61	20
63	20
65	10
73	40
74	160
75	681
76	190
77	100
78	20
79	30
84	20
85	80
86	10
87	20
91	20
103	10
104	70
105	30
110	40
111	1702
112	170
113	571
114	50
115	80
116	30
117	150
118	20
125	10
128	10
135	20
138	10
139	9999
140	871
141	3203
142	270
143	20
151	90
152	10
153	30
156	330
157	40
158	100
159	20
161	20
167	10
179	10
181	40
183	10
196	661
197	80
198	200
199	20
