Mass Spectrum: 2(1H)-Quinolinone, hydrazone
Formula: C9 H9 N3
CAS: 15793-77-8
Molecular weight: 159
Origin: Japan AIST/NIMC Database- Spectrum MS-NW-2759
m/z	RELATIVE INTENSITY
16	30
17	20
18	70
26	40
27	109
28	219
29	60
30	20
31	90
36	10
37	109
38	189
39	449
40	60
41	70
42	10
43	20
44	10
45	10
49	60
50	509
51	819
52	309
53	50
54	20
57	40
58	149
59	10
61	99
62	269
63	579
64	239
65	139
66	40
67	10
71	30
72	129
73	40
74	269
75	639
76	589
77	769
78	309
79	249
80	30
85	20
86	40
87	99
88	249
89	839
90	739
91	119
92	10
93	10
98	40
99	50
100	99
101	809
102	1699
103	789
104	109
105	10
113	20
114	269
115	1349
116	859
117	1809
118	179
119	10
126	10
127	149
128	1699
129	9859
130	1889
131	159
132	20
141	70
142	769
143	439
144	4549
145	609
146	40
158	789
159	9999
160	1149
161	60
