Mass Spectrum: 3-Dimethylaminoanisole
Formula: C9 H13 N O
CAS: 15799-79-8
Molecular weight: 151
Origin: NIST Mass Spectrometry Data Center
m/z	RELATIVE INTENSITY
14	30
15	2222
26	110
27	330
29	210
30	70
31	50
37	80
38	400
39	1031
40	140
41	400
42	1692
43	220
44	711
49	40
50	500
51	651
52	500
53	270
54	70
55	80
58	70
59	50
61	120
62	240
63	1031
64	1011
65	1271
66	681
67	420
68	200
69	40
73	30
74	180
76	641
77	1141
78	711
79	440
80	110
81	70
82	60
89	30
90	110
91	300
92	1141
93	500
94	170
95	90
103	30
104	300
105	170
106	290
107	861
108	1481
109	260
117	40
118	200
119	120
120	801
121	360
122	1051
123	110
134	420
135	1842
136	911
137	80
148	130
150	9999
151	8237
152	821
153	50
