Mass Spectrum: Terodiline
Formula: C20 H27 N
CAS: 15793-40-5
Molecular weight: 281
Origin: R RYHAGE MS-LAB KAROLINSKA INSTITUTET STOCKHOLM SWEDEN
m/z	RELATIVE INTENSITY
13	25
14	141
17	160
18	209
24	6
26	166
27	67
29	607
30	123
38	6
39	239
41	914
42	638
43	61
44	9999
45	209
50	104
51	209
52	98
53	61
54	25
55	104
56	92
57	1123
58	1399
59	55
62	6
63	49
65	92
67	12
68	18
70	160
71	86
72	86
74	43
75	18
76	67
77	258
78	160
80	6
84	141
86	104
88	31
89	67
90	43
91	883
92	49
95	6
96	25
97	18
98	31
99	49
100	6202
101	497
102	129
103	331
104	172
105	423
106	37
107	18
109	12
113	49
114	31
115	245
116	31
117	18
121	6
122	6
125	18
126	18
128	110
129	49
130	215
131	104
132	43
133	135
135	25
136	6
137	6
138	6
139	67
140	18
141	18
142	12
146	25
147	12
149	196
150	31
151	49
152	485
153	43
154	12
155	6
156	6
157	6
158	6
160	25
162	18
163	55
164	67
165	779
166	411
167	2853
168	442
169	43
175	12
176	31
177	12
178	147
179	178
180	31
181	55
182	12
183	6
188	12
189	6
190	6
191	31
192	12
193	239
194	37
197	6
198	18
202	12
203	25
204	31
205	31
206	43
207	209
208	571
209	92
210	25
211	6
212	6
216	6
217	6
221	6
222	67
223	37
224	12
225	18
228	12
233	6
234	6
235	6
236	12
237	25
244	6
245	6
246	12
249	6
250	6
251	25
255	6
262	6
263	6
264	18
265	920
266	1988
267	417
268	49
276	6
278	12
279	18
280	1325
281	1074
282	319
283	74
