Mass Spectrum: Benzene, 1,1'-oxybis[4-methyl-
Formula: C14 H14 O
CAS: 1579-40-4
Molecular weight: 198
Origin: Japan AIST/NIMC Database- Spectrum MS-IW-8059
m/z	RELATIVE INTENSITY
27	90
28	30
38	30
39	409
40	30
41	129
50	99
51	289
52	109
53	109
55	40
61	10
62	70
63	299
64	90
65	1249
66	70
70	10
71	10
74	20
75	30
76	60
77	429
78	249
79	149
80	20
82	30
83	30
84	40
85	10
86	10
87	20
88	10
89	429
90	169
91	5519
92	599
93	30
97	709
98	339
99	80
102	10
103	10
104	10
105	249
106	50
107	429
108	149
109	10
115	149
116	30
117	10
119	10
127	70
128	179
129	189
130	20
139	30
140	10
141	129
142	70
143	40
151	20
152	129
153	309
154	409
155	959
156	129
157	20
165	129
166	40
167	40
168	119
169	359
170	329
171	40
178	20
179	40
180	10
181	189
182	189
183	439
184	60
194	10
195	60
196	40
197	1139
198	9999
199	1529
200	129
