Mass Spectrum: 2,4,5-Trifluorobenzyl bromide
Formula: C7 H4 Br F3
CAS: 157911-56-3
Molecular weight: 224
Origin: NIST Mass Spectrometry Data Center
m/z	RELATIVE INTENSITY
12	10
19	30
20	10
25	20
26	50
31	891
32	30
33	30
36	40
37	190
38	180
39	140
44	60
48	20
49	120
50	490
51	490
52	10
55	60
56	270
57	410
58	10
60	40
61	240
62	280
63	200
64	20
68	290
69	380
70	50
73	130
74	380
75	1191
76	100
77	20
79	440
80	250
81	711
82	60
83	10
84	20
85	90
86	80
87	60
88	90
91	10
92	100
93	260
94	330
95	761
96	40
99	360
100	70
101	160
102	80
103	90
104	50
105	130
106	50
107	60
111	10
112	70
113	50
114	180
115	10
117	30
119	881
120	50
123	130
125	1842
126	280
127	10
141	10
143	460
145	9999
146	811
147	30
224	360
225	70
226	360
227	30
