Mass Spectrum: Benzenamine, 4-methyl-N-sulfinyl-
Formula: C7 H7 N O S
CAS: 15795-42-3
Molecular weight: 153
m/z	RELATIVE INTENSITY
26	805
27	4268
28	366
37	610
38	1658
39	8536
40	366
41	610
45	732
48	1707
49	244
50	3536
51	8048
52	5975
53	439
58	415
61	293
62	488
63	2780
64	561
65	4146
66	732
67	244
73	366
74	488
75	732
76	1000
77	5121
78	8536
79	1707
80	537
81	732
85	488
90	244
91	1707
92	2317
93	244
97	1585
98	1951
99	244
104	4634
105	3658
106	463
107	244
110	1951
111	195
112	195
120	293
124	1341
125	1707
126	488
136	488
137	244
138	8292
139	488
140	195
152	122
153	9999
154	732
155	366
