Mass Spectrum: Trifluralin
Formula: C13 H16 F3 N3 O4
CAS: 1582-09-8
Molecular weight: 335
Origin: ACCUSTANDARD Chemicals / NIST MS Data Center.
m/z	RELATIVE INTENSITY
15	241
18	9
19	52
20	26
27	4447
28	157
29	1515
30	834
31	236
36	37
37	47
39	1345
41	5770
43	9575
44	401
45	76
46	47
50	161
51	190
52	232
53	97
54	164
55	154
56	330
57	982
58	81
59	41
61	39
62	127
63	237
64	254
65	141
66	30
67	31
68	72
69	382
70	126
71	27
72	36
73	29
74	169
75	494
76	203
77	174
78	114
79	34
80	47
81	159
82	52
83	59
84	34
87	58
88	163
89	193
90	103
91	97
92	54
93	67
94	95
95	268
96	95
97	34
98	33
99	87
100	76
101	138
102	153
103	177
104	140
105	691
106	85
107	140
108	102
109	175
110	39
111	37
112	71
113	184
114	137
115	117
116	77
117	103
118	103
119	148
120	140
121	91
122	59
123	149
124	66
125	332
126	514
127	333
128	109
129	74
130	245
131	324
132	198
133	244
134	95
135	62
136	33
137	67
138	153
139	177
140	367
141	200
142	119
143	441
144	429
145	998
146	292
147	244
148	178
149	69
150	49
151	190
152	226
153	536
154	113
155	26
156	35
157	98
158	381
159	726
160	845
161	201
162	67
163	42
164	48
165	78
166	169
167	122
168	54
169	63
170	96
171	374
172	608
173	340
174	420
175	121
176	185
177	28
178	72
179	52
180	100
181	44
182	47
183	75
184	80
185	196
186	386
187	516
188	454
189	288
190	154
191	35
192	20
194	24
195	18
196	27
197	90
198	291
199	232
200	239
201	354
202	481
203	94
204	24
205	18
206	738
207	63
211	53
212	210
213	293
214	269
215	146
216	92
217	209
218	262
219	101
224	28
225	51
226	40
227	88
228	73
229	39
230	37
231	107
232	260
233	99
234	106
239	26
240	27
241	28
242	62
243	64
244	93
245	90
246	50
247	26
248	1401
249	118
250	31
255	35
258	57
259	127
260	203
261	41
264	8094
265	689
266	101
274	77
276	41
277	36
278	56
290	1447
291	187
292	43
301	47
302	43
306	9999
307	1264
308	156
316	695
317	156
318	368
319	54
320	19
335	955
336	152
