Mass Spectrum: 2,4-Difluorobenzoic acid
Formula: C7 H4 F2 O2
CAS: 1583-58-0
Molecular weight: 158
Origin: NIST Mass Spectrometry Data Center
m/z	RELATIVE INTENSITY
10	20
11	20
13	20
14	90
17	170
23	20
26	20
29	100
31	731
32	20
36	20
37	360
38	180
44	260
45	651
49	70
50	601
51	160
56	220
57	430
61	571
62	801
63	3043
64	110
68	681
69	270
70	50
73	160
74	671
75	400
81	460
82	260
83	20
87	120
88	170
92	260
93	510
94	621
101	60
110	20
112	270
113	4474
114	540
139	20
141	9999
142	781
158	5685
159	530
