Mass Spectrum: .+/-.-Tetrahydro-3-furanmethanol
Formula: C5 H10 O2
CAS: 15833-61-1
Molecular weight: 102
Origin: NIST Mass Spectrometry Data Center
m/z	RELATIVE INTENSITY
26	30
27	540
28	80
29	540
30	50
31	550
33	10
37	80
38	210
39	1732
40	220
41	2983
42	520
43	4674
44	280
45	220
47	10
49	30
50	150
51	200
52	80
53	801
54	220
55	550
56	410
57	881
58	90
59	10
60	130
61	120
62	20
63	20
65	50
66	30
67	70
68	50
69	691
70	180
71	9999
72	961
73	60
81	10
83	210
84	2172
85	130
86	10
87	120
102	50
