Mass Spectrum: Pyrazine, 5-butyl-2,3-dimethyl-
Formula: C10 H16 N2
CAS: 15834-78-3
Molecular weight: 164
m/z	RELATIVE INTENSITY
15	350
16	20
17	10
18	40
19	10
25	10
26	20
27	1511
28	470
29	440
30	30
31	10
32	10
37	40
38	190
39	1922
40	290
41	701
42	1161
43	220
44	170
45	10
46	10
47	10
48	10
49	10
50	120
51	310
52	561
53	991
54	410
55	130
56	40
57	60
58	10
59	10
60	10
61	10
62	10
63	40
64	60
65	130
66	140
67	190
68	120
69	20
70	10
71	10
72	10
73	10
74	10
75	10
76	10
77	60
78	50
79	100
80	781
81	150
82	40
83	10
84	40
85	10
86	10
87	10
88	10
89	10
90	10
91	20
92	30
93	50
94	150
95	70
96	30
97	10
98	10
99	10
100	10
101	10
102	10
103	10
104	10
105	20
106	20
107	130
108	130
109	60
110	20
111	10
112	10
113	10
114	10
115	10
116	10
117	10
118	10
119	20
120	110
121	550
122	9999
123	1802
124	150
125	10
131	10
132	10
133	10
134	20
135	60
136	1301
137	510
138	10
144	10
145	10
146	20
147	80
148	30
149	571
150	110
151	10
160	10
161	10
162	80
163	160
164	270
165	60
166	10
