Mass Spectrum: 3-Fluorophthalic acid
Formula: C8 H5 F O4
CAS: 1583-67-1
Molecular weight: 184
Origin: Japan AIST/NIMC Database- Spectrum MS-IW-8127
m/z	RELATIVE INTENSITY
16	20
17	10
18	30
20	10
25	10
26	30
27	10
28	399
29	20
31	309
32	10
36	70
37	619
38	149
39	90
41	30
43	20
44	249
45	119
46	70
47	1199
48	40
49	199
50	1369
51	1129
52	20
53	70
55	109
56	169
57	309
58	10
60	90
61	1199
62	309
63	319
64	40
65	20
66	10
67	30
68	1759
69	169
70	50
71	50
72	40
73	259
74	1079
75	859
76	99
77	60
78	10
79	20
80	30
81	90
82	80
83	559
84	50
85	20
90	10
91	40
92	379
93	649
94	9999
95	1169
96	99
97	10
101	10
103	30
104	10
105	10
107	10
108	20
109	30
110	90
111	239
112	50
119	20
120	20
121	50
122	9559
123	2499
124	189
125	10
135	10
136	20
137	20
138	20
139	359
140	1609
141	129
142	10
149	20
154	30
166	7599
167	1339
168	129
169	30
182	10
184	899
185	90
186	10
