Mass Spectrum: 1,2,4-Cyclopentanetrione
Formula: C5 H4 O3
CAS: 15849-14-6
Molecular weight: 112
Origin: M. V. ANDEWALLE
m/z	RELATIVE INTENSITY
37	220
38	220
39	360
40	160
41	1450
42	9999
43	6800
44	270
53	430
55	860
56	180
67	230
68	110
69	5400
70	2900
71	260
84	100
112	9999
113	620
