Mass Spectrum: 3-Hexene, 2-methyl-, (Z)-
Formula: C7 H14
CAS: 15840-60-5
Molecular weight: 98
Origin: NIST Mass Spectrometry Data Center, 1990.
m/z	RELATIVE INTENSITY
14	286
15	667
26	284
27	2578
28	1790
29	1276
32	377
38	419
39	3743
40	848
41	8225
42	678
43	1400
50	472
51	677
52	320
53	1235
55	8382
56	4552
57	405
63	172
65	388
66	191
67	1182
69	9999
70	1113
77	209
79	279
81	177
83	1503
98	3045
99	290
