Mass Spectrum: Perfluoro-2-methyl-2-pentene
Formula: C6 F12
CAS: 1584-03-8
Molecular weight: 300
Origin: S.Huang, Org.Mass Spectrom. 24, 1065 (1989)
m/z	RELATIVE INTENSITY
69	2472
70	280
71	280
74	230
93	1001
100	330
105	230
112	280
113	230
119	280
124	280
131	230
143	851
151	230
162	330
175	90
181	9999
182	520
193	420
212	661
231	4004
232	380
281	6286
282	420
