Mass Spectrum: 4,6-Bis(chloromethyl)-m-xylene
Formula: C10 H12 Cl2
CAS: 1585-15-5
Molecular weight: 202
Origin: NIST Mass Spectrometry Data Center
m/z	RELATIVE INTENSITY
15	10
26	10
27	80
35	10
36	10
37	10
38	50
39	370
40	30
41	90
49	40
50	140
51	490
52	130
53	180
54	10
55	10
57	50
61	30
62	110
63	400
64	611
65	561
67	10
69	20
73	40
74	80
75	130
76	60
77	450
78	150
79	90
81	10
83	20
84	10
85	10
86	30
87	50
88	20
89	200
90	40
91	1561
92	130
98	10
99	20
101	50
102	160
103	290
104	80
105	150
106	10
113	20
114	30
115	1802
116	1071
117	901
118	130
119	10
125	50
126	30
127	220
128	450
129	490
130	130
131	2472
132	1541
133	170
134	10
139	90
140	10
141	30
149	10
151	40
152	50
153	170
154	30
155	50
165	60
166	190
167	9999
168	1181
169	3473
170	360
171	10
187	20
189	10
201	30
202	2142
203	240
204	1371
205	150
206	220
207	20
