Mass Spectrum: Benzenepentacarboxylic acid
Formula: C11 H6 O10
CAS: 1585-40-6
Molecular weight: 298
Origin: Japan AIST/NIMC Database- Spectrum MS-NW-4234
m/z	RELATIVE INTENSITY
12	99
16	209
17	619
18	2239
24	30
25	40
26	10
28	759
29	70
30	10
31	50
32	10
36	549
37	2449
38	359
39	40
40	10
41	10
42	20
43	30
44	4179
45	389
46	20
48	139
49	249
50	659
51	939
52	60
53	259
54	20
55	10
57	10
58	40
59	119
60	219
61	659
62	649
63	119
64	90
65	419
66	50
67	10
68	10
69	40
72	309
73	2709
74	3509
75	349
76	60
77	179
78	40
79	30
80	10
82	10
84	50
85	40
86	20
87	129
88	40
89	169
90	469
91	119
92	30
93	10
94	10
97	10
100	50
101	1669
102	5519
103	499
104	60
105	10
106	90
107	70
108	10
116	70
117	879
118	949
119	199
120	219
121	20
129	50
130	389
131	40
132	30
133	10
134	90
135	30
136	139
137	10
145	70
146	2339
147	249
148	349
149	40
150	30
159	20
160	40
161	10
162	109
163	50
164	40
172	10
173	139
174	9999
175	1039
176	139
177	20
188	50
189	30
190	209
191	30
192	629
193	119
194	20
202	10
204	70
205	10
206	20
207	20
217	10
218	6559
219	779
220	129
221	10
230	40
232	30
233	20
236	229
237	30
245	80
246	10
