Mass Spectrum: Benzene, 1-bromo-4-ethyl-
Formula: C8 H9 Br
CAS: 1585-07-5
Molecular weight: 184
Origin: NIST Mass Spectrometry Data Center, 1992
m/z	RELATIVE INTENSITY
12	20
13	33
14	97
15	501
17	35
18	296
24	14
25	39
26	346
27	1485
28	574
29	134
32	26
36	32
37	317
38	770
39	1658
40	154
41	84
43	84
44	73
45	79
48	26
49	346
50	2482
51	3799
52	770
53	293
54	19
55	16
61	348
62	949
63	2111
64	477
65	283
66	37
72	20
73	238
74	1159
75	1135
76	948
77	3395
78	1190
79	1636
80	170
81	124
82	59
83	25
85	127
86	192
87	250
88	20
89	2776
90	3394
91	344
92	90
93	46
95	16
97	39
98	117
99	33
101	165
102	659
103	1705
104	1613
105	9999
106	908
107	50
116	28
117	122
118	29
119	127
128	19
129	33
130	26
131	33
141	36
143	99
145	89
146	9
155	62
156	121
157	81
158	94
169	8873
171	8541
172	627
173	29
181	13
182	31
184	4077
185	680
186	4018
187	366
188	17
