Mass Spectrum: (CH3)2NCl
Formula: C2 H6 Cl N
CAS: 1585-74-6
Molecular weight: 79
Origin: A.Pleshkova, Nesmeyanov Inst.Org.Elem.Cpds, Moscow
m/z	RELATIVE INTENSITY
27	300
28	2712
29	80
40	350
41	781
42	6015
43	2933
44	1471
45	340
46	90
78	9999
79	6936
80	3433
81	2292
82	60
