Mass Spectrum: 3-Bromobenzyl alcohol
Formula: C7 H7 Br O
CAS: 15852-73-0
Molecular weight: 186
Origin: NIST Mass Spectrometry Data Center, 1990.
m/z	RELATIVE INTENSITY
17	51
18	26
26	232
27	563
29	869
30	86
31	616
36	58
37	397
38	797
39	1129
40	138
41	44
42	46
43	172
44	119
49	460
50	3002
51	3247
52	773
53	1002
55	112
60	53
61	314
62	547
63	1043
64	215
65	84
73	329
74	1222
75	1490
76	1697
77	9293
78	3770
79	9999
80	658
81	107
82	63
84	61
85	74
86	169
87	123
88	61
89	1160
90	925
91	162
92	88
93	70
105	587
107	6880
108	554
117	62
119	46
128	50
129	57
130	60
131	74
143	47
155	600
157	1482
158	246
159	851
160	67
169	387
170	105
171	336
172	55
183	656
184	536
185	1189
186	4460
187	1275
188	4465
189	363
