Mass Spectrum: 4-(Methylthio)phenyl isothiocyanate
Formula: C8 H7 N S2
CAS: 15863-41-9
Molecular weight: 181
Origin: NIST Mass Spectrometry Data Center, 1994
m/z	RELATIVE INTENSITY
15	524
17	54
18	64
34	58
37	276
38	432
39	648
40	12
44	412
45	936
46	317
47	286
48	68
49	119
50	1274
51	684
52	166
53	47
54	74
56	48
57	244
58	410
60	62
61	210
62	406
63	1271
64	570
65	92
68	89
69	1364
70	432
71	193
72	125
73	44
74	44
75	597
76	373
77	578
78	262
79	64
81	196
82	637
83	319
84	160
87	51
88	90
89	110
90	783
93	117
94	154
95	287
96	321
97	77
102	115
103	60
104	111
105	69
106	146
107	60
108	3991
109	427
110	229
116	174
120	68
121	221
122	1368
123	182
124	73
133	170
134	282
135	221
136	252
139	137
148	199
149	145
150	171
166	8568
167	832
168	744
169	69
181	9999
182	1188
183	1060
184	129
