Mass Spectrum: Octane, 3,6-dimethyl-
Formula: C10 H22
CAS: 15869-94-0
Molecular weight: 142
Origin: D.HENNEBERG, MAX-PLANCK INSTITUTE, MULHEIM, WEST GERMANY
m/z	RELATIVE INTENSITY
24	6
25	26
26	85
27	887
28	25
29	2582
30	55
36	2
38	17
39	625
41	3073
42	435
43	5021
44	41
45	18
50	4
51	31
52	11
53	148
54	75
55	826
56	2408
57	9999
58	436
63	4
65	11
67	45
68	7
69	274
70	499
71	5627
72	341
77	12
79	7
82	18
83	177
84	210
85	453
86	27
99	13
112	365
113	1072
114	92
127	44
140	3
142	101
