Mass Spectrum: Ethyl pipecolinate
Formula: C8 H15 N O2
CAS: 15862-72-3
Molecular weight: 157
Origin: NIST Mass Spectrometry Data Center
m/z	RELATIVE INTENSITY
14	20
15	190
16	10
18	80
19	10
26	170
27	1101
28	2172
29	1291
30	821
31	150
38	30
39	320
40	70
41	621
42	611
43	180
44	60
45	80
46	10
50	20
51	40
52	40
53	140
54	370
55	921
56	2282
57	220
58	30
59	10
65	20
67	230
68	150
69	40
70	20
73	60
74	20
80	80
82	420
84	9999
85	601
86	20
100	20
110	20
128	20
157	60
158	10
