Mass Spectrum: 1,1'-Biphenyl, 2,4,5-trichloro-
Formula: C12 H7 Cl3
CAS: 15862-07-4
Molecular weight: 256
Origin: T.L.Hayes, Battelle Columbus Laboratories, Columbus, OH 43221
m/z	RELATIVE INTENSITY
34	40
35	138
36	336
37	249
38	313
39	627
40	534
41	28
42	30
43	45
44	49
47	32
49	250
50	1045
51	1251
52	233
53	9
55	56
56	19
57	46
60	119
61	722
62	940
63	605
64	27
67	90
68	26
71	35
72	132
73	622
74	1736
75	3042
76	720
77	470
78	139
79	234
80	418
81	111
83	27
84	307
85	556
86	636
87	426
88	55
89	27
91	92
92	1199
93	3626
94	1247
96	145
97	795
98	1216
99	792
100	193
101	190
102	192
103	92
104	9
107	95
108	252
109	492
110	2508
111	2001
112	204
113	74
114	88
115	143
116	122
117	35
118	11
119	31
120	113
121	195
122	332
123	435
124	156
125	269
126	221
127	42
128	780
129	725
130	209
131	48
132	55
133	242
134	88
135	174
136	192
137	33
138	34
143	10
144	27
145	82
146	66
147	266
148	119
149	667
150	3293
151	2216
152	254
157	44
158	72
159	98
160	232
161	61
162	73
169	84
170	31
171	62
172	22
173	12
181	63
182	89
183	74
184	286
185	549
186	8472
187	1220
188	2775
189	308
193	54
194	68
195	38
196	83
197	39
198	20
204	40
206	57
207	68
208	63
209	63
217	27
219	35
220	584
221	167
222	414
223	86
224	63
230	21
232	9
256	9999
257	1347
258	9694
259	1242
260	3200
261	373
262	326
263	11
