Mass Spectrum: Heptane, 3-ethyl-
Formula: C9 H20
CAS: 15869-80-4
Molecular weight: 128
Origin: NIST Mass Spectrometry Data Center, 1990.
m/z	RELATIVE INTENSITY
27	1469
28	603
29	1949
39	1485
41	3979
42	1276
43	4411
44	194
50	70
51	157
52	84
53	502
54	285
55	2109
56	1446
57	9999
58	471
65	102
67	167
68	91
69	611
70	2269
71	1590
83	111
84	199
85	226
98	3428
99	910
128	212
