Mass Spectrum: Octane, 4-ethyl-
Formula: C10 H22
CAS: 15869-86-0
Molecular weight: 142
Origin: NIST Mass Spectrometry Data Center, 1990.
m/z	RELATIVE INTENSITY
27	1419
28	548
29	1960
39	1411
41	4721
42	1189
43	5616
44	238
51	148
52	97
53	512
54	298
55	2132
56	2215
57	9999
58	414
65	114
67	278
68	155
69	1043
70	1138
71	4376
72	231
77	104
82	150
83	494
84	1992
85	2014
86	114
98	1812
99	369
112	2496
113	778
142	296
