Mass Spectrum: Octane, 4,5-dimethyl-
Formula: C10 H22
CAS: 15869-96-2
Molecular weight: 142
Origin: Japan AIST/NIMC Database- Spectrum MS-IW-5294
m/z	RELATIVE INTENSITY
15	10
26	30
27	919
28	80
29	1449
30	30
38	20
39	689
40	109
41	2709
42	1709
43	8879
44	379
45	50
50	10
51	50
52	20
53	229
54	90
55	3139
56	509
57	7319
58	329
63	10
65	40
66	10
67	99
68	60
69	579
70	9999
71	7169
72	359
73	30
77	40
78	10
79	40
81	20
82	10
83	70
84	90
85	309
86	30
97	99
98	749
99	1459
100	109
111	10
112	70
113	189
114	10
115	10
127	40
142	329
143	30
