Mass Spectrum: Octane, 2,2-dimethyl-
Formula: C10 H22
CAS: 15869-87-1
Molecular weight: 142
Origin: NIST Mass Spectrometry Data Center, 1990.
m/z	RELATIVE INTENSITY
15	59
27	778
28	369
29	1394
32	48
39	1043
41	4178
42	459
43	2181
44	91
51	81
52	44
53	280
54	122
55	1310
56	6157
57	9999
58	460
65	48
67	109
68	41
69	393
70	41
71	2157
72	124
77	34
79	32
83	66
84	257
85	1275
86	87
127	490
128	48
