Mass Spectrum: 1-Heptene, 2-methyl-
Formula: C8 H16
CAS: 15870-10-7
Molecular weight: 112
Origin: Chuck Anderson, Aldrich Chemical Co.
m/z	RELATIVE INTENSITY
14	1
15	32
25	4
26	94
27	1678
28	440
29	2892
30	65
31	2
32	5
36	3
37	27
38	103
39	2023
40	479
41	5237
42	964
43	467
44	15
45	5
46	2
49	6
50	87
51	189
52	83
53	616
54	223
55	2999
56	9999
57	1845
58	74
59	2
61	4
62	13
63	29
64	6
65	81
66	28
67	285
68	165
69	2202
70	833
71	58
72	3
74	7
75	4
76	2
77	75
78	16
79	73
80	11
81	48
82	15
83	202
84	663
85	42
86	3
89	2
91	15
92	2
93	5
95	13
96	9
97	235
98	18
112	1118
113	95
114	5
