Mass Spectrum: Octanoic acid, 4-methyl-, methyl ester
Formula: C10 H20 O2
CAS: 15870-07-2
Molecular weight: 172
Origin: MASS SPECTRA OF ORGANIC COMPOUNDS, V. 6, B. H. KENNETT ET AL, DIV. OF FOOD RESEARCH, CSIRO, AUSTRALIA
m/z	RELATIVE INTENSITY
26	140
27	2450
29	3070
30	120
31	300
39	1450
41	4650
42	1200
43	8490
45	350
53	480
54	270
55	5750
56	1740
57	7000
58	370
59	2020
60	130
65	80
67	300
68	120
69	1470
70	460
71	490
72	100
73	1950
74	9450
75	1030
76	80
81	370
82	120
83	1680
84	200
85	460
86	50
87	9999
88	4400
89	260
96	160
97	590
98	670
99	3360
100	240
101	720
102	110
107	50
111	120
112	180
115	2350
116	190
122	70
123	380
125	180
129	200
139	70
140	50
141	1130
142	120
143	390
155	80
157	30
172	60
