Mass Spectrum: 4-Heptyloxybenzoic acid
Formula: C14 H20 O3
CAS: 15872-42-1
Molecular weight: 236
Origin: NIST Mass Spectrometry Data Center, 1994
m/z	RELATIVE INTENSITY
4	37
27	621
28	136
29	1087
38	94
39	896
41	2338
42	424
43	1393
44	72
45	61
50	151
51	215
52	79
53	376
54	126
55	1178
56	1029
57	2515
58	118
62	57
63	289
64	199
65	1244
66	157
67	147
68	127
69	751
70	676
71	76
74	52
75	156
76	212
77	234
78	79
79	188
80	53
81	347
82	69
83	162
91	88
92	178
93	404
94	64
95	365
97	51
98	517
99	42
103	84
104	69
105	70
107	110
109	143
110	102
119	40
121	3274
122	328
123	85
138	9999
139	3673
140	302
147	27
151	262
219	61
222	81
236	3429
237	551
238	51
