Mass Spectrum: 4-Pentyloxybenzoic acid
Formula: C12 H16 O3
CAS: 15872-41-0
Molecular weight: 208
Origin: NIST Mass Spectrometry Data Center, 1994
m/z	RELATIVE INTENSITY
15	57
16	25
17	22
18	45
26	88
27	1832
28	349
29	1966
30	34
32	1
37	69
38	296
39	1715
40	219
41	2272
42	779
43	4013
44	161
45	109
50	406
51	367
52	99
53	553
54	82
55	1239
56	50
57	23
61	32
62	147
63	519
64	327
65	1589
66	214
67	102
68	23
69	134
70	523
71	314
72	21
73	23
74	64
75	224
76	303
77	272
78	79
79	152
80	21
81	470
82	75
83	13
89	12
90	16
91	115
92	235
93	543
94	71
95	277
96	26
103	66
104	70
105	60
106	16
107	88
109	133
110	128
119	69
121	4723
122	416
123	72
133	27
135	27
138	9999
139	1660
140	171
141	15
147	35
151	212
152	30
163	13
165	10
179	20
191	39
199	20
208	1418
209	189
210	12
