Mass Spectrum: Butanedioic acid, hydroxy-, dimethyl ester
Formula: C6 H10 O5
CAS: 1587-15-1
Molecular weight: 162
Origin: W. KELLY UNILEVER RESEARCH COLWORTH/WELWYN, BEDFORD U.K.
m/z	RELATIVE INTENSITY
41	310
42	1100
43	7350
45	530
53	190
54	190
55	440
56	90
57	310
58	120
59	2970
60	120
61	4850
62	120
67	60
69	220
71	9070
72	280
73	90
74	1090
75	90
77	90
82	80
83	150
85	620
87	120
97	60
101	150
102	750
103	9999
104	460
105	150
106	60
113	1620
114	180
130	400
131	500
