Mass Spectrum: Bicyclo[2.2.1]-2,5-heptadiene-2,3-dicarboxylic acid
Formula: C9 H8 O4
CAS: 15872-28-3
Molecular weight: 180
Origin: NIST Mass Spectrometry Data Center, 1994
m/z	RELATIVE INTENSITY
12	80
13	85
14	67
15	112
17	66
18	99
24	96
25	149
26	675
27	828
28	218
36	136
37	1199
38	1740
39	2358
40	505
41	72
42	71
43	205
44	253
45	34
48	72
49	516
50	1560
51	1262
52	298
53	673
60	175
61	1142
62	1977
63	4168
64	1857
65	637
66	1373
73	160
74	330
75	363
76	122
77	536
78	253
79	110
84	100
85	182
86	269
87	249
88	100
89	8949
90	9999
91	877
92	1035
93	95
105	332
106	125
117	277
118	2953
119	272
134	203
161	222
162	1749
163	168
