Mass Spectrum: Pentanal, 3-methyl-
Formula: C6 H12 O
CAS: 15877-57-3
Molecular weight: 100
m/z	RELATIVE INTENSITY
27	1631
28	370
29	2813
31	70
39	1441
40	220
41	4484
42	671
43	3853
44	2192
45	781
54	70
55	1001
56	9999
57	2042
58	1371
67	300
69	190
70	40
71	1441
72	410
81	70
82	260
85	190
99	40
100	150
