Mass Spectrum: 4-Hexadecyloxybenzoic acid
Formula: C23 H38 O3
CAS: 15872-48-7
Molecular weight: 362
Origin: J. Little, Eastman chemical company.
m/z	RELATIVE INTENSITY
27	500
29	1531
39	460
41	3293
42	701
43	5775
54	350
55	3773
56	1381
57	5715
65	500
67	470
68	410
69	2472
70	1321
71	3023
81	320
82	510
83	1902
84	891
85	1772
94	540
95	450
96	290
97	1541
98	561
99	380
110	150
111	861
112	380
113	180
121	1481
122	140
125	340
126	220
138	9999
139	5265
140	530
141	70
151	320
152	40
153	60
154	110
168	70
169	30
179	40
180	10
196	110
197	20
224	90
225	20
318	60
319	20
334	50
335	10
345	80
346	30
362	3473
363	951
364	140
365	20
