Mass Spectrum: Cyclopentane, 1,2,3-trimethyl-, (1.alpha.,2.alpha.,3.beta.)-
Formula: C8 H16
CAS: 15890-40-1
Molecular weight: 112
m/z	RELATIVE INTENSITY
12	10
13	10
14	10
15	390
16	10
26	130
27	2752
28	821
29	2292
30	60
37	30
38	70
39	2242
40	410
41	5995
42	2342
43	991
44	40
45	10
46	20
47	10
50	50
51	200
52	110
53	821
54	430
55	9058
56	9178
57	2472
58	100
62	10
63	60
64	10
65	120
66	60
67	340
68	340
69	3533
70	9999
71	1041
72	40
75	10
77	120
78	30
79	100
80	20
81	140
82	70
83	891
84	2192
85	130
86	10
89	10
91	40
92	10
93	20
94	10
95	110
96	30
97	851
98	70
99	10
109	10
111	60
112	1832
113	150
114	10
