Mass Spectrum: 4-Fluorobenzyl mercaptan
Formula: C7 H7 F S
CAS: 15894-04-9
Molecular weight: 142
Origin: NIST Mass Spectrometry Data Center, 1994
m/z	RELATIVE INTENSITY
18	20
25	14
26	74
27	56
31	188
32	131
33	434
34	78
35	23
36	19
37	126
38	213
39	506
40	35
43	11
44	61
45	1525
46	115
47	150
48	14
49	81
50	439
51	363
52	49
53	11
55	21
56	134
57	950
58	97
59	151
60	149
61	227
62	310
63	570
64	64
65	25
68	91
69	299
70	176
71	138
73	35
74	115
75	322
76	56
77	108
78	15
79	17
80	55
81	397
82	144
83	2101
84	137
85	55
86	65
87	89
88	32
89	262
90	27
91	7
92	24
93	85
94	55
95	261
96	165
97	71
104	13
105	38
107	625
109	9999
110	771
111	45
113	16
115	18
117	14
119	12
121	29
126	15
139	236
140	45
142	1791
143	171
144	110
