Mass Spectrum: Methyl 3-(methylthio)-(E)-2-propenoate
Formula: C5 H8 O2 S
CAS: 15904-85-5
Molecular weight: 132
Origin: G.Takeoka ET AL,J.Agric.Food Chem., 39,1848(1991)
m/z	RELATIVE INTENSITY
39	641
41	230
44	310
45	6196
46	1241
47	1601
48	210
53	691
54	170
55	430
56	180
57	1912
58	4174
59	1241
60	240
61	240
69	270
71	701
72	2182
73	5575
74	621
75	410
77	190
83	110
85	2572
86	510
87	410
89	280
91	80
99	360
100	3463
101	9999
102	681
103	581
105	140
115	190
117	5525
118	250
119	300
132	6796
133	500
134	270
