Mass Spectrum: Methyl 3-(methylthio)-(Z)-2-propenoate
Formula: C5 H8 O2 S
CAS: 15904-84-4
Molecular weight: 132
Origin: G.Takeoka ET AL,J.Agric.Food Chem.,39,1848(1991)
m/z	RELATIVE INTENSITY
39	841
41	460
45	6846
46	1411
47	1862
48	270
51	190
53	811
54	230
55	460
56	250
57	1541
58	4764
59	1451
60	340
61	420
68	140
69	420
71	661
72	2682
73	6256
74	871
75	510
77	250
85	2662
86	350
87	571
89	550
99	390
100	4594
101	9999
102	891
103	601
105	240
106	150
115	340
117	6105
118	390
119	350
132	7517
133	510
134	350
