Mass Spectrum: 3-Butenenitrile, 2-(benzoyloxy)-4-phenyl-
Formula: C17 H13 N O2
CAS: 1591-17-9
Molecular weight: 263
m/z	RELATIVE INTENSITY
41	270
42	236
43	338
45	169
50	169
51	845
52	169
57	101
59	236
63	169
65	101
69	68
74	169
75	101
76	169
77	2027
78	270
83	68
89	68
102	101
103	236
105	9999
106	676
113	68
114	540
115	1689
116	405
123	101
131	507
132	68
140	1013
141	2196
142	1182
143	34
182	169
263	1419
264	338
