Mass Spectrum: 3-Hexene, 2,5-dimethyl-
Formula: C8 H16
CAS: 15910-22-2
Molecular weight: 112
Origin: NIST Mass Spectrometry Data Center, 1990.
m/z	RELATIVE INTENSITY
13	27
14	89
15	518
16	30
18	39
26	248
27	2504
28	567
29	1488
30	36
32	15
37	73
38	336
39	3094
40	780
41	8385
42	685
43	1391
44	60
46	41
50	235
51	528
52	261
53	1147
54	41
55	6326
56	4180
57	1619
58	80
62	54
63	122
64	39
65	287
66	192
67	946
68	1480
69	9999
70	1593
71	75
74	26
77	291
78	80
79	368
80	64
81	392
82	44
83	98
84	67
91	42
95	62
96	47
97	463
98	38
112	1380
113	140
