Mass Spectrum: [1,1'-Biphenyl]-4,4'-dicarbonitrile
Formula: C14 H8 N2
CAS: 1591-30-6
Molecular weight: 204
Origin: NIST Mass Spectrometry Data Center, 1994
m/z	RELATIVE INTENSITY
26	119
27	74
28	128
37	161
38	145
39	334
40	45
49	50
50	686
51	511
52	212
53	28
61	161
62	366
63	559
64	268
65	38
72	15
73	79
74	501
75	997
76	575
77	162
78	29
85	75
86	172
87	256
88	422
89	423
90	38
97	28
98	171
99	336
100	336
101	196
102	382
103	74
109	23
110	44
111	102
112	106
113	176
114	102
115	10
116	13
122	40
123	131
124	170
125	173
126	197
127	251
128	34
135	19
136	16
137	45
138	112
140	179
141	24
147	23
148	50
149	257
150	509
151	448
152	183
153	287
154	24
162	38
163	24
164	111
165	68
175	434
176	1096
177	1311
178	445
179	55
189	39
200	23
202	436
203	1641
204	9999
205	1481
206	120
