Mass Spectrum: Heptane, 4-methylene-
Formula: C8 H16
CAS: 15918-08-8
Molecular weight: 112
Origin: CARL DJERASSI DEPT OF CHEM STANFORD UNIV STANFORD CALIF 94305
m/z	RELATIVE INTENSITY
39	1200
40	100
41	5100
42	1300
43	700
53	300
55	6800
56	9999
57	300
67	300
69	5100
70	1700
83	400
84	2500
112	1900
113	167
114	6
