Mass Spectrum: 1H-Isoindole-1,3(2H)-dione, 2-[1,1'-biphenyl]-4-yl-
Formula: C20 H13 N O2
CAS: 1592-49-0
Molecular weight: 299
Origin: J.L.COTTER MINISTRY OF AVIATION SUPPLY, RAE, FARNBOROUGH, UK
m/z	RELATIVE INTENSITY
39	100
41	100
43	100
44	18
50	400
51	200
57	100
63	100
64	100
74	100
75	200
76	2000
77	300
88	100
89	100
101	100
102	800
103	100
104	800
105	100
113	100
114	100
115	200
121	100
126	100
127	100
128	100
130	100
139	300
140	200
141	100
150	200
151	300
152	3500
153	500
164	100
166	200
167	100
178	100
179	100
195	100
215	100
222	100
226	100
227	100
228	100
240	100
241	100
242	100
252	50
253	100
254	650
255	1050
256	200
270	100
298	200
299	9999
300	2200
