Mass Spectrum: Butanethioic acid, 3-oxo-, S-(1,1-dimethylethyl) ester
Formula: C8 H14 O2 S
CAS: 15925-47-0
Molecular weight: 174
m/z	RELATIVE INTENSITY
27	1201
28	1301
29	1902
39	1201
41	3803
42	601
43	3203
55	801
56	1101
57	9999
58	1201
69	400
84	500
85	5605
90	1702
91	701
118	4304
119	1401
174	2502
175	300
