Mass Spectrum: Cyclohexanone, 5-methyl-2-(1-methylethylidene)-
Formula: C10 H16 O
CAS: 15932-80-6
Molecular weight: 152
Origin: MYNARD C. HAMMING
m/z	RELATIVE INTENSITY
13	57
14	131
15	939
16	36
17	59
18	162
19	31
26	258
27	3390
28	829
29	1610
30	42
31	61
32	42
37	100
38	348
39	4722
40	1119
41	6101
42	1080
43	1876
44	70
45	59
46	25
49	30
50	324
51	953
52	518
53	2508
54	666
55	2022
56	369
57	175
58	45
59	112
60	45
61	64
62	112
63	311
64	117
65	775
66	610
67	7287
68	2316
69	2638
70	324
71	109
72	11
74	46
75	57
76	10
77	813
78	257
79	1046
80	937
81	9999
82	4226
83	553
84	106
85	38
89	46
91	455
92	106
93	475
94	203
95	1389
96	333
97	227
98	32
103	41
105	107
106	36
107	219
108	189
109	4067
110	753
111	107
112	21
115	19
117	19
119	177
120	24
121	102
122	40
123	359
124	177
125	31
133	21
134	32
135	36
136	47
137	1876
138	192
139	49
150	25
151	85
152	4632
153	542
154	45
