Mass Spectrum: 1-Methyl-4-n-hexylbenzene
Formula: C13 H20
CAS: 1595-01-3
Molecular weight: 176
Origin: V.A.KOPTYUG, ATLAS OF MASS SPECTRA OF ORGANIC COMPOUNDS
m/z	RELATIVE INTENSITY
51	435
52	419
53	441
55	377
62	314
63	493
65	501
77	1250
78	537
79	839
89	347
90	241
91	1462
92	608
102	302
103	625
104	663
105	9999
106	2290
107	259
115	529
116	339
117	556
118	377
119	407
120	229
121	366
122	506
131	293
133	277
175	32
176	1589
177	394
