Mass Spectrum: Benzene, 1-methyl-3-hexyl-
Formula: C13 H20
CAS: 1595-03-5
Molecular weight: 176
Origin: V.A.KOPTYUG, ATLAS OF MASS SPECTRA OF ORGANIC COMPOUNDS
m/z	RELATIVE INTENSITY
50	229
51	375
52	259
53	296
55	317
63	287
65	433
77	979
78	527
79	723
80	190
81	198
89	193
90	152
91	1296
92	819
93	238
103	564
104	1259
105	8536
106	9999
107	1109
115	327
116	155
117	469
118	429
119	1400
120	253
131	175
133	389
147	479
176	3146
177	503
