Mass Spectrum: 1-Methyl-2-n-hexylbenzene
Formula: C13 H20
CAS: 1595-10-4
Molecular weight: 176
Origin: V.A.KOPTYUG, ATLAS OF MASS SPECTRA OF ORGANIC COMPOUNDS
m/z	RELATIVE INTENSITY
51	168
53	161
55	213
63	196
65	317
77	772
78	284
79	648
80	103
89	172
90	129
91	1405
92	1079
93	114
103	554
104	467
105	9999
106	3313
107	319
115	305
116	181
117	233
118	168
119	444
120	159
131	147
133	190
176	2507
177	473
