Mass Spectrum: 3-(Trifluoromethoxy)benzyl bromide
Formula: C8 H6 Br F3 O
CAS: 159689-88-0
Molecular weight: 254
Origin: NIST Mass Spectrometry Data Center
m/z	RELATIVE INTENSITY
18	10
26	60
28	40
36	10
37	190
38	510
39	1011
40	50
47	70
49	110
50	961
51	1571
52	941
53	110
54	20
55	30
57	80
61	120
62	330
63	631
64	120
65	30
66	60
67	30
69	2672
70	40
75	80
76	180
77	861
78	1742
79	320
80	40
81	190
83	1742
84	110
85	30
86	60
87	40
89	460
90	210
91	20
92	10
93	20
95	20
96	10
97	10
101	20
105	100
106	120
107	160
109	2692
110	220
111	10
117	10
119	10
127	70
145	10
149	10
157	10
159	10
169	260
171	250
172	20
175	9999
176	961
177	60
185	10
187	20
189	10
254	571
255	80
256	500
257	40
