Mass Spectrum: Butanedioic acid, mono(2,2-dimethylhydrazide)
Formula: C6 H12 N2 O3
CAS: 1596-84-5
Molecular weight: 160
Origin: Japan AIST/NIMC Database- Spectrum MS-NW-6876
m/z	RELATIVE INTENSITY
14	50
15	529
16	119
17	40
18	159
26	109
27	449
28	419
29	359
30	379
31	50
32	30
39	20
40	40
41	80
42	959
43	1679
44	1349
45	1139
46	30
51	10
52	10
53	20
54	30
55	429
56	60
57	119
58	169
59	9999
60	4859
61	149
69	20
70	10
71	60
72	139
73	279
74	50
82	70
83	10
85	40
86	10
87	30
97	10
98	10
99	40
100	1329
101	409
102	30
113	20
114	10
115	30
116	20
117	10
118	1289
119	70
120	10
127	10
131	10
132	20
141	60
142	279
143	169
144	10
145	10
160	509
161	50
