Mass Spectrum: 4,5-Dichloroimidazole
Formula: C3 H2 Cl2 N2
CAS: 15965-30-7
Molecular weight: 136
Origin: NIST Mass Spectrometry Data Center
m/z	RELATIVE INTENSITY
11	20
12	711
13	270
15	30
16	60
24	100
26	220
27	1221
28	2542
29	30
32	30
35	1191
36	140
37	510
38	2312
39	1732
40	180
44	40
47	4484
48	601
49	1551
50	210
51	40
53	110
59	30
61	130
62	1471
64	601
66	100
73	1541
74	3243
75	1081
76	1091
77	50
82	3883
84	2482
86	390
100	581
101	791
102	130
103	140
108	80
109	8828
110	390
111	5725
112	100
113	981
136	9999
137	280
138	6416
139	280
140	1081
