Mass Spectrum: Alachlor
Formula: C14 H20 Cl N O2
CAS: 15972-60-8
Molecular weight: 269
Origin: MASS SPECTROMETRY CENTER, UNIV. OF UTAH EPA-PTSEL 4160
m/z	RELATIVE INTENSITY
14	121
15	593
26	63
27	480
28	593
29	1024
30	111
31	116
32	71
34	28
35	57
36	155
38	115
39	550
40	39
41	402
42	321
43	198
44	158
45	9999
46	286
47	17
49	475
50	120
51	550
52	170
53	240
54	9
55	21
58	7
59	321
62	57
63	248
64	79
65	398
66	86
75	139
76	125
77	1204
78	265
79	493
80	8
81	33
89	219
90	210
91	898
92	136
93	178
97	27
99	8
101	7
102	144
103	373
104	212
105	440
106	102
109	3
115	431
116	235
117	878
118	673
119	247
120	165
121	112
123	9
127	40
128	206
129	109
130	721
131	571
132	876
133	231
134	130
142	72
143	173
144	402
145	233
146	1346
147	479
148	558
149	188
156	27
158	313
159	254
160	3788
161	911
162	878
163	132
164	86
170	24
172	278
173	124
174	388
175	190
176	201
177	16
178	25
186	166
188	3043
189	464
190	557
191	146
193	15
194	109
195	6
196	75
202	527
203	66
206	205
207	165
208	215
209	46
210	30
220	79
222	77
224	932
225	142
226	363
227	7
234	359
235	40
237	1155
238	818
239	492
240	296
269	876
270	152
271	317
