Mass Spectrum: 1-Naphthalenecarboxaldehyde, 4-methoxy-
Formula: C12 H10 O2
CAS: 15971-29-6
Molecular weight: 186
Origin: Japan AIST/NIMC Database- Spectrum MS-NW-6074
m/z	RELATIVE INTENSITY
14	20
15	179
26	20
27	70
28	259
29	149
30	20
31	10
37	60
38	109
39	339
40	20
41	30
42	60
43	30
44	30
49	40
50	299
51	399
52	90
53	60
54	20
55	50
56	20
57	50
61	109
62	419
63	839
64	229
65	309
66	40
67	10
71	20
73	40
74	409
75	389
76	209
77	399
78	80
79	119
80	10
84	10
85	70
86	209
87	339
88	509
89	429
90	50
91	50
92	80
93	219
94	20
95	10
97	20
98	119
99	90
100	60
101	159
102	70
103	30
104	40
105	50
106	169
107	40
109	20
110	40
111	40
112	20
113	539
114	1879
115	3519
116	399
117	20
118	10
119	10
120	10
121	50
122	60
123	20
124	20
125	60
126	429
127	1049
128	569
129	249
130	30
131	20
132	30
133	30
134	649
135	419
136	40
137	10
139	10
140	30
141	60
142	669
143	1009
144	119
145	10
146	10
148	10
149	10
151	10
152	10
153	10
154	40
155	199
156	70
157	1539
158	639
159	90
160	10
162	20
163	309
164	40
168	10
169	70
170	229
171	569
172	99
173	10
183	20
184	90
185	8859
186	9999
187	1319
188	129
189	20
