Mass Spectrum: 1,4-Oxathiane
Formula: C4 H8 O S
CAS: 15980-15-1
Molecular weight: 104
m/z	RELATIVE INTENSITY
12	100
13	60
14	280
15	470
16	60
17	90
18	360
19	10
24	40
25	190
26	1311
27	2192
28	4254
29	1121
30	190
31	270
32	360
33	190
34	380
35	210
36	50
37	10
38	70
39	140
40	30
41	490
42	230
43	270
44	390
45	2212
46	9999
47	1141
48	711
49	60
50	10
57	180
58	510
59	881
60	871
61	3313
62	130
63	140
64	30
71	50
73	110
74	1251
75	120
76	1191
77	30
78	80
85	50
86	70
103	20
104	3183
105	170
106	150
