Mass Spectrum: 2-Methyl-3-propylpyrazine
Formula: C8 H12 N2
CAS: 15986-80-8
Molecular weight: 136
Origin: NIST Mass Spectrometry Data Center
m/z	RELATIVE INTENSITY
14	30
15	330
18	10
26	871
27	1531
28	671
29	500
30	20
37	130
38	400
39	1872
40	1131
41	1441
42	1531
43	130
50	240
51	500
52	781
53	731
54	260
55	50
56	10
59	20
60	20
61	10
62	40
63	100
64	150
65	220
66	550
67	1782
68	250
69	30
70	60
75	20
76	20
77	80
78	90
79	120
80	450
81	210
82	260
83	20
91	10
93	721
94	280
95	80
96	10
104	10
105	30
107	1481
108	9999
109	751
110	20
118	20
119	130
121	2192
122	160
133	30
135	450
136	611
137	70
