Mass Spectrum: 2-Methyl-3-isopropylpyrazine
Formula: C8 H12 N2
CAS: 15986-81-9
Molecular weight: 136
Origin: W.Jennings, T.Shibamoto
m/z	RELATIVE INTENSITY
26	280
39	70
40	480
41	791
42	1321
43	480
53	2392
54	1111
66	480
67	3924
68	931
79	70
80	2192
81	280
82	70
86	931
92	70
93	3533
94	3193
95	1121
106	480
107	1191
108	9999
109	2092
117	70
119	390
120	190
121	9128
122	1922
135	3793
136	5595
137	1111
