Mass Spectrum: Aspartic acid, 3TMS derivative
Formula: C13 H31 N O4 Si3
CAS: 15985-05-4
Molecular weight: 349
Origin: A.Pleshkova, Nesmeyanov Inst.Org.Elem.Cpds, Moscow
m/z	RELATIVE INTENSITY
73	6276
74	540
75	1101
76	100
77	40
100	1411
101	120
102	20
147	1471
148	230
149	120
150	20
202	931
203	190
204	40
218	1892
219	370
220	170
221	20
232	9999
233	2102
234	891
235	120
236	20
245	100
246	20
262	80
263	20
292	120
293	40
306	190
307	40
308	20
334	290
335	80
336	40
349	80
350	20
