Mass Spectrum: 9,12-Octadecadienal, dimethyl acetal
Formula: C20 H38 O2
CAS: 1599-51-5
Molecular weight: 310
Origin: R.T.HOLMAN,UNIVERSITY OF MINNESOTA
m/z	RELATIVE INTENSITY
21	100
26	170
27	1200
28	800
29	2700
30	200
31	1400
32	120
36	270
37	30
38	110
39	1400
40	260
41	7600
42	690
43	3300
44	560
45	1600
46	40
47	560
50	60
51	180
52	110
53	1200
54	2100
55	5400
56	910
57	2200
58	560
59	320
60	170
61	60
62	20
63	70
64	30
65	510
66	660
67	6900
68	1950
69	2900
70	640
71	9999
72	630
73	370
74	120
75	9999
76	370
77	1000
78	690
79	4700
80	3700
81	5200
82	2000
83	1600
84	1400
85	1100
86	130
87	130
88	60
89	50
90	20
91	2500
92	670
93	3200
94	1800
95	3900
96	1500
97	2400
98	640
99	340
100	70
101	200
102	40
103	70
104	150
105	900
106	330
107	1600
108	1000
109	1800
110	920
111	840
112	370
113	300
114	90
115	220
116	70
117	160
118	70
119	730
120	300
121	1700
122	1150
123	1000
124	460
125	620
126	260
127	170
128	170
129	210
130	70
131	150
132	70
133	660
134	320
135	1400
136	710
137	630
138	270
139	230
140	100
141	1500
142	250
143	110
144	20
145	900
146	50
147	510
148	270
149	760
150	500
151	480
152	200
153	200
154	160
155	550
156	170
157	100
158	30
159	90
160	40
161	370
162	160
163	420
164	250
165	270
166	120
167	200
168	110
169	300
170	80
171	80
172	20
173	70
174	40
175	310
176	210
177	240
178	120
179	130
180	70
181	100
182	90
183	150
184	70
185	130
186	300
187	50
188	20
189	180
190	60
191	170
192	60
193	90
194	40
195	40
196	20
197	100
198	40
199	50
200	20
201	40
202	20
203	90
204	20
205	110
206	20
207	170
208	90
209	70
210	300
211	100
212	40
213	40
214	10
215	50
246	120
247	200
278	2200
279	880
