Mass Spectrum: trans-1-Phenyl-1-pentene
Formula: C11 H14
CAS: 16002-93-0
Molecular weight: 146
Origin: NIST Mass Spectrometry Data Center, 1990.
m/z	RELATIVE INTENSITY
26	104
27	558
28	369
29	272
32	73
38	110
39	946
40	113
41	269
50	372
51	894
52	189
53	133
58	78
62	207
63	659
64	216
65	813
66	66
67	106
68	256
74	169
75	210
76	260
77	793
78	624
79	84
86	69
87	89
89	524
91	3034
92	273
102	354
103	530
104	3336
105	379
113	56
115	5107
116	1408
117	9999
118	1016
127	181
128	440
129	343
130	109
131	289
146	3318
147	440
