Mass Spectrum: Tetramethyl methylenediphosphonate
Formula: C5 H14 O6 P2
CAS: 16001-93-7
Molecular weight: 232
Origin: P. Vainiotalo, Dep. Chem., Joensuu Univ., Joensuu, Finland
m/z	RELATIVE INTENSITY
14	50
15	870
16	10
27	40
29	240
30	60
31	180
33	50
40	20
44	10
45	400
46	40
47	740
48	70
49	60
61	90
62	430
63	480
64	30
65	50
76	20
77	320
78	60
79	840
80	40
92	110
93	1750
94	3010
95	190
96	20
107	730
108	50
109	450
110	30
111	20
123	10
124	9999
125	750
126	130
127	40
140	260
141	30
142	40
155	60
157	50
169	230
170	50
171	400
172	60
187	470
188	20
200	40
201	1470
202	950
203	60
232	2330
233	210
234	40
