Mass Spectrum: 1,4-Heptadiene, 3-methyl-
Formula: C8 H14
CAS: 1603-01-6
Molecular weight: 110
Origin: M. IWAMOTO TOYO RAYON CO., SONOYANA, OTSU, SHIGA-KEN, JAPAN
m/z	RELATIVE INTENSITY
15	561
26	561
27	4887
28	955
29	2528
37	224
38	543
39	5524
40	1029
41	5842
42	655
43	468
50	749
51	1385
52	711
53	4213
54	898
55	6161
56	655
63	468
65	1104
66	1086
67	7303
68	6591
69	786
77	1685
78	524
79	2659
80	749
81	9999
82	1123
91	561
93	711
95	6217
96	561
110	2996
111	299
