Mass Spectrum: Bolasterone
Formula: C21 H32 O2
CAS: 1605-89-6
Molecular weight: 316
Origin: Drug Lab
m/z	RELATIVE INTENSITY
37	30
38	50
39	1561
40	410
41	5285
42	450
43	9999
44	340
45	380
50	100
51	540
52	360
53	2833
54	410
55	7287
56	380
57	1782
58	1011
59	380
60	30
62	20
63	160
64	80
65	1892
66	751
67	5145
68	931
69	1862
70	170
71	3914
72	781
73	110
74	80
75	50
76	120
77	5575
78	1241
79	7917
80	1171
81	4894
82	651
83	1131
84	140
85	631
86	80
87	70
88	40
89	180
90	100
91	9569
92	1551
93	7287
94	1571
95	4604
96	561
97	1561
98	180
99	250
100	90
101	80
102	130
103	931
104	440
105	7567
106	1541
107	6296
108	2322
109	2712
110	661
111	671
112	60
113	120
114	50
115	1651
116	691
117	2202
118	811
119	5315
120	2012
121	4754
122	3833
123	5095
124	6236
125	911
126	100
127	390
128	1401
129	1431
130	621
131	2652
132	931
133	4984
134	2192
135	5055
136	1131
137	841
138	150
139	80
140	40
141	741
142	681
143	1171
144	571
145	3293
146	1291
147	3994
148	2052
149	2752
150	1071
151	1932
152	561
153	370
154	170
155	661
156	400
157	1511
158	591
159	3153
160	1171
161	2492
162	1241
163	1942
164	420
165	561
166	130
167	210
168	130
169	550
170	400
171	1191
172	1241
173	2202
174	1952
175	6266
176	2192
177	1361
178	300
179	150
180	60
181	140
182	80
183	510
184	270
185	991
186	480
187	1191
188	811
189	931
190	400
191	520
192	330
193	1311
194	240
195	160
196	70
197	290
198	601
199	1071
200	591
201	1692
202	540
203	1611
204	420
205	80
206	20
207	120
208	40
209	230
210	110
211	320
212	180
213	991
214	460
215	561
216	1211
217	450
218	100
221	10
223	160
224	90
225	520
226	170
227	1321
228	360
229	320
230	160
231	1201
232	200
237	100
238	110
239	380
240	300
241	1251
242	801
243	1171
244	270
245	460
246	370
247	50
251	50
252	50
253	50
254	721
255	671
256	731
257	170
258	300
259	881
260	190
261	30
265	460
266	120
267	50
269	90
270	130
271	30
272	30
273	40
274	370
275	60
279	20
280	410
281	160
282	20
283	4894
284	1151
285	150
288	30
296	40
297	50
298	8778
299	1982
300	270
301	1631
302	340
303	40
314	30
316	3373
317	781
318	70
