Mass Spectrum: Diethylphenylphosphine
Formula: C10 H15 P
CAS: 1605-53-4
Molecular weight: 166
Origin: Japan AIST/NIMC Database- Spectrum MS-NW-5730
m/z	RELATIVE INTENSITY
15	20
26	90
27	589
28	60
29	419
30	10
31	10
32	10
37	10
38	40
39	469
40	30
41	179
42	10
43	10
44	30
45	189
46	10
47	239
48	10
49	20
50	239
51	689
52	129
53	60
55	40
56	189
57	899
58	199
59	269
60	509
61	149
62	40
63	159
64	40
65	969
66	80
67	10
68	70
69	189
70	40
71	40
73	20
74	80
75	60
76	60
77	599
78	969
79	429
80	159
81	299
82	129
83	1129
84	70
85	10
87	20
88	10
89	50
90	20
91	1289
92	119
93	20
94	20
95	99
96	40
97	20
100	10
102	30
103	99
104	90
105	379
106	50
107	1089
108	1739
109	9999
110	3659
111	229
112	10
114	10
115	30
116	10
117	30
118	10
119	10
120	40
121	329
122	40
123	1689
124	169
125	239
126	40
128	10
129	10
131	10
133	169
134	30
135	70
136	30
137	679
138	6009
139	569
140	20
141	20
142	40
143	20
144	10
145	10
146	20
147	10
148	10
149	10
151	509
152	70
165	279
166	8709
167	989
168	60
