Mass Spectrum: 1-Aminopyrene
Formula: C16 H11 N
CAS: 1606-67-3
Molecular weight: 217
Origin: Chuck Anderson, Aldrich Chemical Co.
m/z	RELATIVE INTENSITY
28	73
39	45
50	24
51	29
62	72
63	141
68	70
72	110
73	12
74	124
75	88
76	25
80	7
81	297
82	292
86	107
87	166
88	45
89	6
94	1557
95	2936
96	12
98	89
99	101
100	132
107	36
108	424
109	2241
110	80
111	86
112	5
113	27
122	38
123	18
134	6
135	27
137	57
138	6
139	27
150	55
161	123
162	117
163	344
164	163
165	307
166	20
174	37
185	81
186	171
187	902
188	813
189	3848
190	853
191	108
198	58
199	66
200	203
201	69
202	36
212	89
213	57
214	525
215	260
216	1864
217	9999
218	1765
219	151
