Mass Spectrum: 1-Penten-3-one, 4-methyl-
Formula: C6 H10 O
CAS: 1606-47-9
Molecular weight: 98
Origin: SHELL RESEARCH LIMITED THORNTON RESEARCH CENTRE
m/z	RELATIVE INTENSITY
26	437
27	2704
28	561
29	314
38	269
39	740
40	258
41	1548
42	448
43	1885
53	202
55	9999
56	886
57	269
69	381
70	1077
71	280
83	190
98	987
99	179
