Mass Spectrum: Cyclopentylcyclohexane
Formula: C11 H20
CAS: 1606-08-2
Molecular weight: 152
Origin: NIST Mass Spectrometry Data Center, 1990.
m/z	RELATIVE INTENSITY
14	46
26	108
27	1034
28	915
29	908
32	149
39	3003
40	778
41	6241
42	1074
43	365
44	57
50	142
51	474
52	303
53	1834
54	2011
55	6899
56	406
57	64
63	131
65	948
67	9891
68	6536
69	2193
70	152
77	896
78	230
79	1480
80	599
81	3740
82	9999
83	6292
84	363
85	46
91	380
92	46
93	295
94	46
95	1614
96	3257
97	715
98	47
107	70
109	1201
110	643
111	62
123	220
124	460
152	2111
153	236
