Mass Spectrum: 4-Quinolinol, 4-ethynyldecahydro-1,2-dimethyl-, (2.alpha.,4.alpha.,4a.beta.,8a.alpha.)-
Formula: C13 H21 N O
CAS: 16067-45-1
Molecular weight: 207
m/z	RELATIVE INTENSITY
51	530
52	270
53	1601
54	671
55	1271
56	1531
57	871
58	3803
59	130
63	130
65	470
66	200
67	871
68	731
69	330
70	731
71	330
72	330
77	731
78	200
79	801
80	470
81	1131
82	1001
83	330
84	530
85	70
91	470
92	70
93	70
94	330
95	200
96	1001
98	130
103	70
104	70
105	270
106	130
107	270
108	400
109	270
110	530
111	130
112	200
114	130
115	200
116	130
117	130
118	130
119	130
120	130
121	130
122	330
123	130
124	330
125	70
126	200
130	70
131	130
132	130
133	70
134	601
135	200
136	270
137	200
138	1071
139	200
140	130
144	130
146	130
147	70
148	130
149	70
150	470
151	70
152	130
158	130
159	130
160	130
161	200
162	200
163	400
164	9999
165	1331
166	601
167	130
168	130
174	601
175	130
176	200
178	200
181	130
182	200
188	270
189	330
190	2272
191	1001
192	9479
193	1401
194	130
206	601
207	2602
208	330
209	130
