Mass Spectrum: Dicyclohexano-18-crown-6
Formula: C20 H36 O6
CAS: 16069-36-6
Molecular weight: 372
Origin: Japan AIST/NIMC Database- Spectrum MS-NW-6514
m/z	RELATIVE INTENSITY
14	10
15	359
16	10
17	10
18	30
26	60
27	839
28	789
29	899
30	80
31	859
32	10
33	10
39	399
40	99
41	3069
42	839
43	2019
44	1409
45	9999
46	229
47	30
51	30
52	20
53	459
54	579
55	1889
56	209
57	1239
58	569
59	809
60	70
61	80
62	30
63	70
64	129
65	60
66	80
67	1159
68	279
69	1129
70	829
71	539
72	1699
73	2849
74	119
75	229
76	20
77	109
78	149
79	709
80	579
81	5989
82	1999
83	1519
84	249
85	169
86	339
87	1579
88	1089
89	3599
90	199
91	129
92	30
93	80
94	99
95	229
96	419
97	1349
98	2059
99	4119
100	379
101	479
102	90
103	149
104	50
105	169
106	60
107	709
108	109
109	109
110	60
111	119
112	289
113	339
114	249
115	199
116	90
117	159
118	20
119	139
120	40
121	40
122	30
123	80
124	259
125	229
126	639
127	759
128	119
129	179
130	30
131	99
132	30
133	169
134	50
135	50
136	10
137	40
138	20
139	60
140	539
141	1279
142	949
143	2389
144	239
145	80
146	10
147	10
148	10
149	30
150	20
151	80
152	10
153	50
154	60
155	429
156	179
157	149
158	229
159	109
160	60
161	40
162	10
163	10
166	20
167	20
168	219
169	219
170	299
171	279
172	70
173	50
175	10
177	20
178	10
179	10
182	10
183	30
184	99
185	679
186	429
187	1079
188	119
189	60
195	10
199	40
200	20
201	40
202	40
203	99
204	10
205	40
212	30
213	50
214	40
215	60
216	10
217	30
218	10
225	10
228	10
229	70
230	40
231	139
232	20
233	30
245	10
247	20
249	20
266	50
267	20
268	20
269	10
273	10
274	10
275	20
277	20
282	10
283	20
284	10
285	20
310	30
311	10
354	10
372	50
373	30
