Mass Spectrum: Propane, 1,2-bis(difluoroamino)-2-methyl-
Formula: C4 H8 F4 N2
CAS: 16063-24-4
Molecular weight: 160
Origin: A.Pleshkova, Nesmeyanov Inst.Org.Elem.Cpds, Moscow
m/z	RELATIVE INTENSITY
15	6516
16	80
27	4094
28	5005
29	2893
30	70
33	1932
34	20
39	3413
40	120
41	9999
42	2042
43	70
47	2362
48	30
55	4224
56	7717
57	350
58	10
61	6146
62	160
160	160
161	10
