Mass Spectrum: Carbamic acid, dimethyl-, 3-(dimethylamino)phenyl ester
Formula: C11 H16 N2 O2
CAS: 16088-19-0
Molecular weight: 208
Origin: Tox21 Consortium/NIST Mass Spectrometry Data Center, 2012
m/z	RELATIVE INTENSITY
15	80
18	50
27	20
28	80
29	10
30	10
37	10
38	40
39	140
40	30
41	70
42	510
43	100
44	90
45	10
50	60
51	100
52	110
53	50
54	20
55	30
56	180
57	10
58	30
59	20
61	10
62	30
63	220
64	150
65	420
66	230
67	160
68	40
69	10
72	9999
73	380
74	40
75	20
76	40
77	200
78	130
79	120
80	40
81	20
82	20
88	10
89	10
90	30
91	80
92	280
93	160
94	50
95	10
103	40
104	190
105	100
106	70
107	120
108	691
109	80
110	10
117	10
118	60
119	40
120	170
121	60
122	50
123	10
134	50
135	190
136	270
137	120
138	20
147	10
148	10
149	10
150	350
151	100
152	10
154	10
161	10
162	10
163	30
164	60
165	10
191	10
205	10
207	130
208	3233
209	410
210	40
