Mass Spectrum: Oxirane, methyl-, (S)-
Formula: C3 H6 O
CAS: 16088-62-3
Molecular weight: 58
Origin: NIST Mass Spectrometry Data Center
m/z	RELATIVE INTENSITY
12	10
13	40
14	200
15	571
16	10
19	10
20	10
24	30
25	220
26	2923
27	4734
28	7357
29	5825
30	871
31	2732
32	80
36	60
37	370
38	540
39	1111
40	130
41	300
42	791
43	7407
44	180
45	20
52	20
53	90
54	10
55	210
56	20
57	971
58	9999
59	340
60	20
