Mass Spectrum: 1H-Indole, 4-methyl-
Formula: C9 H9 N
CAS: 16096-32-5
Molecular weight: 131
Origin: Japan AIST/NIMC Database- Spectrum MS-IW-1272
m/z	RELATIVE INTENSITY
26	10
27	50
28	60
37	20
38	50
39	149
40	10
41	20
49	10
50	169
51	449
52	269
53	60
54	10
61	30
62	109
63	229
64	489
65	559
66	50
73	10
74	109
75	159
76	189
77	1159
78	219
79	40
80	10
85	10
86	20
87	40
88	40
89	90
90	20
91	20
98	20
99	10
100	10
101	139
102	459
103	1049
104	219
105	20
106	10
114	10
115	20
116	20
127	10
128	319
129	169
130	9999
131	8179
132	789
133	30
