Mass Spectrum: Propane, 2-isocyanato-2-methyl-
Formula: C5 H9 N O
CAS: 1609-86-5
Molecular weight: 99
Origin: Japan AIST/NIMC Database- Spectrum MS-NW-2970
m/z	RELATIVE INTENSITY
13	10
14	60
15	799
25	10
26	149
27	579
28	699
29	1009
30	70
37	50
38	90
39	599
40	289
41	1709
42	289
43	109
44	20
49	10
50	30
51	50
52	60
53	60
54	109
55	209
56	2639
57	749
58	30
68	70
70	30
82	10
83	50
84	9999
85	499
86	30
99	20
