Mass Spectrum: m-Aminobenzanilide
Formula: C13 H12 N2 O
CAS: 16091-26-2
Molecular weight: 212
Origin: NIST Mass Spectrometry Data Center, 1990.
m/z	RELATIVE INTENSITY
17	21
18	19
27	83
28	159
37	40
38	243
39	1183
40	112
41	259
42	93
44	33
46	25
50	119
51	270
52	231
53	58
54	52
61	27
62	124
63	433
64	643
65	3070
66	418
67	42
74	50
75	38
76	70
77	150
78	45
83	83
84	37
85	17
89	38
90	101
91	571
92	5486
93	466
94	34
97	239
106	113
118	228
120	9999
121	804
122	53
128	25
166	133
167	80
168	29
181	37
182	61
183	28
192	28
193	143
194	36
212	3871
213	671
214	59
