Mass Spectrum: Octanedioic acid, dibutyl ester
Formula: C16 H30 O4
CAS: 16090-77-0
Molecular weight: 286
Origin: A DUFFIELD DEPT GENETICS STANFORD MED CENTER STANFORD CA 9430
m/z	RELATIVE INTENSITY
41	2322
42	504
43	807
44	605
45	201
55	2524
56	2726
57	1817
60	807
61	201
67	302
68	706
69	1413
70	504
71	201
73	908
81	302
82	302
83	1817
84	504
85	201
87	504
95	201
97	1413
98	201
100	201
101	504
109	201
110	706
111	2726
112	302
113	201
114	201
115	4544
116	403
128	201
129	1110
130	403
137	302
138	3534
139	2827
140	403
141	201
156	302
157	9999
158	908
171	1514
172	201
184	201
186	605
213	8584
214	1009
215	201
