Mass Spectrum: Hexane, 1,6-dicyclohexyl-
Formula: C18 H34
CAS: 1610-23-7
Molecular weight: 250
m/z	RELATIVE INTENSITY
36	10
37	10
38	20
39	771
40	160
41	4394
42	500
43	811
44	30
45	10
46	10
49	10
50	10
51	40
52	40
53	410
54	771
55	6116
56	460
57	220
58	10
59	10
60	10
61	10
62	10
63	10
64	10
65	70
66	80
67	1732
68	380
69	1061
70	110
71	60
72	10
73	10
74	10
75	10
76	10
77	70
78	20
79	140
80	70
81	691
82	7367
83	9999
84	701
85	50
86	10
91	30
92	10
93	30
94	20
95	240
96	1131
97	721
98	60
99	10
100	10
101	10
102	10
103	10
104	10
105	10
106	10
107	10
108	20
109	290
110	90
111	100
112	10
113	10
114	10
115	10
116	10
117	10
118	10
119	10
120	10
121	10
122	10
123	40
124	60
125	30
126	10
127	10
128	10
135	10
136	10
137	30
138	50
139	50
140	10
141	10
150	10
151	10
152	10
153	10
154	10
155	10
164	10
165	10
166	150
167	110
168	20
169	10
177	10
178	10
179	10
180	10
181	10
191	10
192	10
193	10
194	10
206	10
207	10
208	10
220	10
221	10
222	10
248	10
249	10
250	550
251	110
252	10
253	10
