Mass Spectrum: 3,6-Dodecadienoic acid, methyl ester
Formula: C13 H22 O2
CAS: 16106-01-7
Molecular weight: 210
Origin: R.T.HOLMAN,UNIVERSITY OF MINNESOTA
m/z	RELATIVE INTENSITY
38	100
39	2100
40	400
41	5700
42	700
43	2100
44	600
45	400
50	100
51	400
52	300
53	1400
54	1800
55	5100
56	600
57	900
58	100
59	2700
60	100
63	100
64	100
65	800
66	1000
67	6100
68	1500
69	1600
70	300
71	900
72	200
73	100
74	1300
75	200
77	2300
78	1100
79	9999
80	7600
81	5500
82	1600
83	1000
84	2700
85	700
86	100
87	500
88	100
91	1800
92	400
93	5000
94	2100
95	2400
96	2000
97	1300
98	1700
99	200
100	700
101	200
103	100
104	100
105	400
106	200
107	1200
108	600
109	1100
110	500
111	800
112	200
113	700
114	500
115	200
117	100
119	200
120	100
121	2200
122	600
123	500
124	200
125	200
126	800
127	200
128	100
129	100
131	100
133	100
134	200
135	700
136	4900
137	800
138	400
139	200
140	1800
141	400
142	100
143	100
149	500
150	1600
151	400
152	100
153	200
154	200
155	100
161	300
162	100
163	100
167	100
168	100
169	100
178	1100
179	700
180	200
181	100
207	100
210	2204
211	300
212	100
