Mass Spectrum: 1-Hexene, 4,5-dimethyl-
Formula: C8 H16
CAS: 16106-59-5
Molecular weight: 112
Origin: NIST Mass Spectrometry Data Center, 1990.
m/z	RELATIVE INTENSITY
15	186
27	1771
28	598
29	1003
39	4066
40	828
41	6770
42	1253
43	9999
44	419
50	242
51	510
52	244
53	1390
54	648
55	4100
56	492
57	240
63	175
65	350
66	156
67	1005
68	343
69	2131
70	4851
71	8252
72	388
77	237
79	207
83	300
84	510
97	194
