Mass Spectrum: Triphenylene, 1,2,3,4,5,6,7,8,9,10,11,12-dodecahydro-
Formula: C18 H24
CAS: 1610-39-5
Molecular weight: 240
Origin: Japan AIST/NIMC Database- Spectrum MS-NW-3282
m/z	RELATIVE INTENSITY
15	20
27	179
28	50
29	279
39	259
40	30
41	399
42	40
43	50
47	10
48	10
50	30
51	169
52	50
53	139
54	10
55	249
56	10
57	30
62	20
63	139
64	70
65	169
66	20
67	119
69	40
70	30
71	60
74	20
75	60
76	229
77	359
78	99
79	119
80	10
81	50
82	149
83	229
84	119
85	70
86	10
87	30
88	80
89	359
90	159
91	459
92	60
93	30
94	80
95	60
96	90
97	70
98	99
99	209
100	20
101	90
102	70
103	80
104	40
105	99
106	109
107	10
108	10
113	30
114	10
115	519
116	129
117	119
118	20
119	30
120	149
126	30
127	169
128	589
129	519
130	109
131	109
132	20
133	10
138	10
139	109
140	40
141	1039
142	419
143	419
144	119
145	80
146	20
150	20
151	90
152	429
153	619
154	419
155	899
156	359
157	389
158	119
159	30
162	10
163	50
164	60
165	679
166	349
167	679
168	379
169	949
170	369
171	279
172	70
173	20
174	10
175	10
176	50
177	50
178	249
179	239
180	149
181	389
182	379
183	1999
184	889
185	629
186	109
187	30
188	20
189	70
190	40
191	70
192	40
193	70
194	50
195	209
196	129
197	1629
198	2699
199	2299
200	369
201	40
202	30
203	30
204	10
205	10
206	10
207	30
208	20
209	90
210	70
211	1669
212	2389
213	429
214	40
215	10
217	10
218	10
221	10
222	10
223	60
224	70
225	399
226	90
227	20
230	10
232	10
233	10
234	10
235	10
236	30
237	30
238	70
239	569
240	9999
241	1939
242	189
243	10
