Mass Spectrum: Carbetamide
Formula: C12 H16 N2 O3
CAS: 16118-49-3
Molecular weight: 236
Origin: NIST Mass Spectrometry Data Center, 1998.
m/z	RELATIVE INTENSITY
14	10
15	60
16	10
18	80
19	10
25	10
26	110
27	540
28	500
29	1240
30	530
31	30
36	10
37	220
38	420
39	630
40	150
41	250
42	230
43	440
44	2620
45	2130
46	460
47	20
48	10
49	60
50	360
51	610
52	280
53	40
54	100
55	430
56	240
57	110
58	820
59	160
61	130
62	220
63	730
64	1570
65	1000
66	260
67	30
68	10
70	20
71	50
72	2730
73	1380
74	1310
75	120
76	100
77	960
78	80
79	10
80	10
82	10
84	30
85	10
86	10
87	30
88	40
89	20
90	150
91	2540
92	910
93	2000
94	150
98	30
99	20
100	230
101	20
102	240
103	20
104	60
105	70
106	230
107	20
116	10
117	180
119	9999
120	2340
121	340
122	30
132	50
133	10
136	10
137	60
138	10
144	20
146	10
147	40
148	10
150	90
151	10
162	10
164	30
165	170
166	10
191	20
192	40
236	450
237	60
238	10
