Mass Spectrum: Ethanamine, N-butylidene-
Formula: C6 H13 N
CAS: 1611-12-7
Molecular weight: 99
Origin: CARL DJERASSI DEPT OF CHEM STANFORD UNIV STANFORD CALIF 94305
m/z	RELATIVE INTENSITY
40	1600
41	3900
42	4900
43	2300
44	800
51	200
52	100
53	200
54	800
55	1100
56	9999
57	500
58	200
69	300
70	1100
71	7600
72	400
84	2600
85	200
97	400
98	200
99	500
