Mass Spectrum: 2H-Thiopyran, tetrahydro-
Formula: C5 H10 S
CAS: 1613-51-0
Molecular weight: 102
Origin: Japan AIST/NIMC Database- Spectrum MS-NW-4932
m/z	RELATIVE INTENSITY
14	20
15	199
17	20
18	90
25	20
26	349
27	2279
28	569
29	1499
30	30
31	10
32	40
33	50
34	119
35	359
36	50
37	109
38	219
39	2469
40	649
41	5139
42	569
43	149
44	199
45	2849
46	3749
47	2219
48	269
49	139
50	179
51	129
52	50
53	1299
54	1269
55	4039
56	1499
57	129
58	469
59	1759
60	4239
61	6069
62	369
63	279
64	10
65	169
66	149
67	4679
68	7769
69	1739
70	99
71	199
72	99
73	959
74	1939
75	129
76	99
84	20
85	169
86	40
87	8699
88	479
89	439
90	20
97	40
98	10
99	80
100	10
101	829
102	9999
103	689
104	519
105	30
106	10
