Mass Spectrum: 2-Ethylthiacyclohexane
Formula: C7 H14 S
CAS: 1613-52-1
Molecular weight: 130
Origin: V.A.KOPTYUG, ATLAS OF MASS SPECTRA OF ORGANIC COMPOUNDS
m/z	RELATIVE INTENSITY
39	1470
40	190
41	2350
42	310
43	250
44	150
45	1910
46	460
47	1180
51	150
53	530
54	380
55	1560
56	170
57	100
58	320
59	1620
60	540
61	480
65	160
67	1840
68	380
69	170
71	210
73	140
74	350
75	190
81	440
85	250
87	3750
88	280
89	240
99	200
100	150
101	9999
102	720
103	450
115	320
130	2800
131	280
132	120
