Mass Spectrum: 1H-Indole-2-carboxylic acid, 1-methyl-
Formula: C10 H9 N O2
CAS: 16136-58-6
Molecular weight: 175
Origin: Japan AIST/NIMC Database- Spectrum MS-NW-6694
m/z	RELATIVE INTENSITY
14	80
15	119
16	40
17	10
18	30
26	30
27	109
28	139
29	30
30	10
31	40
37	80
38	159
39	419
40	50
41	60
42	70
43	40
44	419
45	129
46	10
49	50
50	289
51	549
52	169
53	60
54	20
55	20
57	20
58	10
60	20
61	129
62	389
63	709
64	279
65	219
66	60
67	10
68	10
69	10
71	10
73	50
74	189
75	239
76	229
77	809
78	379
79	159
80	30
81	10
84	10
85	40
86	80
87	229
88	269
89	2209
90	389
91	149
92	30
93	10
94	10
95	10
96	10
97	20
98	40
99	30
100	30
101	209
102	439
103	529
104	139
105	80
106	30
107	10
108	10
111	10
112	10
113	10
114	179
115	279
116	429
117	119
118	249
119	40
120	10
123	10
126	10
127	40
128	1029
129	1339
130	2589
131	1269
132	199
133	50
134	10
136	10
137	10
141	10
143	40
144	289
145	50
146	80
147	99
148	20
149	10
150	10
155	10
156	229
157	50
158	889
159	109
160	20
173	40
174	2019
175	9999
176	1219
177	139
178	10
