Mass Spectrum: Thiophene, 2-butyltetrahydro-
Formula: C8 H16 S
CAS: 1613-49-6
Molecular weight: 144
m/z	RELATIVE INTENSITY
26	220
27	1882
28	240
29	1121
30	30
31	10
32	20
33	20
34	30
35	50
36	10
37	40
38	100
39	1231
40	150
41	1571
42	170
43	210
44	20
45	1722
46	230
47	601
48	20
49	30
50	70
51	140
52	60
53	530
54	160
55	611
56	90
57	80
58	280
59	641
60	400
61	220
62	40
63	40
64	10
65	90
66	50
67	400
68	220
69	180
70	30
71	120
72	30
73	160
74	160
75	30
76	10
77	70
78	20
79	60
80	10
81	200
82	60
83	40
84	60
85	320
86	140
87	9999
88	611
89	460
90	20
91	20
92	10
93	10
95	40
96	10
97	581
98	310
99	70
100	40
101	641
102	70
103	30
104	10
105	10
108	10
109	20
110	30
111	210
112	20
113	20
114	10
115	60
116	10
117	10
121	10
123	20
124	10
125	20
129	20
142	10
143	30
144	1301
145	130
146	60
147	10
