Mass Spectrum: Quinoline, 2-ethyl-
Formula: C11 H11 N
CAS: 1613-34-9
Molecular weight: 157
Origin: CARL DJERASSI DEPT OF CHEM STANFORD UNIV STANFORD CALIF 94305
m/z	RELATIVE INTENSITY
50	400
51	600
52	100
62	100
63	400
64	100
65	300
74	100
75	300
76	200
77	800
78	400
89	200
101	500
102	600
103	300
115	300
116	200
127	200
128	1700
129	2300
130	800
140	200
142	200
154	300
155	200
156	9999
157	5800
158	600
