Mass Spectrum: Pregnane-3,20-diol, (3.alpha.,5.beta.,20S)-, 2TMS derivative
Formula: C27 H52 O2 Si2
CAS: 16134-56-8
Molecular weight: 464
Origin: NIST Mass Spectrometry Data Center
m/z	RELATIVE INTENSITY
29	20
39	10
41	70
42	10
43	50
44	10
45	70
47	30
53	20
54	10
55	180
56	10
57	10
58	10
59	60
60	20
61	80
62	10
65	20
66	10
67	190
68	30
69	80
70	10
71	10
72	50
73	1812
74	190
75	1451
76	110
77	110
78	20
79	230
80	40
81	300
82	30
83	60
84	10
85	20
87	30
88	10
89	50
91	230
92	40
93	300
94	160
95	260
96	20
97	20
98	10
99	10
101	90
102	30
103	140
104	20
105	230
106	70
107	270
108	70
109	140
110	20
111	10
113	10
114	10
115	40
116	390
117	9999
118	1101
119	561
120	70
121	160
122	60
123	50
124	10
125	10
127	30
128	10
129	130
130	40
131	90
132	30
133	150
134	40
135	120
136	20
137	10
141	10
142	50
143	110
144	30
145	100
146	30
147	150
148	40
149	90
150	10
151	10
155	50
156	20
157	30
158	10
159	90
160	30
161	110
162	40
163	40
164	10
165	10
167	10
169	10
171	20
172	10
173	60
174	30
175	70
176	20
177	10
181	10
183	10
185	20
186	10
187	50
188	30
189	30
190	10
191	10
197	10
199	20
200	40
201	70
202	20
203	20
213	30
214	20
215	40
216	30
217	30
227	20
228	20
229	30
230	30
231	10
241	40
242	20
243	30
255	50
256	40
257	30
258	40
259	10
269	200
270	40
271	10
283	50
284	190
285	50
286	10
290	20
317	10
318	10
331	10
332	10
345	10
346	110
347	120
348	40
349	10
359	20
360	10
374	20
375	10
449	60
450	20
451	10
