Mass Spectrum: Epitestosterone, TMS derivative
Formula: C22 H36 O2 Si
CAS: 16134-45-5
Molecular weight: 360
Origin: NIST Mass Spectrometry Data Center
m/z	RELATIVE INTENSITY
15	10
26	10
27	120
29	290
30	10
31	30
39	340
40	80
41	1371
42	100
43	761
44	190
45	1191
46	80
47	420
48	20
49	20
50	20
51	110
52	90
53	781
54	130
55	2252
56	110
57	200
58	130
59	841
60	150
61	601
62	40
63	50
65	510
66	200
67	1571
68	270
69	390
70	60
71	110
73	9809
74	931
75	4184
76	320
77	1772
78	380
79	2732
80	370
81	1281
82	140
83	230
84	20
85	250
86	50
87	110
88	20
89	180
91	3573
92	561
93	2102
94	480
95	1211
96	190
97	300
98	30
99	210
101	1611
102	190
103	470
104	260
105	2582
106	561
107	1441
108	390
109	601
110	150
111	410
112	40
113	150
115	1631
116	1441
117	1131
118	370
119	1521
120	530
121	1151
122	821
123	801
124	1641
125	300
126	30
127	130
128	400
129	9999
130	1912
131	1922
132	440
133	1341
134	871
135	661
136	721
137	350
138	280
139	50
141	260
142	230
143	581
144	540
145	1311
146	1291
147	3343
148	1281
149	881
150	150
152	130
153	100
154	70
155	310
156	190
157	581
158	300
159	721
160	400
161	490
162	561
163	200
164	50
165	130
166	50
167	120
168	110
169	430
170	160
171	581
172	250
173	440
174	851
175	400
176	150
177	90
178	40
179	120
180	60
181	390
182	260
183	450
184	280
185	1091
186	380
187	591
188	250
189	220
190	60
191	40
192	10
193	120
194	200
195	530
196	801
197	440
198	250
199	581
200	480
201	340
202	130
203	70
204	10
205	20
206	20
207	80
208	60
209	350
210	200
211	571
212	190
213	851
214	280
215	170
216	50
217	20
219	30
220	30
221	170
222	80
223	250
224	200
225	140
226	2482
227	1211
228	1281
229	931
230	160
231	100
232	20
233	40
234	20
235	80
236	200
237	971
238	220
239	130
240	30
241	200
242	540
243	160
244	120
245	40
246	10
247	40
248	20
249	60
250	20
251	130
252	530
253	280
254	50
255	671
256	130
257	30
258	30
259	10
261	20
262	20
263	10
264	20
265	10
267	10
268	20
269	360
270	2953
271	641
272	70
273	10
275	20
276	240
277	60
278	20
287	10
288	10
289	330
290	80
291	20
301	30
302	10
303	110
304	891
305	240
306	60
307	10
314	10
315	10
316	30
317	661
318	581
319	150
320	40
327	20
328	10
329	10
330	10
331	60
332	30
333	10
342	210
343	100
345	1001
346	280
347	70
348	20
358	10
360	3623
361	1061
362	280
363	50
364	10
