Mass Spectrum: Ethane, 1-chloro-1-fluoro-
Formula: C2 H4 Cl F
CAS: 1615-75-4
Molecular weight: 82
m/z	RELATIVE INTENSITY
2	30
12	110
13	150
14	170
15	210
16	10
19	20
20	10
21	10
24	80
25	350
26	1061
27	3083
28	120
29	10
30	10
31	350
32	110
33	30
35	310
36	130
37	100
38	40
39	10
40	10
41	10
43	20
44	340
45	1101
46	651
47	9999
59	20
60	70
61	210
62	110
63	130
64	30
65	30
66	30
67	941
68	20
69	300
70	10
78	10
79	20
80	20
81	50
82	520
83	30
84	160
85	10
