Mass Spectrum: 2,4-Pentadienenitrile
Formula: C5 H5 N
CAS: 1615-70-9
Molecular weight: 79
m/z	RELATIVE INTENSITY
24	30
25	120
26	1151
27	1261
28	681
29	20
31	20
32	20
33	10
34	110
36	90
37	460
38	651
39	1692
40	90
41	30
42	10
43	20
48	90
49	370
50	1261
51	1892
52	9999
53	1561
54	80
55	10
56	10
57	10
58	10
60	20
61	50
62	60
63	100
64	280
65	20
73	10
74	80
75	370
76	310
77	160
78	1021
79	4274
80	250
