Mass Spectrum: Hydrazine, 1,2-dipropyl-
Formula: C6 H16 N2
CAS: 1615-83-4
Molecular weight: 116
Origin: ATLAS OF MASS SPECTRA OF ORGANIC COMPOUNDS, V. A. KOPTYUG, ED.
m/z	RELATIVE INTENSITY
26	110
27	1270
28	1440
29	820
30	340
31	1360
32	1250
39	370
41	1820
42	350
43	2810
44	440
45	3970
46	70
54	140
56	720
57	520
58	1070
59	190
73	1180
74	70
85	140
87	9999
88	560
116	4630
117	580
