Mass Spectrum: p-Chlorocinnamic acid
Formula: C9 H7 Cl O2
CAS: 1615-02-7
Molecular weight: 182
Origin: Japan AIST/NIMC Database- Spectrum MS-NW-5985
m/z	RELATIVE INTENSITY
26	60
27	119
28	30
29	40
35	10
36	50
37	119
38	169
39	249
40	20
41	20
42	20
43	40
44	40
45	289
46	10
47	10
48	10
49	159
50	1079
51	1829
52	169
53	70
54	40
55	50
59	119
60	40
61	159
62	249
63	429
64	60
65	199
66	10
67	10
68	169
69	199
70	40
71	70
72	30
73	619
74	709
75	1799
76	529
77	509
78	60
79	20
82	219
83	70
84	60
85	159
86	80
87	90
88	20
89	189
90	90
91	899
92	80
93	10
96	10
97	60
98	159
99	189
100	139
101	2439
102	2089
103	499
104	40
105	20
108	20
109	20
110	40
111	299
112	179
113	199
114	70
115	40
117	10
118	60
119	569
120	50
121	10
123	10
124	10
125	639
126	80
127	219
128	80
129	30
130	30
131	10
135	30
136	1509
137	2239
138	699
139	859
140	129
141	279
142	40
143	80
146	10
147	1549
148	169
149	20
152	10
153	80
154	389
155	60
156	129
157	10
163	40
164	499
165	2849
166	439
167	939
168	99
180	70
181	4459
182	9999
183	2359
184	3329
185	339
186	40
