Mass Spectrum: 3-Fluoro-5-(trifluoromethyl)benzoic acid
Formula: C8 H4 F4 O2
CAS: 161622-05-5
Molecular weight: 208
Origin: NIST Mass Spectrometry Data Center, 1994
m/z	RELATIVE INTENSITY
14	46
16	16
17	28
18	63
26	33
28	42
29	50
31	503
36	33
37	223
38	191
39	102
44	133
45	1134
47	47
49	166
50	874
51	310
53	100
56	163
57	396
61	315
62	642
63	799
64	56
68	612
69	1137
72	152
73	196
74	837
75	1244
76	69
77	59
79	61
80	106
81	275
82	48
83	161
85	52
86	166
87	73
88	98
92	327
93	771
94	763
95	353
99	288
100	39
101	77
104	46
105	48
111	72
112	290
113	1299
114	686
115	56
117	90
119	52
123	136
125	310
130	60
131	126
132	170
133	41
137	61
139	65
141	68
143	1331
144	625
145	575
159	51
161	142
163	7751
164	565
180	172
187	45
189	1618
191	9999
192	837
193	65
208	6394
209	594
210	59
