Mass Spectrum: 3-Butenoic acid, ethyl ester
Formula: C6 H10 O2
CAS: 1617-18-1
Molecular weight: 114
Origin: D.HENNEBERG, MAX-PLANCK INSTITUTE, MULHEIM, WEST GERMANY
m/z	RELATIVE INTENSITY
24	6
25	62
26	286
27	1880
28	1114
29	9999
30	226
31	166
32	1
33	4
37	125
38	207
39	1831
40	407
41	4758
42	4416
43	338
44	146
45	253
46	14
50	3
51	1
52	3
53	26
54	20
55	1377
56	63
57	66
58	44
59	4
60	58
61	7
66	3
67	8
68	188
69	2101
70	110
71	16
72	22
73	78
85	19
86	82
87	9
99	43
114	221
115	14
