Mass Spectrum: CH3CHClCN
Formula: C3 H4 Cl N
CAS: 1617-17-0
Molecular weight: 89
Origin: NIST Mass Spectrometry Data Center
m/z	RELATIVE INTENSITY
12	250
13	180
14	250
15	821
24	170
25	591
26	3613
27	3353
28	9999
29	190
35	400
36	260
37	410
38	470
39	260
42	160
44	10
47	350
48	120
49	220
50	300
51	1371
52	2482
53	1241
54	8678
55	300
59	10
60	80
61	320
62	1011
63	130
64	290
73	110
74	1331
75	70
76	440
77	10
86	20
87	60
88	861
89	1872
90	340
91	571
92	20
