Mass Spectrum: Phenol, 2-iodo-4-methyl-
Formula: C7 H7 I O
CAS: 16188-57-1
Molecular weight: 234
Origin: Dmitri Zagorevskii, University of Ottawa, Ontario, Canada
m/z	RELATIVE INTENSITY
26	140
27	631
29	140
31	190
37	100
38	280
39	911
43	110
45	70
49	130
50	721
51	1792
52	941
53	661
54	80
55	250
59	70
61	150
62	250
63	490
64	140
65	30
66	90
67	120
73	30
74	100
75	80
76	180
77	3333
78	1451
79	731
80	80
81	80
89	140
105	350
106	671
107	3363
108	330
117	130
127	240
128	80
233	971
234	9999
235	761
