Mass Spectrum: Bicyclo[5.3.0]decane (cis)
Formula: C10 H18
CAS: 16189-46-1
Molecular weight: 138
Origin: R.Herzschuh ET AL. J.Prakt.Chem.,322,450(1980)
m/z	RELATIVE INTENSITY
39	3583
40	621
41	6766
42	641
43	711
51	300
52	210
53	1521
54	3974
55	5125
56	1101
57	210
65	510
66	891
67	9318
68	3633
69	1631
70	250
71	110
72	160
77	550
78	140
79	1101
80	621
81	6766
82	9999
83	1311
84	110
91	230
92	40
93	320
94	320
95	6546
96	8408
97	961
109	1191
110	3463
111	300
123	100
136	20
137	40
138	1862
139	210
140	20
