Mass Spectrum: Ethoxycarbonyl isothiocyanate
Formula: C4 H5 N O2 S
CAS: 16182-04-0
Molecular weight: 131
Origin: NIST Mass Spectrometry Data Center, 1994
m/z	RELATIVE INTENSITY
12	32
13	56
14	167
15	530
16	35
25	69
26	794
27	4362
28	1041
29	8397
30	575
31	35
32	910
33	47
34	55
40	19
41	65
42	163
43	467
44	429
45	363
46	88
47	118
48	22
54	738
55	30
56	13
57	13
58	2968
59	9999
60	713
61	474
62	38
70	39
72	401
73	64
74	23
86	4773
87	402
88	248
89	18
103	45
116	14
