Mass Spectrum: 3-Quinuclidinol
Formula: C7 H13 N O
CAS: 1619-34-7
Molecular weight: 127
Origin: Japan AIST/NIMC Database- Spectrum MS-NW-2156
m/z	RELATIVE INTENSITY
14	20
15	479
17	60
18	259
26	90
27	759
28	389
29	449
30	839
31	139
32	10
37	20
38	50
39	549
40	99
41	1169
42	9999
43	2829
44	939
45	70
46	10
50	40
51	90
52	70
53	249
54	299
55	919
56	809
57	1039
58	2619
59	99
60	40
63	10
65	40
66	30
67	179
68	389
69	599
70	1289
71	439
72	279
73	429
74	20
77	30
78	30
79	70
80	109
81	149
82	1099
83	689
84	469
85	109
86	249
87	10
93	30
94	80
95	20
96	849
97	189
98	1209
99	519
100	40
106	20
107	30
108	109
109	99
110	589
111	60
112	679
113	50
124	20
125	60
126	749
127	3779
128	309
129	20
