Mass Spectrum: 2-Butyl ethylphosphonofluoridate
Formula: C6 H14 F O2 P
CAS: 162085-83-8
Molecular weight: 168
Origin: VERIFIN - Methodology B1-1979
m/z	RELATIVE INTENSITY
27	300
28	60
29	500
39	200
41	800
43	100
45	80
55	200
56	500
57	300
65	50
67	200
84	200
85	300
93	60
95	200
96	60
111	200
112	200
113	9999
114	200
139	4804
140	200
153	600
