Mass Spectrum: Pentyl ethylphosphonofluoridate
Formula: C7 H16 F O2 P
CAS: 162085-84-9
Molecular weight: 182
Origin: VERIFIN - Methodology B1-1979
m/z	RELATIVE INTENSITY
27	200
28	50
29	300
39	100
41	600
42	700
43	300
55	700
67	100
69	50
70	300
84	200
85	200
93	50
95	200
96	100
98	200
111	100
112	200
113	9999
114	200
125	100
126	100
139	200
153	70
181	0
