Mass Spectrum: 1H-Indene, 2,3-dihydro-1,1,4-trimethyl-
Formula: C12 H16
CAS: 16204-72-1
Molecular weight: 160
m/z	RELATIVE INTENSITY
12	10
13	10
14	60
15	651
16	10
26	60
27	540
28	270
29	150
30	10
37	20
38	70
39	681
40	60
41	300
42	10
43	30
44	10
49	10
50	160
51	480
52	110
53	270
54	10
55	30
56	10
57	40
58	60
61	20
62	100
63	350
64	290
65	350
66	20
67	50
68	10
69	40
70	110
71	260
72	60
73	30
74	70
75	100
76	100
77	450
78	140
79	170
80	10
85	10
86	30
87	40
88	20
89	120
90	20
91	410
92	10
93	20
95	10
98	20
99	10
100	10
101	40
102	150
103	160
104	50
105	601
106	10
107	10
110	10
111	10
113	30
114	40
115	991
116	150
117	250
118	20
119	60
120	10
125	20
126	50
127	340
128	1031
129	761
130	701
131	70
132	10
133	60
134	10
138	10
139	60
140	20
141	210
142	70
143	240
144	140
145	9999
147	10
151	10
152	10
153	10
155	10
157	10
158	50
159	80
160	1531
161	10
