Mass Spectrum: Hexyl N,N-dimethylphosphoramidocyanidate
Formula: C9 H19 N2 O2 P
CAS: 162085-90-7
Molecular weight: 218
Origin: VERIFIN - Methodology B1-1979
m/z	RELATIVE INTENSITY
26	200
27	1301
28	200
29	600
39	600
40	200
41	1901
42	2502
43	4303
44	2001
45	2402
47	200
53	200
54	200
55	2101
56	1701
57	500
63	90
67	100
69	1301
70	1901
71	200
76	100
77	90
83	200
84	700
85	1401
86	90
90	100
91	100
92	100
106	300
107	400
108	900
109	200
110	100
117	800
126	90
128	100
133	900
134	600
135	9999
136	400
137	90
192	60
218	80
