Mass Spectrum: s-Butyl N,N-dimethylphosphoramidocyanidate
Formula: C7 H15 N2 O2 P
CAS: 162085-89-4
Molecular weight: 190
Origin: VERIFIN - Methodology B1-1979
m/z	RELATIVE INTENSITY
27	600
28	200
29	600
39	700
40	90
41	1901
42	1901
43	3302
44	1501
45	100
47	400
49	100
50	70
51	100
53	100
54	100
55	200
56	2802
57	400
60	100
70	2402
71	100
74	70
75	70
90	200
91	80
92	100
106	400
107	700
108	1201
109	70
117	2001
118	200
119	100
133	1301
134	1101
135	9999
136	500
161	2001
162	200
175	200
190	100
