Mass Spectrum: Heptyl ethylphosphonofluoridate
Formula: C9 H20 F O2 P
CAS: 162085-85-0
Molecular weight: 210
Origin: VERIFIN - Methodology B1-1979
m/z	RELATIVE INTENSITY
27	100
28	50
29	200
39	200
41	600
42	300
43	200
53	50
54	60
55	500
56	500
57	200
67	100
68	50
69	300
70	400
83	50
84	90
85	80
95	100
96	50
98	80
111	70
112	100
113	9999
114	200
125	60
167	10
