Mass Spectrum: Phenol, 4,4'-[thiobis(methylene)]bis[2,6-bis(1,1-dimethylethyl)-
Formula: C30 H46 O2 S
CAS: 1620-93-5
Molecular weight: 470
Origin: Japan AIST/NIMC Database- Spectrum MS-IW-3468
m/z	RELATIVE INTENSITY
27	30
28	20
29	129
34	10
39	70
40	10
41	349
42	10
43	129
45	40
47	10
50	10
51	50
52	20
53	60
55	189
56	30
57	809
58	40
59	10
63	20
64	30
65	80
66	20
67	80
68	10
69	119
70	20
71	50
72	10
73	10
75	10
76	10
77	109
78	30
79	99
80	159
81	70
82	10
83	50
84	10
85	30
87	10
89	10
91	209
92	30
93	80
94	50
95	60
96	20
97	40
99	10
102	20
103	40
104	20
105	169
106	30
107	80
108	10
109	40
110	10
111	30
113	10
115	109
116	40
117	80
118	20
119	179
120	40
121	199
122	20
123	30
124	10
125	20
127	40
128	129
129	149
130	50
131	109
132	30
133	159
134	99
135	70
136	10
137	10
139	60
141	60
142	50
143	129
144	50
145	189
146	50
147	209
148	40
149	70
150	10
151	20
152	10
153	40
154	20
155	40
156	20
157	50
158	20
159	80
160	40
161	859
162	189
163	619
164	219
165	30
167	10
168	10
169	20
170	20
171	30
172	10
173	60
174	20
175	389
176	169
177	60
178	10
179	30
180	10
185	30
186	10
187	90
188	50
189	249
190	40
192	10
193	20
195	229
196	30
197	10
199	10
201	20
202	10
203	989
204	179
205	229
206	50
207	80
208	10
209	20
217	209
218	519
219	9999
220	2189
221	249
222	20
225	60
226	10
235	199
236	30
237	109
238	10
249	10
250	99
251	709
252	1009
253	199
254	60
255	10
264	40
437	10
455	30
456	10
470	859
471	289
472	90
473	20
