Mass Spectrum: n-Heptyl methylphosphonofluoridate
Formula: C8 H18 F O2 P
CAS: 162085-82-7
Molecular weight: 196
Origin: VERIFIN - Methodology B1-1979
m/z	RELATIVE INTENSITY
27	200
28	100
29	300
39	200
41	900
42	500
43	300
47	50
53	60
54	70
55	900
56	900
57	300
67	80
68	80
69	500
70	700
79	70
81	400
82	100
83	80
98	100
99	9999
100	100
111	60
112	60
153	10
