Mass Spectrum: Isobutyl N,N-dimethylphosphoramidocyanidate
Formula: C7 H15 N2 O2 P
CAS: 162085-88-3
Molecular weight: 190
Origin: VERIFIN - Methodology B1-1979
m/z	RELATIVE INTENSITY
27	800
28	700
29	700
30	100
39	700
40	200
41	2702
42	2302
43	3503
44	1901
45	700
50	50
53	60
55	500
56	2602
57	1701
58	100
68	100
69	200
70	3102
71	200
73	60
76	100
83	50
90	100
91	200
92	400
94	50
106	600
107	700
108	2502
109	200
117	1401
119	200
133	1501
134	1301
135	9999
136	400
137	70
141	50
147	100
161	70
175	100
190	90
