Mass Spectrum: 1H-Pyrrole-2,5-dione, 1-[4-(phenylazo)phenyl]-
Formula: C16 H11 N3 O2
CAS: 16201-96-0
Molecular weight: 277
Origin: RADIAN CORP
m/z	RELATIVE INTENSITY
25	20
26	1000
27	180
29	40
37	130
38	320
39	850
40	110
41	50
42	20
49	30
50	1180
51	4730
52	630
53	810
54	2820
55	150
61	100
62	400
63	1820
64	1190
65	430
66	50
67	10
73	90
74	400
75	580
76	660
77	9999
78	800
79	70
80	120
81	10
82	2230
83	110
87	60
88	230
89	1850
90	1860
91	300
92	40
93	300
94	10
101	130
102	340
103	200
104	70
105	810
106	80
113	20
114	120
115	220
116	3130
117	370
118	410
119	40
126	30
127	60
128	110
129	60
130	20
131	80
139	200
140	180
141	90
142	20
143	50
144	1960
145	220
146	30
147	10
150	20
151	120
152	310
153	140
154	30
164	30
165	180
166	280
167	210
168	50
169	20
172	9090
173	1050
174	90
176	10
177	30
178	120
179	240
180	60
190	10
191	100
192	200
193	90
194	20
195	80
200	2820
201	350
202	70
203	10
204	30
249	30
277	5510
278	1060
279	120
