Mass Spectrum: Propyl N,N-dimethylphosphoramidocyanidate
Formula: C6 H13 N2 O2 P
CAS: 162085-86-1
Molecular weight: 176
Origin: VERIFIN - Methodology B1-1979
m/z	RELATIVE INTENSITY
26	70
27	1101
28	600
29	100
30	200
39	900
40	200
41	1301
42	4804
43	9999
44	5605
45	3202
47	900
49	90
60	80
65	300
69	500
70	9308
71	500
72	70
74	200
76	100
83	100
90	200
91	200
92	300
94	50
103	50
106	1301
107	1601
108	2001
109	70
117	1901
118	90
119	300
133	3302
134	2602
135	4804
136	200
147	300
150	70
176	300
