Mass Spectrum: O-Isopropyl S-2-diethylaminoethyl ethylphosphonothiolate
Formula: C11 H26 N O2 P S
CAS: 162085-93-0
Molecular weight: 267
Origin: VERIFINN
m/z	RELATIVE INTENSITY
27	490
28	530
29	871
30	911
39	80
41	330
42	500
43	450
44	540
47	90
56	691
57	160
58	621
59	90
61	300
65	330
70	450
71	1221
72	410
84	701
86	9999
87	530
93	390
97	50
98	90
99	3994
100	510
104	70
109	50
116	60
118	60
130	70
132	80
135	160
153	210
180	60
208	180
