Mass Spectrum: O-Isopropyl S-2-dimethylaminoethyl ethylphosphonothiolate
Formula: C9 H22 N O2 P S
CAS: 162085-92-9
Molecular weight: 239
Origin: VERIFIN - Methodology B1-1979
m/z	RELATIVE INTENSITY
26	70
27	300
28	70
29	200
30	100
39	100
41	300
42	800
43	700
44	400
45	70
47	60
56	400
57	200
58	9999
59	400
60	50
61	200
65	300
70	300
71	8507
72	900
73	50
93	300
94	400
98	50
102	200
104	100
109	70
127	70
135	100
153	100
168	70
180	500
238	0
