Mass Spectrum: Butyl N,N-dimethylphosphoramidocyanidate
Formula: C7 H15 N2 O2 P
CAS: 162085-87-2
Molecular weight: 190
Origin: VERIFIN - Methodology B1-1979
m/z	RELATIVE INTENSITY
27	800
28	500
29	900
30	70
32	70
39	700
40	80
41	2201
42	2502
43	5104
44	2502
45	2902
46	80
47	400
49	70
51	90
53	100
54	200
55	600
56	2902
57	600
65	200
69	200
70	4203
71	200
73	200
76	100
83	100
90	200
91	100
92	200
96	60
106	600
107	1000
108	1901
109	200
117	1601
118	70
119	200
133	1901
134	1000
135	9999
136	400
147	200
190	200
