Mass Spectrum: O-Isopropyl S-2-diisopropylaminoethyl ethylphosphonothiolate
Formula: C13 H30 N O2 P S
CAS: 162085-95-2
Molecular weight: 295
Origin: VERIFIN - Methodology B1-1979
m/z	RELATIVE INTENSITY
27	100
28	50
29	60
30	300
39	50
41	400
42	200
43	600
44	400
55	50
56	200
58	100
61	200
65	200
70	700
71	50
72	1201
73	50
76	60
84	600
85	400
86	400
93	300
94	50
98	100
99	90
104	50
112	500
113	60
114	9999
115	800
118	70
127	1501
128	400
135	200
144	70
146	70
153	400
194	200
195	90
238	50
252	60
280	100
294	10
