Mass Spectrum: 5-Ethylidene-2-norbornene
Formula: C9 H12
CAS: 16219-75-3
Molecular weight: 120
Origin: NIST Mass Spectrometry Data Center, 1990.
m/z	RELATIVE INTENSITY
15	118
26	201
27	1099
28	496
29	119
37	138
38	455
39	3301
40	769
41	948
50	823
51	1721
52	678
53	879
54	182
55	208
58	200
59	71
61	139
62	409
63	975
64	270
65	2403
66	9999
67	819
74	188
75	116
77	2867
78	4190
79	2775
80	264
89	308
91	8341
92	1998
93	356
102	149
103	1049
105	7224
106	579
115	325
116	73
117	296
118	71
119	529
120	3689
121	377
