Mass Spectrum: 2,5-Dimethylbenzyl cyanide
Formula: C10 H11 N
CAS: 16213-85-7
Molecular weight: 145
Origin: NIST Mass Spectrometry Data Center
m/z	RELATIVE INTENSITY
18	10
26	60
27	520
28	140
37	130
38	370
39	1842
40	300
41	230
46	10
50	861
51	1682
52	631
53	390
54	40
58	510
61	140
62	420
63	991
64	390
65	871
66	120
67	20
71	70
72	180
73	70
75	360
76	440
77	1962
78	741
79	831
80	60
85	40
86	80
87	140
88	100
89	550
90	230
91	1081
92	140
93	20
97	10
98	40
99	30
100	30
101	160
102	601
103	2202
105	4944
106	410
107	20
113	50
115	1461
116	540
117	3043
118	9999
119	1041
120	50
127	70
128	180
130	2522
131	280
140	70
141	30
142	130
143	180
144	821
145	4734
146	550
147	30
