Mass Spectrum: 3,5-Di-tert-butylbenzoic acid
Formula: C15 H22 O2
CAS: 16225-26-6
Molecular weight: 234
Origin: NIST Mass Spectrometry Data Center
m/z	RELATIVE INTENSITY
14	40
15	340
17	20
18	80
27	340
28	20
29	1161
30	30
31	40
39	661
41	2252
42	130
43	240
44	20
45	330
50	50
51	300
52	50
53	200
55	290
57	4044
58	210
62	40
63	210
64	240
65	270
66	50
67	50
69	80
70	70
71	120
72	30
73	10
74	50
75	130
76	80
77	450
78	530
79	400
80	70
81	30
84	80
85	60
86	30
87	320
88	370
89	100
91	1191
92	120
93	90
94	40
97	20
102	450
103	190
104	30
105	340
106	20
107	30
115	621
116	200
117	380
118	50
119	200
120	20
121	20
123	40
126	30
127	130
128	380
129	270
130	90
131	220
132	40
133	80
135	200
139	20
141	80
142	70
143	80
144	60
145	190
146	30
147	50
148	40
149	80
154	70
155	20
157	30
158	30
159	100
161	100
162	50
163	270
164	30
173	40
174	30
175	140
176	40
177	40
189	60
191	941
192	130
193	10
196	20
201	30
203	110
204	40
217	40
219	9999
220	1712
221	150
234	1231
235	180
236	20
