Mass Spectrum: Flunitrazepam
Formula: C16 H12 F N3 O3
CAS: 1622-62-4
Molecular weight: 313
Origin: Sigma Chemical Company
m/z	RELATIVE INTENSITY
41	159
42	884
43	150
44	134
46	64
50	409
51	707
52	292
54	78
56	108
57	353
62	450
63	1055
64	257
65	631
66	376
68	166
69	155
70	79
72	131
74	458
75	906
76	776
77	472
78	391
79	129
81	337
82	175
83	191
84	136
85	284
86	95
87	147
88	292
89	411
90	597
91	432
92	441
94	182
95	409
96	374
97	84
98	145
99	307
100	152
101	148
102	279
103	131
104	138
105	308
106	380
107	569
108	221
109	1011
110	365
111	130
112	211
113	104
114	100
115	124
116	156
117	619
118	300
119	584
120	416
121	297
122	122
123	244
124	86
125	85
126	168
127	72
128	109
129	116
131	279
132	144
133	373
134	347
135	180
136	143
139	103
143	70
144	647
145	273
146	162
148	264
149	238
150	260
151	153
152	123
155	66
156	161
157	375
158	262
162	109
163	296
164	196
165	244
168	251
169	462
170	727
171	244
176	293
177	227
178	122
179	110
180	107
181	471
182	318
183	1561
184	485
185	150
190	416
191	218
192	255
193	131
195	520
196	274
197	197
198	281
199	200
200	72
202	108
203	192
204	199
205	145
206	101
207	187
208	319
209	456
210	751
211	939
212	227
218	138
219	387
220	238
221	195
222	122
223	1120
224	1308
225	341
226	271
227	249
228	75
236	414
237	1495
238	3401
239	2614
240	791
241	115
247	365
248	1945
249	233
251	132
252	98
253	102
254	692
255	332
256	111
257	143
264	70
266	4903
267	946
268	242
269	234
270	411
282	220
283	315
284	2314
285	9678
286	8160
287	1280
288	146
294	3364
295	561
296	285
312	9999
313	8029
314	1229
