Mass Spectrum: 4-Octylaniline
Formula: C14 H23 N
CAS: 16245-79-7
Molecular weight: 205
Origin: Chuck Anderson, Aldrich Chemical Co.
m/z	RELATIVE INTENSITY
26	6
27	146
28	84
29	195
30	36
36	32
38	15
39	112
40	16
41	236
42	38
43	113
51	38
52	39
53	51
54	28
55	46
57	33
63	25
64	9
65	110
66	51
67	27
69	16
77	385
78	170
79	176
80	48
89	35
90	10
91	93
92	99
93	113
94	41
102	5
103	37
104	73
105	30
106	9999
107	771
108	36
115	25
116	5
117	44
118	93
119	178
120	78
121	2
130	27
131	10
132	84
133	20
205	921
206	141
207	3
