Mass Spectrum: 1,3-Bis(2-hydroxyethylthio)propane
Formula: C7 H16 O2 S2
CAS: 16260-48-3
Molecular weight: 196
Origin: VERIFINN
m/z	RELATIVE INTENSITY
27	1772
29	901
31	1471
39	891
41	3023
43	1011
45	6466
46	1221
47	2242
53	260
59	1341
60	1001
61	5725
63	280
72	641
73	3633
74	2813
75	1181
76	230
79	500
85	520
87	2732
88	200
89	561
91	911
93	170
99	100
100	230
101	180
105	651
106	641
107	5015
108	330
109	500
117	110
118	200
119	350
121	771
122	50
123	100
133	1241
134	180
135	130
149	60
151	9999
152	971
153	971
154	80
178	1772
179	100
180	220
196	1041
197	60
198	110
