Mass Spectrum: 1,3,5-Trisilacyclohexane, 1,1,3,3,5,5-hexamethyl-
Formula: C9 H24 Si3
CAS: 1627-99-2
Molecular weight: 216
Origin: Dmitri Zagorevskii, Scientific Instruments & Applications
m/z	RELATIVE INTENSITY
31	215
43	948
44	177
45	1155
46	76
47	35
53	79
55	175
57	96
59	2361
60	156
61	71
67	42
69	196
70	53
71	207
73	2178
74	173
75	67
81	57
83	232
85	907
86	151
87	113
93	1349
94	369
95	90
97	78
98	33
99	385
101	498
102	58
103	96
111	104
113	561
114	87
115	226
117	55
125	90
127	251
128	49
129	335
130	54
131	60
141	193
142	37
143	59
155	34
157	137
159	64
169	36
171	92
172	33
173	351
174	77
175	40
183	38
185	613
186	143
187	114
201	9999
202	2444
203	1279
204	210
205	47
