Mass Spectrum: Ethanone, 1-(2-benzothiazolyl)-
Formula: C9 H7 N O S
CAS: 1629-78-3
Molecular weight: 177
Origin: A.A.Kutin, Moscow, Russia
m/z	RELATIVE INTENSITY
33	30
34	31
36	23
37	203
38	354
39	804
40	288
41	97
43	9999
44	376
45	693
46	25
47	50
48	12
49	66
50	564
51	272
52	140
53	50
54	44
55	57
56	54
57	239
58	426
59	71
60	59
61	137
62	286
63	1116
64	489
65	75
66	18
67	68
69	1620
70	196
71	131
72	26
73	82
74	244
75	332
76	226
77	147
78	32
79	12
80	44
81	374
82	724
83	135
84	213
85	28
86	27
87	39
88	72
89	51
90	766
91	582
92	55
93	131
94	100
95	55
96	32
97	19
98	13
99	25
100	25
101	10
102	48
103	36
104	53
105	43
106	94
107	420
108	2398
109	268
110	132
111	25
112	27
113	6
114	15
116	25
117	23
118	11
120	25
121	40
122	20
123	8
125	5
128	5
129	11
130	13
132	10
133	256
134	1386
135	9147
136	888
137	438
138	41
144	4
145	3
146	24
149	3185
150	286
151	150
152	25
158	7
160	16
162	1053
163	96
164	57
165	4
170	6
171	41
172	9
173	7
174	10
175	38
177	7456
178	822
179	352
180	41
