Mass Spectrum: 1-Penten-3-one
Formula: C5 H8 O
CAS: 1629-58-9
Molecular weight: 84
Origin: Japan AIST/NIMC Database- Spectrum MS-IW-6353
m/z	RELATIVE INTENSITY
14	20
15	30
25	40
26	409
27	2799
28	339
29	1629
30	40
31	30
37	40
38	50
39	219
40	40
41	189
42	99
43	139
49	10
50	50
51	40
52	10
53	119
54	50
55	9999
56	799
57	989
58	30
61	20
62	20
63	20
65	30
66	30
67	40
69	40
79	10
81	20
82	10
83	339
84	2109
85	159
86	10
