Mass Spectrum: 1-Hexen-3-one
Formula: C6 H10 O
CAS: 1629-60-3
Molecular weight: 98
Origin: CARL DJERASSI DEPT OF CHEM STANFORD UNIV STANFORD CALIF 94305
m/z	RELATIVE INTENSITY
15	101
26	303
27	3535
28	606
29	909
31	202
38	101
39	909
40	101
41	1313
42	505
43	2222
53	101
55	9999
56	303
57	3535
58	101
67	101
69	101
70	1818
71	909
72	404
83	505
97	101
98	909
