Mass Spectrum: 1,3-Benzenediamine, 2,4,6-trinitro-
Formula: C6 H5 N5 O6
CAS: 1630-08-6
Molecular weight: 243
Origin: Japan AIST/NIMC Database- Spectrum MS-IW-3303
m/z	RELATIVE INTENSITY
26	10
27	30
28	99
29	10
30	319
31	10
36	10
37	90
38	139
39	359
40	139
41	90
42	119
43	80
44	289
45	40
46	30
48	20
49	50
50	149
51	359
52	1009
53	489
54	229
55	70
56	10
57	10
60	10
61	60
62	119
63	139
64	339
65	369
66	359
67	359
68	209
69	139
70	70
71	20
73	20
74	20
75	179
76	1039
77	899
78	789
79	349
80	239
81	50
82	40
83	30
84	30
85	20
86	10
87	20
88	60
89	179
90	269
91	209
92	199
93	829
94	119
95	149
96	60
97	40
98	20
100	10
101	60
102	40
103	219
104	859
105	309
106	109
107	199
108	60
109	50
110	20
112	20
116	30
117	169
118	50
119	70
120	90
121	119
122	119
123	60
124	50
125	10
126	10
132	90
133	209
134	149
135	60
136	40
137	30
138	10
147	10
148	10
149	60
150	70
151	1139
152	90
153	10
155	10
161	50
163	40
165	20
166	50
167	499
168	40
170	10
179	20
180	40
181	20
193	10
195	10
196	20
208	10
209	219
210	80
211	10
212	10
213	749
214	60
215	10
225	10
226	179
227	129
228	10
243	9999
244	889
245	159
246	10
