Mass Spectrum: Diborane(4)tetramine, octamethyl-
Formula: C8 H24 B2 N4
CAS: 1630-79-1
Molecular weight: 198
Origin: ORMSBG,9(3)289(1974); HANCOCK
m/z	RELATIVE INTENSITY
44	2200
56	2700
99	9999
111	700
154	2200
183	800
198	1000
