Mass Spectrum: Benzenemethanol, 2,4-dimethyl-
Formula: C9 H12 O
CAS: 16308-92-2
Molecular weight: 136
Origin: Japan AIST/NIMC Database- Spectrum MS-IW- 920
m/z	RELATIVE INTENSITY
15	10
18	20
26	20
27	319
28	70
29	119
30	10
31	70
37	20
38	60
39	659
40	80
41	389
42	20
43	119
45	40
46	20
50	179
51	589
52	159
53	289
54	30
55	60
57	189
58	189
59	40
60	159
61	20
62	90
63	299
64	70
65	759
66	149
67	369
68	10
71	10
73	10
74	70
75	70
76	60
77	2169
78	469
79	1109
80	80
81	10
86	20
87	20
89	139
90	60
91	4589
92	609
93	3869
94	309
95	20
98	10
101	20
102	119
103	859
104	289
105	2379
106	289
107	3059
108	279
109	10
115	449
116	119
117	2229
118	8349
119	2669
120	1089
121	6339
122	649
123	40
130	10
131	10
132	20
133	1159
134	859
135	869
136	9999
137	989
138	60
