Mass Spectrum: Cyclopropane, 1,1-dimethyl-
Formula: C5 H10
CAS: 1630-94-0
Molecular weight: 70
Origin: NIST Mass Spectrometry Data Center, 1990.
m/z	RELATIVE INTENSITY
15	502
26	508
27	2450
28	295
29	2198
30	55
37	275
38	674
39	4388
40	781
41	3383
42	2672
43	239
49	90
50	452
51	483
52	185
53	1428
54	90
55	9999
56	483
62	65
63	65
65	61
67	179
70	4202
71	221
