Mass Spectrum: Diphenylchlorosilane
Formula: C12 H11 Cl Si
CAS: 1631-83-0
Molecular weight: 218
Origin: V.Zaikin,Topchiev Inst.Petrochem.Synth.,Moscow
m/z	RELATIVE INTENSITY
26	180
27	581
28	50
29	260
31	180
35	50
36	150
37	170
38	220
39	661
40	60
41	360
42	130
43	260
44	160
45	70
47	40
49	110
50	1351
51	2632
52	530
53	1511
54	210
55	320
56	200
57	110
59	40
61	40
62	90
63	7897
64	540
65	2722
66	280
67	230
68	50
69	180
70	80
71	60
73	70
74	370
75	270
76	250
77	1471
78	1161
79	591
80	50
81	50
82	40
83	60
84	30
85	20
87	40
88	120
89	310
90	150
91	440
92	50
93	20
95	30
97	30
98	60
99	30
100	30
101	150
102	140
103	330
104	100
105	1201
106	160
107	90
111	30
112	30
113	110
114	40
115	260
116	40
117	40
125	30
126	100
127	60
128	120
129	240
130	50
131	30
136	30
137	20
138	30
139	370
140	9999
141	1912
142	3653
143	701
144	130
145	30
150	60
151	130
152	470
153	390
154	440
155	360
156	40
157	40
165	80
166	20
167	20
181	80
182	340
183	781
184	150
185	90
186	40
189	20
214	140
215	100
217	1361
218	2522
219	520
220	941
221	160
222	40
