Mass Spectrum: 2H-Imidazo[4,5-b]pyridin-2-one, 1,3-dihydro-
Formula: C6 H5 N3 O
CAS: 16328-62-4
Molecular weight: 135
Origin: F.M.HERSHENSON G.D. SEARLE AND CO., CHICAGO, ILLINOIS, USA
m/z	RELATIVE INTENSITY
38	1040
39	730
52	1350
53	1980
55	520
63	620
64	1250
79	520
80	2080
92	620
107	2300
108	420
135	9999
136	834
