Mass Spectrum: 1,4-Cyclooctadiene, (Z,Z)-
Formula: C8 H12
CAS: 16327-22-3
Molecular weight: 108
m/z	RELATIVE INTENSITY
39	5005
40	701
41	3803
50	901
51	1601
52	901
53	1501
54	2302
55	300
65	1501
66	2002
67	7907
68	500
77	3403
78	1401
79	9999
80	6306
81	200
91	2102
92	300
93	5005
94	400
108	5505
109	500
