Mass Spectrum: 1,3-Cyclopentanediol, cis-
Formula: C5 H10 O2
CAS: 16326-97-9
Molecular weight: 102
Origin: G.A.SINGY UNIVERSITY OF GENEVA, GENEVA, SWITZERLAND
m/z	RELATIVE INTENSITY
39	1910
40	900
41	4680
42	1870
43	5630
44	1350
45	2040
46	90
47	1310
49	60
50	170
51	210
52	130
53	730
54	600
55	9999
56	6720
57	6830
58	3630
59	370
60	260
61	130
62	90
63	90
65	210
66	600
67	820
68	170
69	1740
70	130
71	170
72	90
73	1330
74	130
81	150
82	540
83	3220
84	5610
85	520
86	90
100	170
101	90
