Mass Spectrum: 2-Pentanethiol, 2-methyl-
Formula: C6 H14 S
CAS: 1633-97-2
Molecular weight: 118
Origin: U.S. BUREAU OF MINES, LARAMIE, WYO, USA
m/z	RELATIVE INTENSITY
13	6
14	23
15	223
16	21
25	5
26	101
27	1496
28	250
29	1091
30	28
32	97
33	107
34	212
35	65
36	14
37	55
38	159
39	1980
40	316
41	5075
42	409
43	9999
44	339
45	369
46	44
47	686
48	25
49	63
50	80
51	138
52	50
53	352
54	61
55	991
56	757
57	1111
58	162
59	676
60	53
61	833
62	42
63	65
64	7
65	46
66	16
67	112
68	25
69	1970
70	113
71	53
72	9
73	34
74	263
75	2844
76	132
77	129
78	11
79	9
80	2
81	9
82	6
83	31
84	452
85	4551
86	307
87	27
88	6
89	46
103	61
104	5
105	3
118	1434
119	111
120	68
121	6
