Mass Spectrum: Pyridine-3,4-dicarbonitrile
Formula: C7 H3 N3
CAS: 1633-44-9
Molecular weight: 129
Origin: NIST Mass Spectrometry Data Center, 1994
m/z	RELATIVE INTENSITY
12	149
13	47
14	58
18	18
24	112
25	228
26	1651
27	222
28	653
36	278
37	843
38	900
39	210
40	134
41	22
48	309
49	601
50	1008
51	3375
52	816
53	501
54	19
60	88
61	161
62	449
63	421
64	370
74	447
75	2940
76	1642
77	610
78	329
79	20
86	43
87	48
88	52
89	363
90	25
100	348
101	905
102	4307
103	379
104	20
126	10
127	11
129	9999
130	820
131	42
