Mass Spectrum: 1-Pentanethiol, 2-methyl-
Formula: C6 H14 S
CAS: 1633-89-2
Molecular weight: 118
m/z	RELATIVE INTENSITY
25	10
26	300
27	3243
28	380
29	2432
30	60
31	10
32	60
33	160
34	100
35	90
36	10
37	100
38	220
39	2672
40	360
41	5335
42	2612
43	9999
44	340
45	1091
46	400
47	2382
48	250
49	200
50	100
51	150
52	50
53	330
54	150
55	2783
56	3303
57	320
58	140
59	180
60	90
61	240
62	30
63	40
64	10
65	40
66	20
67	90
68	40
69	1792
70	1251
71	2012
72	120
73	80
74	200
75	821
76	90
77	50
78	10
79	10
81	10
82	10
83	70
84	2092
85	230
86	10
87	20
88	10
89	40
97	10
103	10
117	20
118	1962
119	150
120	90
121	10
