Mass Spectrum: 1-Pentanethiol, 3-methyl-
Formula: C6 H14 S
CAS: 1633-88-1
Molecular weight: 118
m/z	RELATIVE INTENSITY
26	651
27	5555
28	4964
29	120
30	310
32	310
33	320
34	270
35	510
37	110
38	250
39	2903
40	420
41	6536
42	1661
43	3994
44	160
45	1511
46	641
47	4804
48	200
49	250
50	220
51	340
52	120
53	701
54	430
55	6576
56	5165
57	2102
58	400
59	470
60	801
61	3193
62	280
63	190
67	190
68	110
69	9999
70	611
71	190
73	100
75	110
83	180
84	7787
85	661
89	120
118	2352
119	170
120	100
