Mass Spectrum: 1,6-Diaminohexane-N,N,N',N'-tetraacetic acid
Formula: C14 H24 N2 O8
CAS: 1633-00-7
Molecular weight: 348
Origin: Japan AIST/NIMC Database- Spectrum MS-IW-1297
m/z	RELATIVE INTENSITY
14	40
15	269
16	339
17	50
18	219
26	30
27	209
28	4139
29	299
30	479
31	309
32	109
35	60
36	619
37	20
38	209
39	199
40	90
41	669
42	2039
43	599
44	9999
45	979
46	199
50	20
51	40
52	20
53	90
54	70
55	479
56	259
57	529
58	8189
59	369
60	159
61	30
63	10
65	70
66	20
67	129
68	109
69	119
70	319
71	359
72	199
73	40
74	119
75	20
76	10
77	80
78	30
79	129
80	50
81	219
82	299
83	149
84	879
85	149
86	70
87	30
88	439
89	50
90	10
91	129
92	50
93	70
94	119
95	109
96	349
97	219
98	389
99	99
100	159
101	50
102	459
103	40
104	10
105	30
106	30
107	50
108	80
109	80
110	349
111	179
112	789
113	139
114	219
115	60
116	30
117	10
118	30
119	20
120	30
121	30
122	99
123	80
124	349
125	249
126	599
127	149
128	399
129	50
130	20
131	10
132	10
133	20
134	30
135	20
136	109
137	99
138	159
139	70
140	109
141	70
142	60
143	30
144	20
145	20
146	139
147	20
148	20
149	40
150	40
151	30
152	60
153	70
154	60
155	119
156	60
157	129
158	40
159	10
160	10
162	10
163	10
164	20
165	30
166	30
167	60
168	50
169	159
170	119
171	90
172	30
173	10
176	10
178	10
179	10
180	20
181	30
182	20
183	50
184	30
185	20
186	30
187	20
188	10
193	90
194	10
195	20
196	20
197	20
198	90
199	40
200	20
201	80
202	10
209	10
210	70
211	20
212	10
213	60
214	20
215	10
216	10
227	10
228	20
229	10
237	10
239	20
240	20
241	60
242	50
243	20
252	10
253	10
254	10
255	10
259	10
278	20
284	90
285	30
