Mass Spectrum: 4-Ethylbenzoyl chloride
Formula: C9 H9 Cl O
CAS: 16331-45-6
Molecular weight: 168
Origin: NIST Mass Spectrometry Data Center, 1994
m/z	RELATIVE INTENSITY
4	26
14	37
15	206
18	17
26	148
27	783
28	228
29	103
32	43
35	51
36	53
37	115
38	302
39	820
40	106
41	57
43	50
45	152
49	100
50	1064
51	1719
52	334
53	249
55	20
59	85
60	15
61	133
62	399
63	1078
64	264
65	404
66	104
69	26
70	13
73	108
74	424
75	368
76	398
77	2152
78	568
79	2411
80	146
85	47
86	76
87	90
88	47
89	939
90	623
91	71
97	16
98	48
99	54
101	59
102	187
103	1358
104	388
105	2072
106	192
118	101
125	225
126	23
127	83
131	37
133	9999
134	1010
135	56
139	22
168	414
169	53
170	160
