Mass Spectrum: Malaoxon
Formula: C10 H19 O7 P S
CAS: 1634-78-2
Molecular weight: 314
m/z	RELATIVE INTENSITY
41	100
42	100
43	400
44	200
45	900
46	100
47	1100
48	100
49	100
53	100
54	100
55	2900
56	100
58	500
59	1100
60	300
61	200
62	100
63	300
65	100
71	800
72	200
73	300
75	100
79	2100
80	500
85	100
86	200
87	400
89	100
93	300
95	300
99	4300
100	500
103	300
104	100
109	2800
110	1600
111	900
112	500
114	100
125	2200
126	200
127	9999
128	600
129	100
131	800
132	300
133	100
141	100
142	1400
143	500
155	500
159	500
160	100
166	100
167	300
168	400
169	600
171	100
173	600
188	100
194	100
195	1400
196	100
197	100
212	100
222	200
239	400
240	400
241	200
268	800
269	100
270	100
271	100
272	100
301	100
314	100
315	100
316	100
