Mass Spectrum: Propane, 2-methoxy-2-methyl-
Formula: C5 H12 O
CAS: 1634-04-4
Molecular weight: 88
Origin: Japan AIST/NIMC Database- Spectrum MS-NW-1333
m/z	RELATIVE INTENSITY
14	30
15	399
17	10
18	30
26	70
27	619
28	319
29	1569
30	30
31	199
32	90
33	90
37	30
38	70
39	679
40	129
41	2479
42	259
43	1119
44	40
45	529
46	10
50	40
51	40
52	10
53	60
54	10
55	479
56	479
57	2579
58	129
59	40
71	10
72	20
73	9999
74	469
75	30
