Mass Spectrum: Benz(a)anthracene, 7-ethyl-12-methyl-
Formula: C21 H18
CAS: 16354-50-0
Molecular weight: 270
Origin: Organic Synthesis Lab, MSU, Moscow.TRC 449
m/z	RELATIVE INTENSITY
26	30
27	350
29	180
37	10
38	20
39	230
40	20
41	50
42	10
43	150
44	10
50	90
51	180
52	30
53	20
55	10
57	10
58	30
62	60
63	180
64	20
65	30
69	10
74	80
75	120
76	60
77	170
78	30
79	10
81	20
84	10
86	50
87	120
88	110
89	60
90	10
91	20
93	100
94	130
95	30
98	50
99	80
100	200
101	340
102	40
103	150
104	10
105	100
106	330
107	190
108	80
110	20
111	60
112	270
113	1071
114	390
115	120
116	10
117	70
118	460
119	1722
120	1581
121	450
122	20
123	20
124	110
125	611
126	1651
127	931
128	170
129	10
130	130
131	330
132	140
133	80
134	60
135	671
136	10
137	20
138	10
139	80
140	10
141	20
149	10
150	80
151	100
152	150
153	60
161	20
162	20
163	100
164	30
165	70
166	10
173	10
174	50
175	40
176	160
177	90
178	140
179	20
185	10
186	30
187	140
188	50
189	160
190	30
191	10
198	40
199	40
200	150
201	80
202	200
203	40
204	10
210	10
211	100
212	50
213	250
214	70
215	520
216	110
217	10
222	30
223	40
224	210
225	160
226	701
227	300
228	641
229	190
230	20
235	60
236	60
237	430
238	230
239	3823
240	2072
241	1121
242	360
243	100
244	10
247	10
248	80
249	70
250	581
251	260
252	2322
253	2342
254	1231
255	9999
256	2652
257	270
258	20
259	10
260	10
261	80
262	30
263	250
264	90
265	160
266	50
267	70
268	90
269	130
270	9919
271	2732
272	290
