Mass Spectrum: Benz(a)anthracene, 7,12-diethyl-
Formula: C22 H20
CAS: 16354-52-2
Molecular weight: 284
Origin: Organic Synthesis Lab, MSU, Moscow.TRC 479
m/z	RELATIVE INTENSITY
26	30
27	200
29	380
30	10
38	10
39	130
40	60
41	80
42	30
43	130
44	30
45	10
50	30
51	70
52	10
53	20
54	10
55	60
56	20
57	60
58	20
60	10
62	20
63	80
64	10
65	20
67	10
69	30
70	10
71	20
74	40
75	40
76	30
77	50
78	20
81	10
83	10
84	20
85	20
86	20
87	60
88	50
89	30
91	90
92	10
93	50
94	70
95	30
97	10
98	20
99	30
100	110
101	150
102	20
103	40
105	50
106	180
107	120
108	40
110	10
111	30
112	180
113	651
114	330
115	130
116	20
117	50
118	310
119	1001
120	520
121	90
122	10
123	10
124	90
125	450
126	1291
127	651
128	190
129	20
130	120
131	430
132	200
133	150
134	90
135	10
136	10
137	60
138	80
139	50
140	10
141	200
142	210
149	10
150	40
151	40
152	60
153	40
154	10
161	10
162	10
163	50
164	20
165	80
166	10
167	10
174	30
175	20
176	50
177	10
178	40
179	10
185	10
186	10
187	80
188	30
189	120
190	40
191	40
192	10
198	20
199	20
200	90
201	40
202	110
203	30
210	10
211	60
212	30
213	130
214	60
215	250
216	70
217	30
222	20
223	40
224	150
225	140
226	460
227	180
228	330
229	190
230	30
235	40
236	50
237	300
238	200
239	3203
240	5485
241	2702
242	500
243	60
247	10
248	80
249	70
250	510
251	240
252	2122
253	2002
254	1241
255	1621
256	420
257	110
258	10
259	10
260	10
261	80
262	50
263	340
264	140
265	330
266	140
267	300
268	140
269	3623
270	901
271	100
272	20
274	30
275	10
276	50
277	30
278	10
279	10
280	10
281	10
282	130
283	110
284	9999
285	2382
286	280
