Mass Spectrum: 2-(4-Nitrophenoxy)ethanol
Formula: C8 H9 N O4
CAS: 16365-27-8
Molecular weight: 183
Origin: NIST Mass Spectrometry Data Center
m/z	RELATIVE INTENSITY
15	140
17	20
18	110
19	360
20	20
25	10
26	190
27	1021
28	200
29	841
30	691
31	871
32	30
36	20
37	140
38	621
39	1591
40	100
41	70
42	160
43	1001
44	360
45	6266
46	210
47	20
49	40
50	1972
51	691
52	400
53	711
54	150
55	110
56	10
60	20
61	190
62	611
63	2042
64	1341
65	4004
66	390
67	60
68	90
69	40
73	80
74	721
75	1722
76	2272
77	741
78	561
79	250
80	300
81	1712
82	130
83	10
86	10
87	20
88	10
89	50
90	50
91	150
92	1141
93	2392
94	781
95	90
96	30
104	20
105	70
106	611
107	300
108	150
109	8758
110	651
111	60
118	60
119	70
120	30
122	1321
123	1982
124	190
125	20
128	10
132	10
134	10
135	90
136	140
137	50
139	9999
140	2172
141	190
142	20
147	10
149	10
150	20
152	1131
153	310
154	30
165	40
167	150
168	10
181	80
183	4674
184	430
185	60
