Mass Spectrum: 3-Pentanone, (2,4-dinitrophenyl)hydrazone
Formula: C11 H14 N4 O4
CAS: 1636-83-5
Molecular weight: 266
Origin: Japan AIST/NIMC Database- Spectrum MS-IW-6794
m/z	RELATIVE INTENSITY
12	10
14	20
15	80
16	20
25	30
26	309
27	1459
28	3779
29	2959
30	1679
31	20
32	10
36	10
37	99
38	379
39	1149
40	279
41	4929
42	1349
43	699
44	319
45	639
46	30
49	20
50	399
51	1059
52	859
53	679
54	1369
55	1849
56	7999
57	3409
58	119
59	30
60	10
61	139
62	659
63	1379
64	789
65	469
66	269
67	569
68	609
69	2419
70	509
71	199
72	70
73	559
74	269
75	1039
76	889
77	1139
78	1509
79	1679
80	339
81	90
82	379
83	189
84	389
85	249
86	189
87	4559
88	359
89	459
90	709
91	1089
92	779
93	299
94	90
95	80
96	40
97	40
98	30
99	10
100	30
101	60
102	199
103	419
104	369
105	339
106	439
107	309
108	90
109	30
110	10
111	40
112	20
113	10
114	30
115	729
116	619
117	839
118	539
119	559
120	199
121	99
122	1049
123	109
124	20
125	10
126	20
127	99
128	259
129	589
130	639
131	789
132	299
133	189
134	189
135	749
136	249
137	229
138	149
139	20
140	30
141	70
142	99
143	279
144	359
145	469
146	399
147	439
148	119
149	389
150	99
151	70
152	2079
153	449
154	90
155	90
156	209
157	369
158	389
159	559
160	189
161	80
162	60
163	169
164	259
165	1079
166	179
167	199
168	90
169	80
170	129
171	169
172	209
173	169
174	199
175	869
176	309
177	709
178	119
179	80
180	939
181	3779
182	449
183	929
184	189
185	429
186	169
187	149
188	90
189	119
190	219
191	269
192	259
193	60
194	50
195	20
196	219
197	30
198	10
199	10
200	20
201	50
202	189
203	309
204	359
205	959
206	199
207	40
208	10
209	10
210	80
211	20
214	20
215	70
216	139
217	189
218	99
219	199
220	119
221	139
222	30
223	10
229	10
230	40
231	809
232	519
233	259
234	40
235	20
236	60
237	139
238	80
239	10
245	10
246	10
247	20
248	20
249	109
250	189
251	50
261	10
262	10
264	30
266	9999
267	1609
268	199
269	10
