Mass Spectrum: 2-(Propylamino)ethanol
Formula: C5 H13 N O
CAS: 16369-21-4
Molecular weight: 103
Origin: Japan AIST/NIMC Database- Spectrum MS-NW-9992
m/z	RELATIVE INTENSITY
14	20
15	219
17	30
18	109
19	10
26	90
27	989
28	1199
29	429
30	8059
31	319
32	10
37	10
38	30
39	399
40	80
41	1659
42	999
43	2459
44	1009
45	729
46	20
51	10
52	20
53	10
54	119
55	70
56	3229
57	229
58	249
59	30
60	359
61	40
67	10
68	50
69	20
70	239
71	30
72	9999
73	519
74	3729
75	139
76	10
82	10
83	10
84	129
85	30
86	30
88	10
100	10
102	189
103	699
104	109
