Mass Spectrum: Decane, 4-ethyl-
Formula: C12 H26
CAS: 1636-44-8
Molecular weight: 170
Origin: R.A. Khmel'nitsky
m/z	RELATIVE INTENSITY
15	60
26	90
27	1742
29	2803
30	60
39	951
40	180
41	4114
42	1091
43	9999
44	330
50	10
51	50
52	30
53	290
54	170
55	1962
56	1271
57	6876
58	290
65	50
66	20
67	180
68	80
69	721
70	571
71	4904
72	250
81	30
82	100
83	260
84	1581
85	5005
86	310
96	60
97	290
98	220
99	490
100	30
111	20
112	110
113	120
114	40
126	721
127	400
128	40
140	1021
141	881
142	90
170	90
171	10
