Mass Spectrum: 4,6-Decadiyne
Formula: C10 H14
CAS: 16387-71-6
Molecular weight: 134
Origin: NIST Mass Spectrometry Data Center, 1990.
m/z	RELATIVE INTENSITY
15	73
26	201
27	1337
28	333
29	751
38	198
39	1351
40	183
41	1506
42	171
50	1466
51	1992
52	404
53	675
54	103
55	528
61	202
62	793
63	2737
64	558
65	1552
66	370
67	371
73	120
74	1167
75	1225
76	1280
77	5894
78	1749
79	4089
80	430
85	84
86	272
87	291
88	94
89	694
90	84
91	9999
92	991
93	597
98	144
102	292
103	1913
104	810
105	2351
106	350
115	499
116	150
117	978
118	167
119	540
134	5539
135	610
