Mass Spectrum: 3,5-Octadiyne
Formula: C8 H10
CAS: 16387-70-5
Molecular weight: 106
Origin: Japan AIST/NIMC Database- Spectrum MS-NW-3378
m/z	RELATIVE INTENSITY
14	30
15	139
25	10
26	99
27	699
28	10
29	119
36	20
37	159
38	239
39	1839
40	349
41	869
42	40
43	159
44	30
45	10
46	10
48	10
49	129
50	879
51	1849
52	839
53	589
54	169
55	80
56	30
57	40
60	50
61	309
62	729
63	1879
64	529
65	4309
66	1059
67	179
68	30
69	20
70	10
72	10
73	139
74	719
75	579
76	379
77	2959
78	2159
79	2919
80	249
81	20
82	129
83	10
84	40
85	149
86	289
87	269
88	60
89	859
90	329
91	7149
92	539
93	30
97	60
98	90
99	30
101	30
102	119
103	1249
104	229
105	2059
106	9999
107	869
108	40
