Mass Spectrum: 3-Pentanethiol, 3-methyl-
Formula: C6 H14 S
CAS: 1639-03-8
Molecular weight: 118
m/z	RELATIVE INTENSITY
26	591
27	4324
28	681
29	3223
31	230
32	120
33	400
34	180
35	160
37	100
38	230
39	2412
40	310
41	4154
42	480
43	9999
44	350
45	1201
47	931
50	260
51	370
52	130
53	781
54	210
55	6095
56	681
57	1421
58	330
59	1011
60	100
61	811
63	110
67	170
69	1471
70	130
71	150
73	2102
74	150
84	380
85	5375
86	400
87	260
88	210
89	2272
90	190
91	150
101	120
118	1561
119	120
