Mass Spectrum: 3-Pentanethiol, 2-methyl-
Formula: C6 H14 S
CAS: 1639-04-9
Molecular weight: 118
m/z	RELATIVE INTENSITY
15	1301
16	50
25	20
26	370
27	4384
28	480
29	2152
30	50
31	10
32	110
33	300
34	210
35	200
36	20
37	150
38	340
39	3823
40	440
41	9999
42	1411
43	9909
44	370
45	1842
46	330
47	4214
48	120
49	230
50	170
51	270
52	90
53	621
54	160
55	3944
56	821
57	1081
58	350
59	550
60	290
61	1251
62	90
63	130
64	10
65	80
66	30
67	160
68	40
69	1551
70	160
71	270
72	50
73	340
74	4314
75	7807
76	691
77	400
78	30
79	10
80	10
81	10
82	20
83	70
84	931
85	3093
86	210
87	70
88	150
89	891
90	50
91	40
92	10
93	10
102	10
103	20
104	10
116	10
117	10
118	3183
119	230
120	150
121	10
