Mass Spectrum: 2-Pentanethiol, 4-methyl-
Formula: C6 H14 S
CAS: 1639-05-0
Molecular weight: 118
m/z	RELATIVE INTENSITY
15	1361
16	50
24	10
25	20
26	310
27	4344
28	430
29	1892
30	50
31	10
32	120
33	350
34	280
35	651
36	20
37	170
38	350
39	3833
40	530
41	8267
42	1912
43	9999
44	340
45	971
46	140
47	1321
48	40
49	100
50	140
51	220
52	70
53	430
54	90
55	1141
56	861
57	1411
58	420
59	911
60	1101
61	6075
62	290
63	330
64	20
65	80
66	30
67	30
68	90
69	8998
70	500
71	100
72	10
73	60
74	270
75	1131
76	130
77	70
78	10
79	10
80	10
81	10
82	20
83	80
84	6176
85	1942
86	120
87	40
88	10
89	10
90	10
91	10
92	10
93	10
94	10
95	10
96	10
97	10
98	10
99	10
100	10
101	30
102	10
103	40
104	10
105	10
116	10
117	10
118	921
119	70
120	50
121	10
