Mass Spectrum: Cyclohexanol, 5-methyl-2-(1-methylethyl)-, acetate
Formula: C12 H22 O2
CAS: 16409-45-3
Molecular weight: 198
Origin: Japan AIST/NIMC Database- Spectrum MS-NW-8948
m/z	RELATIVE INTENSITY
15	90
18	10
27	309
28	109
29	459
30	10
31	30
39	279
40	50
41	1599
42	199
43	6589
44	189
45	70
51	20
52	10
53	269
54	249
55	2059
56	449
57	949
58	109
59	80
60	10
61	159
65	70
66	40
67	1739
68	879
69	1689
70	359
71	1769
72	119
73	40
77	119
78	30
79	369
80	579
81	5669
82	2679
83	1139
84	139
85	419
86	119
87	20
91	70
92	10
93	199
94	1009
95	9999
96	2529
97	389
98	60
99	139
100	80
101	10
105	10
107	40
108	20
109	819
110	489
111	159
112	119
113	479
114	50
115	10
121	40
122	10
123	3249
124	329
125	30
136	10
137	129
138	4469
139	719
140	50
141	119
142	10
154	20
155	50
156	40
