Mass Spectrum: m-Toluic acid, octyl ester
Formula: C16 H24 O2
CAS: 16409-24-8
Molecular weight: 248
Origin: Zaikin V.G., TIPS RAS, Moscow, Russia
m/z	RELATIVE INTENSITY
27	130
28	50
29	220
36	30
39	210
40	30
41	550
42	210
43	370
44	30
50	30
51	60
53	50
54	60
55	510
56	480
57	190
63	110
64	40
65	591
66	40
67	80
68	120
69	440
70	520
71	90
77	100
81	30
82	100
83	390
84	350
85	30
89	240
90	230
91	3453
92	450
93	480
94	30
97	60
105	50
112	340
113	30
118	110
119	8428
120	711
121	70
135	80
136	9999
137	9789
138	721
139	60
149	100
177	50
248	250
249	50
