Mass Spectrum: Cyclopentane, ethyl-
Formula: C7 H14
CAS: 1640-89-7
Molecular weight: 98
Origin: Japan AIST/NIMC Database- Spectrum MS-NW-4000
m/z	RELATIVE INTENSITY
14	10
15	99
26	139
27	1369
28	259
29	1249
30	30
37	40
38	119
39	1859
40	349
41	6369
42	4129
43	699
44	20
45	10
49	10
50	99
51	169
52	70
53	509
54	529
55	4789
56	4469
57	739
58	30
61	10
62	30
63	50
64	10
65	119
66	70
67	999
68	6639
69	9999
70	5609
71	319
72	10
77	50
78	10
79	50
80	10
81	40
82	70
83	819
84	50
85	10
95	10
96	10
97	90
98	1229
99	99
