Mass Spectrum: 3-Thiophenecarbonitrile
Formula: C5 H3 N S
CAS: 1641-09-4
Molecular weight: 109
Origin: NIST Mass Spectrometry Data Center
m/z	RELATIVE INTENSITY
12	110
13	40
14	20
24	60
25	180
26	350
27	70
28	10
29	30
32	390
33	60
34	40
36	290
37	1241
38	951
39	510
40	60
42	10
43	20
45	5625
46	160
47	270
48	100
49	340
50	390
51	330
52	100
53	10
54	10
55	130
56	360
57	1041
58	2702
59	210
60	190
61	40
62	160
63	280
64	981
65	811
66	40
68	150
69	450
70	240
71	20
74	20
75	180
76	120
80	120
81	400
82	1131
83	581
84	80
85	30
92	10
93	20
94	90
97	10
106	60
107	60
109	9999
110	681
111	540
112	100
