Mass Spectrum: 2,4-Dimethylphenol, TMS derivative
Formula: C11 H18 O Si
CAS: 16414-81-6
Molecular weight: 194
Origin: W.T.RAINEY OAK RIDGE NATIONAL LABORATORY,OAK RIDGE,TN.USA
m/z	RELATIVE INTENSITY
45	272
59	272
73	1636
75	1499
77	309
79	536
91	163
105	7272
106	636
161	145
163	1381
164	436
165	445
177	218
179	9999
180	1636
181	436
194	8181
195	1408
196	390
