Mass Spectrum: Carbamothioic chloride, dimethyl-
Formula: C3 H6 Cl N S
CAS: 16420-13-6
Molecular weight: 123
Origin: RADIAN CORP
m/z	RELATIVE INTENSITY
15	990
18	10
27	190
35	120
38	60
39	120
40	360
41	470
42	2780
44	530
45	1490
46	310
47	1000
48	60
49	110
51	70
52	40
55	50
56	1550
57	150
58	220
59	140
61	540
63	30
70	300
71	170
72	2920
73	4790
74	310
75	280
76	450
78	180
79	2270
80	40
81	890
88	9530
89	460
90	430
91	20
107	60
108	230
110	60
123	9999
124	480
125	3790
126	150
