Mass Spectrum: 2-Methyl-1-dodecene
Formula: C13 H26
CAS: 16435-49-7
Molecular weight: 182
Origin: J. Klune, Insect Chem. Ecol. Lab., USDA, Beltsville, MD 20705
m/z	RELATIVE INTENSITY
41	3152
42	676
43	2228
44	224
45	6
47	16
48	5
49	41
50	15
51	82
52	32
53	378
54	335
55	2939
56	9999
57	4426
58	203
59	23
60	12
61	5
63	6
64	7
65	75
66	48
67	540
68	468
69	3208
70	1523
71	534
72	38
73	10
74	7
75	10
77	77
78	25
79	99
80	27
81	318
82	380
83	1265
84	882
85	343
86	43
88	11
91	40
92	18
93	31
94	23
95	212
96	187
97	903
98	352
99	59
100	5
105	20
107	28
108	5
109	76
110	88
111	475
112	153
113	35
115	21
116	5
117	4
119	22
120	10
121	23
122	5
123	36
124	82
125	113
126	442
127	61
128	6
129	14
131	11
133	17
134	4
135	23
137	25
138	43
139	106
140	69
141	34
143	4
145	17
148	19
149	27
151	15
152	17
153	8
154	313
155	55
157	12
159	17
161	4
163	17
165	17
166	13
167	191
168	43
169	10
175	9
177	17
179	4
180	19
182	920
183	160
184	19
185	4
