Mass Spectrum: 4-Isopropylphenoxyacetic acid
Formula: C11 H14 O3
CAS: 1643-16-9
Molecular weight: 194
Origin: NIST Mass Spectrometry Data Center
m/z	RELATIVE INTENSITY
13	30
14	230
15	370
16	10
18	20
26	110
27	861
28	170
29	621
30	160
31	1031
37	40
38	250
39	1491
40	250
41	1001
42	310
43	250
45	991
46	20
50	550
51	1071
52	300
53	350
54	30
55	190
56	10
57	10
59	80
60	60
61	60
62	220
63	661
64	240
65	1001
66	230
67	110
73	20
74	190
75	200
76	340
77	1902
78	741
79	571
80	40
81	30
86	20
87	40
89	250
91	2492
92	410
93	260
94	50
95	80
96	10
98	10
101	80
102	320
103	1712
104	530
105	1121
106	160
107	500
108	40
113	10
115	270
116	70
117	150
118	80
119	400
120	520
121	3263
122	300
123	20
131	10
133	991
134	150
135	450
136	60
146	10
147	50
148	20
149	90
150	10
163	10
164	20
165	70
179	9999
180	1061
181	120
182	10
194	2222
195	290
196	30
