Mass Spectrum: Benzene, 3-bromo-1,2,4,5-tetramethyl-
Formula: C10 H13 Br
CAS: 1646-53-3
Molecular weight: 212
Origin: NIST Mass Spectrometry Data Center, 1990.
m/z	RELATIVE INTENSITY
14	17
15	167
26	73
27	642
28	473
29	133
32	10
37	49
38	236
39	1553
40	285
41	965
50	426
51	1291
52	345
53	498
55	265
58	158
61	79
62	276
63	878
64	924
65	1106
66	261
67	74
74	181
75	246
76	169
77	1058
78	386
79	483
86	59
87	84
89	331
91	2308
92	264
93	390
102	210
103	445
105	1961
106	275
107	136
115	2032
116	772
117	1833
118	882
119	98
127	126
128	259
129	184
130	98
131	537
132	98
133	9999
134	1082
135	59
197	861
198	128
199	774
200	74
211	414
212	3085
213	678
214	3136
215	329
