Mass Spectrum: Pent-1-yn-3-one
Formula: C5 H6 O
CAS: 16469-62-8
Molecular weight: 82
Origin: A.Pleshkova, Nesmeyanov Inst.Org.Elem.Cpds, Moscow
m/z	RELATIVE INTENSITY
25	500
26	1101
27	2302
28	1101
29	1501
30	30
37	300
38	300
39	3603
40	120
43	400
50	300
51	200
52	200
53	9999
54	1702
55	500
56	200
57	300
81	300
82	1702
83	100
84	10
