Mass Spectrum: Aldicarb sulfone
Formula: C7 H14 N2 O4 S
CAS: 1646-88-4
Molecular weight: 222
m/z	RELATIVE INTENSITY
39	500
41	2800
42	1000
43	900
44	500
45	300
55	1300
57	600
58	2300
59	500
63	400
64	400
68	1500
69	800
70	300
71	200
85	3600
86	9999
87	900
88	200
143	3800
144	500
