Mass Spectrum: Benzene, (2-methyl-3-butenyl)-
Formula: C11 H14
CAS: 1647-06-9
Molecular weight: 146
Origin: NIST Mass Spectrometry Data Center, 1990.
m/z	RELATIVE INTENSITY
26	68
27	417
28	223
29	258
32	40
38	91
39	865
40	84
41	234
50	220
51	494
52	125
53	182
54	62
55	646
62	106
63	368
64	166
65	1368
66	88
67	48
68	39
74	60
75	63
76	77
77	304
78	159
79	47
89	282
91	9999
92	1214
93	67
102	80
103	111
104	425
105	79
115	348
116	129
117	394
118	156
127	79
128	182
129	141
130	51
131	440
132	49
146	1460
147	164
