Mass Spectrum: 1-Bromo-3,3-dimethylbutane
Formula: C6 H13 Br
CAS: 1647-23-0
Molecular weight: 164
Origin: NIST Mass Spectrometry Data Center, 1990.
m/z	RELATIVE INTENSITY
14	48
15	261
16	29
26	232
27	1597
28	654
29	1504
32	40
37	45
38	149
39	1579
40	40
41	5912
42	334
43	893
44	55
50	128
51	193
52	96
53	436
54	83
55	622
56	1496
57	9999
58	361
65	52
67	124
69	4145
70	233
80	50
81	46
82	37
84	42
85	180
93	75
95	59
107	157
109	145
138	32
149	328
150	36
151	338
