Mass Spectrum: N-Butyl-tert-butylamine
Formula: C8 H19 N
CAS: 16486-74-1
Molecular weight: 129
Origin: AIR PRODUCTS & CHEMICALS, INC BOX 538, ALLENTOWN, PA 18105, D M PAREES
m/z	RELATIVE INTENSITY
27	380
29	890
30	3420
39	360
41	1050
42	670
55	210
56	180
57	1230
58	3810
59	110
70	220
71	150
72	310
84	80
86	1140
114	9999
115	990
129	510
130	40
