Mass Spectrum: Ethomoxane
Formula: C15 H23 N O3
CAS: 16509-23-2
Molecular weight: 265
Origin: Finnigan MAT: Toxicological Library (LIBR-TX)
m/z	RELATIVE INTENSITY
41	872
43	276
44	1923
56	306
57	300
68	94
70	417
84	98
86	9999
87	511
97	301
112	198
137	213
180	595
192	99
222	100
265	896
266	197
