Mass Spectrum: Triphenylcyclopropene
Formula: C21 H16
CAS: 16510-49-9
Molecular weight: 268
Origin: NIST Mass Spectrometry Data Center
m/z	RELATIVE INTENSITY
15	40
17	40
18	180
27	390
29	80
37	10
39	500
40	30
41	20
44	20
50	270
51	961
52	120
53	30
61	20
62	150
63	480
64	80
65	130
66	20
70	20
74	160
75	210
76	190
77	420
78	90
79	20
80	20
82	70
86	100
87	180
88	180
89	330
90	30
91	50
94	120
95	110
98	70
99	70
100	100
101	140
102	90
103	50
106	70
107	210
110	40
111	50
113	500
114	180
115	250
116	30
119	360
120	611
122	30
123	10
126	1611
128	30
132	781
133	741
134	611
137	70
139	200
140	20
150	120
151	110
152	130
153	20
161	30
162	70
163	290
164	260
165	1161
166	160
167	10
174	20
176	130
177	30
178	70
179	60
180	50
186	40
187	210
189	1581
190	631
191	1772
192	270
193	20
199	20
200	70
201	50
202	100
203	20
211	50
212	20
213	140
214	30
215	100
216	20
224	80
225	50
226	200
227	50
228	40
235	20
237	180
239	591
240	190
241	130
242	20
248	20
250	230
252	1792
253	1341
254	270
255	20
261	80
263	741
265	1832
266	801
267	3773
268	9999
269	1982
270	220
271	10
