Mass Spectrum: Propane, 1,1,1,2,2-pentachloro-3,3,3-trifluoro-
Formula: C3 Cl5 F3
CAS: 1652-89-7
Molecular weight: 268
m/z	RELATIVE INTENSITY
14	30
16	10
17	10
18	50
24	50
28	871
29	10
30	10
31	460
32	210
35	270
36	70
37	90
38	10
40	20
43	20
44	100
45	10
47	661
48	10
49	220
50	80
51	10
56	190
60	260
61	10
62	80
63	10
66	80
67	10
68	30
69	6936
70	90
71	20
72	30
73	20
74	320
75	10
78	190
80	70
82	571
83	140
84	380
85	5635
86	120
87	1812
88	20
90	100
92	30
93	520
94	941
95	20
96	621
97	40
98	100
99	10
101	1692
102	20
103	1101
104	10
105	170
107	10
108	20
109	520
110	20
111	170
112	10
113	80
115	60
116	30
117	7677
118	100
119	7427
120	80
121	2372
122	30
123	260
125	10
127	10
128	20
129	861
130	30
131	811
132	90
133	280
134	50
135	40
136	10
146	170
148	170
149	290
150	80
151	190
152	20
153	40
162	1171
163	941
164	771
165	1201
166	150
167	571
169	120
178	80
180	80
182	20
197	430
198	210
199	420
200	330
201	140
202	200
203	10
204	60
233	7797
234	260
235	9999
236	340
237	4844
238	170
239	1041
240	40
241	90
