Mass Spectrum: 1-Hexene, 1-iodo-, (Z)-
Formula: C6 H11 I
CAS: 16538-47-9
Molecular weight: 210
Origin: T. REICHENBACH
m/z	RELATIVE INTENSITY
14	72
15	404
17	45
18	154
25	36
26	656
27	5296
28	1006
29	2109
30	48
36	16
37	211
38	586
39	5178
40	1043
41	9999
42	675
43	3694
44	126
49	55
50	356
51	636
52	327
53	1424
54	907
55	5562
57	111
61	40
62	63
63	96
64	22
65	130
66	94
67	370
68	101
69	18
73	45
74	39
75	19
77	66
78	21
79	69
81	133
82	48
83	1083
84	75
85	98
127	1524
128	365
129	23
139	28
140	43
141	204
152	60
153	157
154	4707
155	167
165	38
166	17
167	2172
168	1022
169	118
180	29
181	90
210	5235
211	354
212	17
