Mass Spectrum: Cyclooctane, butyl-
Formula: C12 H24
CAS: 16538-93-5
Molecular weight: 168
Origin: D.HENNEBERG, MAX-PLANCK INSTITUTE, MULHEIM, WEST GERMANY
m/z	RELATIVE INTENSITY
27	650
28	1241
29	1371
32	140
39	660
40	40
41	3623
42	820
43	1901
53	250
54	480
55	5665
56	1821
57	1331
67	730
68	510
69	9999
70	1601
71	170
81	290
82	810
83	1311
84	440
95	60
96	60
97	570
98	170
110	280
111	7217
112	580
