Mass Spectrum: 4-Tetradecanol
Formula: C14 H30 O
CAS: 1653-33-4
Molecular weight: 214
Origin: V.G.Zaikin, TIPS, Russian Acad. Sci.
m/z	RELATIVE INTENSITY
31	1201
40	1201
41	4003
42	600
43	2402
44	900
45	2001
53	1000
54	700
55	9999
56	900
57	2702
58	400
59	500
69	2001
70	700
71	1201
72	400
73	5905
74	300
83	1401
84	500
85	800
97	800
99	400
111	400
125	400
139	300
153	300
171	2001
172	300
196	270
197	40
