Mass Spectrum: Cyclohexanol, 2-chloro-, cis
Formula: C6 H11 Cl O
CAS: 16536-58-6
Molecular weight: 134
Origin: A.CAMBON LAB. OF STRUCTURAL CHEM., UNIV. OF NICE, NICE, FRANCE
m/z	RELATIVE INTENSITY
28	1900
29	1200
39	2500
41	2500
42	1600
44	1300
45	2100
51	900
53	800
54	3200
55	2900
56	400
57	9999
58	500
67	1600
69	1700
79	1100
80	500
81	3500
98	2300
99	1200
116	1100
117	300
118	700
119	400
134	300
136	100
