Mass Spectrum: 4a(2H)-Naphthalenol, octahydro-, trans-
Formula: C10 H18 O
CAS: 1654-87-1
Molecular weight: 154
Origin: V.G.Zaikin, TIPS, Russian Acad. Sci.
m/z	RELATIVE INTENSITY
39	1651
40	370
41	3413
42	730
43	1461
44	240
45	240
51	260
52	120
53	730
54	490
55	4203
56	430
57	610
58	240
65	200
66	150
67	1891
68	670
69	1101
70	1151
71	230
77	430
78	100
79	850
80	250
81	1161
82	550
83	1521
84	550
91	370
92	100
93	910
94	300
95	730
96	600
97	2201
98	3963
99	300
110	230
111	9999
112	980
125	210
136	120
153	60
154	3172
155	350
156	20
