Mass Spectrum: Decanoic acid, decyl ester
Formula: C20 H40 O2
CAS: 1654-86-0
Molecular weight: 312
m/z	RELATIVE INTENSITY
15	267
17	89
18	237
19	30
26	237
27	1422
28	770
29	3111
30	119
31	267
36	119
39	741
40	207
41	6177
42	2222
43	9999
44	296
45	400
51	44
52	44
53	252
54	652
55	6162
56	4000
57	6814
58	356
59	296
60	889
61	2622
62	593
65	89
66	104
67	741
68	1333
69	4000
70	3881
71	3851
72	193
73	1481
74	178
77	104
79	148
80	59
81	637
82	1866
83	3614
84	3037
85	2666
86	178
87	504
88	104
89	252
93	104
94	59
95	444
96	815
97	3170
98	2029
99	296
100	74
101	296
102	89
103	252
109	119
110	444
111	2029
112	2370
113	296
114	74
115	385
116	370
117	104
125	148
126	89
127	74
128	30
129	1037
130	104
131	30
135	104
136	44
137	104
138	104
139	104
140	6962
141	741
142	74
143	193
152	89
153	119
154	89
155	2859
156	267
157	89
171	119
172	1526
173	9925
174	1141
175	104
185	370
186	74
200	119
201	119
213	148
227	30
228	119
269	30
312	593
313	119
