Mass Spectrum: 1-Propanone, 1-(1-cyclohexen-1-yl)-
Formula: C9 H14 O
CAS: 1655-03-4
Molecular weight: 138
m/z	RELATIVE INTENSITY
39	700
41	1000
53	1600
57	900
77	900
79	3000
81	9299
82	600
109	9999
110	700
138	1400
