Mass Spectrum: Benzene, 1-methoxy-4-phenoxy-
Formula: C13 H12 O2
CAS: 1655-69-2
Molecular weight: 200
m/z	RELATIVE INTENSITY
39	601
41	400
50	601
51	2202
52	400
63	601
64	1201
65	300
69	500
76	300
77	2302
78	400
92	200
95	300
100	300
115	300
123	901
128	400
129	1201
130	100
138	200
141	200
157	300
170	400
185	3303
186	701
200	9999
201	1401
202	100
