Mass Spectrum: Benzene, 1-methoxy-3-phenoxy-
Formula: C13 H12 O2
CAS: 1655-68-1
Molecular weight: 200
Origin: CARL DJERASSI DEPT OF CHEM STANFORD UNIV STANFORD CALIF 94305
m/z	RELATIVE INTENSITY
41	294
50	196
51	1176
63	588
64	1078
65	98
76	98
77	2254
78	98
92	882
93	196
94	98
100	196
115	196
127	196
128	588
129	784
141	392
142	98
157	1764
158	196
168	98
169	196
171	196
172	98
184	196
185	196
199	490
200	9999
201	980
