Mass Spectrum: Propanenitrile, 3,3'-oxybis-
Formula: C6 H8 N2 O
CAS: 1656-48-0
Molecular weight: 124
Origin: NIST Mass Spectrometry Data Center, 1990.
m/z	RELATIVE INTENSITY
12	59
13	58
14	167
15	182
25	134
26	768
27	1223
28	1643
29	829
30	145
31	1649
32	24
37	64
38	183
39	230
40	606
41	716
42	529
43	92
44	109
45	32
50	79
51	414
52	917
53	800
54	9999
55	513
57	39
67	29
68	97
70	54
84	2346
85	107
97	376
98	34
123	23
