Mass Spectrum: 3,3'-Dipicolylamine
Formula: C12 H13 N3
CAS: 1656-94-6
Molecular weight: 199
Origin: Japan AIST/NIMC Database- Spectrum MS-NW-5367
m/z	RELATIVE INTENSITY
14	20
15	20
26	90
27	189
28	249
29	30
30	139
31	10
37	50
38	229
39	1889
40	149
41	159
42	70
43	80
44	80
45	40
46	20
49	30
50	239
51	599
52	369
53	249
54	60
55	40
56	30
57	70
58	20
59	10
60	10
61	20
62	80
63	399
64	309
65	3089
66	379
67	109
68	30
69	20
70	30
71	40
72	10
73	20
74	20
75	50
76	80
77	149
78	329
79	689
80	2359
81	169
82	20
83	20
84	20
85	20
86	40
87	10
88	20
89	40
90	40
91	199
92	9999
93	3019
94	279
95	20
96	10
97	20
98	10
99	10
101	10
102	20
103	20
104	139
105	169
106	149
107	1799
108	169
109	10
111	10
113	10
114	20
115	40
116	20
117	40
118	80
119	1089
120	179
121	2529
122	249
123	20
127	20
128	50
129	20
130	20
131	10
132	20
133	10
135	10
140	20
141	20
142	60
143	20
144	20
145	10
150	10
153	10
154	60
155	30
156	60
157	20
166	10
167	20
168	70
169	279
170	439
171	90
172	30
177	60
178	10
179	10
180	10
181	189
182	289
183	229
184	1099
185	159
186	10
193	10
194	10
195	20
196	449
197	129
198	1389
199	1289
200	199
201	10
