Mass Spectrum: 4-Chloro-3-nitrobenzaldehyde
Formula: C7 H4 Cl N O3
CAS: 16588-34-4
Molecular weight: 185
Origin: NIST Mass Spectrometry Data Center, 1992
m/z	RELATIVE INTENSITY
12	12
14	18
15	13
16	49
17	42
18	65
25	45
26	69
28	560
29	949
30	2133
32	64
35	58
36	115
37	527
38	437
39	247
43	10
44	31
46	162
47	65
48	70
49	453
50	1804
51	846
52	78
53	190
54	29
55	26
60	162
61	511
62	411
63	676
64	146
65	17
66	15
71	32
72	186
73	1233
74	3099
75	9999
76	924
77	71
84	585
85	744
86	342
87	366
88	55
89	35
90	61
91	41
92	43
96	24
97	58
99	1644
100	157
101	551
102	55
103	252
104	23
108	100
109	322
110	1438
111	2606
112	684
113	859
114	57
119	19
124	10
126	243
127	121
128	86
129	25
138	2013
139	1460
140	780
141	458
142	42
154	114
155	766
156	129
157	268
158	30
169	139
170	22
171	53
184	7472
185	8731
186	3196
187	2719
188	256
189	26
