Mass Spectrum: Benzo[b]thiophene, 7-ethyl-
Formula: C10 H10 S
CAS: 16587-42-1
Molecular weight: 162
Origin: U.S. BUREAU OF MINES, LARAMIE, WYO, USA
m/z	RELATIVE INTENSITY
13	5
14	19
15	167
16	4
26	37
27	127
28	31
29	9
32	8
33	4
34	6
37	33
38	77
39	317
40	18
41	26
42	4
43	18
44	7
45	451
46	11
47	23
49	27
50	330
51	509
52	95
53	65
54	16
55	17
56	9
57	72
58	180
59	50
60	25
61	135
62	349
63	801
64	95
65	140
66	53
67	226
68	25
69	716
70	86
71	103
72	29
73	90
74	334
75	297
76	143
77	471
78	78
79	256
80	115
81	329
82	171
83	50
84	41
85	53
86	104
87	142
88	59
89	552
90	135
91	263
92	28
93	194
94	45
95	89
96	20
97	93
98	62
99	35
100	13
101	80
102	300
103	318
104	31
105	25
106	43
107	23
108	100
109	32
110	18
111	9
113	53
114	73
115	562
116	84
117	128
118	14
119	34
120	30
121	548
122	54
123	27
126	42
127	83
128	374
129	52
130	6
132	58
133	99
134	643
135	224
136	44
137	11
145	181
146	39
147	9999
148	1058
149	479
150	45
151	3
157	5
158	101
159	101
160	114
161	317
162	4395
163	508
164	215
165	22
