Mass Spectrum: Benzo[b]thiophene, 3,6-dimethyl-
Formula: C10 H10 S
CAS: 16587-50-1
Molecular weight: 162
m/z	RELATIVE INTENSITY
14	500
15	1401
16	400
26	300
27	2202
28	4704
29	2502
38	400
39	2903
40	500
41	2302
42	601
43	1501
45	1601
46	100
50	400
51	1001
52	701
53	500
54	400
55	901
56	801
57	901
58	500
59	500
61	500
62	500
63	1001
64	300
65	400
67	1401
68	500
69	1301
70	300
71	500
74	400
75	701
77	801
78	300
79	1001
80	1702
81	1601
82	500
83	701
84	200
85	300
86	200
87	400
88	300
89	601
90	200
91	300
92	400
93	801
94	500
95	701
96	300
97	500
98	400
99	200
102	400
103	300
115	1201
116	500
117	300
119	901
121	500
125	200
126	200
127	400
128	801
129	500
131	100
134	500
145	200
147	2903
148	500
149	500
159	500
160	1301
161	8908
162	9999
163	1501
164	601
