Mass Spectrum: Benzo[b]thiophene, 2-propyl-
Formula: C11 H12 S
CAS: 16587-32-9
Molecular weight: 176
Origin: U.S. BUREAU OF MINES, LARAMIE, WYO, USA
m/z	RELATIVE INTENSITY
13	2
14	11
15	66
26	33
27	177
28	26
29	97
30	3
32	6
33	4
34	6
37	13
38	42
39	253
40	15
41	79
42	6
43	9
44	5
45	491
46	12
47	25
49	10
50	160
51	289
52	51
53	36
54	7
55	9
56	6
57	44
58	88
59	37
60	12
61	52
62	187
63	464
64	62
65	86
66	21
67	50
68	8
69	648
70	77
71	122
72	22
73	51
74	157
75	176
76	96
77	474
78	56
79	72
80	15
81	52
82	104
83	28
84	25
85	40
86	75
87	93
88	54
89	250
90	73
91	88
92	8
93	101
94	28
95	50
96	10
97	27
98	24
99	17
100	7
101	73
102	290
103	471
104	43
105	13
106	23
107	12
108	84
109	19
110	12
111	7
113	49
114	61
115	575
116	85
117	30
118	5
119	22
120	37
121	190
122	21
123	11
126	24
127	52
128	154
129	42
130	5
131	4
132	21
133	26
134	327
135	65
136	19
137	5
139	23
140	7
141	42
142	33
143	9
145	180
146	140
147	9999
148	1397
149	515
150	61
151	6
157	3
158	44
159	41
160	84
161	121
162	19
163	7
170	6
171	44
172	16
173	36
174	24
175	77
176	2788
177	353
178	137
179	15
