Mass Spectrum: Cyclohexanone, 4-(1,1-dimethylpropyl)-
Formula: C11 H20 O
CAS: 16587-71-6
Molecular weight: 168
Origin: NIST Mass Spectrometry Data Center, 1998.
m/z	RELATIVE INTENSITY
15	30
26	50
27	820
28	290
29	1060
30	30
31	10
37	10
38	40
39	1450
40	290
41	4060
42	690
43	7909
44	260
45	20
46	10
47	20
48	10
50	60
51	220
52	130
53	1070
54	480
55	5939
56	720
57	820
58	70
59	20
62	30
63	60
64	20
65	270
66	110
67	1160
68	490
69	2600
70	1770
71	8989
72	510
73	20
77	250
78	50
79	710
80	180
81	610
82	190
83	3600
84	250
85	30
91	120
92	20
93	470
94	60
95	590
96	220
97	2050
98	9999
99	1040
100	60
103	10
105	40
106	10
107	180
108	20
109	120
110	70
111	180
112	20
119	10
120	20
121	360
122	40
123	40
124	10
125	50
126	10
135	200
136	20
137	10
138	50
139	460
140	50
153	150
154	20
168	1330
169	200
170	20
