Mass Spectrum: 2H-Benzotriazole, 2-methyl-
Formula: C7 H7 N3
CAS: 16584-00-2
Molecular weight: 133
Origin: A. MARQUESTIAU
m/z	RELATIVE INTENSITY
26	100
27	220
28	330
37	210
38	250
39	750
43	450
50	200
51	410
52	280
62	200
63	1220
64	580
76	120
77	310
78	580
89	110
90	2830
91	220
105	410
133	9999
134	830
