Mass Spectrum: Benzo[b]thiophene, 2,7-dimethyl-
Formula: C10 H10 S
CAS: 16587-40-9
Molecular weight: 162
m/z	RELATIVE INTENSITY
12	10
13	10
14	10
15	260
16	10
25	10
26	40
27	200
28	30
29	10
32	10
33	10
34	10
37	40
38	110
39	571
40	40
41	50
42	10
43	10
44	10
45	460
46	10
47	30
55	20
56	10
57	80
58	210
59	420
60	40
61	170
62	460
63	971
64	180
65	310
66	70
67	581
68	60
69	881
70	160
71	200
72	40
73	70
74	320
75	340
76	190
77	611
78	180
79	280
80	1141
81	561
82	180
83	70
84	40
85	70
86	130
87	170
88	60
89	310
90	80
91	360
92	40
93	250
94	60
95	120
96	30
97	60
98	70
99	40
100	20
101	110
102	370
103	200
104	20
105	30
106	40
107	20
108	60
109	50
110	20
111	20
113	50
114	70
115	931
116	200
117	150
118	30
119	40
120	30
121	290
122	40
123	20
125	10
126	100
127	300
128	991
129	390
130	40
132	20
133	40
134	280
135	130
136	30
137	10
145	170
146	70
147	2642
148	310
149	130
150	20
158	100
159	200
160	470
161	8398
162	9999
163	1411
164	480
165	50
166	10
