Mass Spectrum: Hydrazine, 1,1-bis(2-methylpropyl)-
Formula: C8 H20 N2
CAS: 16596-38-6
Molecular weight: 144
Origin: ATLAS OF MASS SPECTRA OF ORGANIC COMPOUNDS, V. A. KOPTYUG, ED.
m/z	RELATIVE INTENSITY
27	620
28	190
29	1540
30	290
31	180
39	490
41	1790
42	580
43	580
44	440
45	9860
46	230
55	290
56	190
57	3710
58	320
59	150
69	100
73	130
84	180
85	120
86	120
87	130
101	9999
102	720
129	70
144	1410
145	200
