Mass Spectrum: N-Aminopyrrolidine
Formula: C4 H10 N2
CAS: 16596-41-1
Molecular weight: 86
Origin: G. LUNN,ENVIRON. CONTROL,NATL. CANCER INST.,FREDERICK,MD.,USA
m/z	RELATIVE INTENSITY
39	1664
40	482
41	3229
42	6795
43	3269
44	2826
45	583
46	25
49	15
50	90
51	90
52	85
53	145
54	176
55	165
56	503
57	603
58	4285
59	145
64	10
66	45
67	130
68	2540
69	241
70	226
71	25
72	10
83	20
84	241
85	9999
86	8163
87	503
