Mass Spectrum: N,N'-Di-p-tolyl-formamidine
Formula: C15 H16 N2
CAS: 16596-03-5
Molecular weight: 224
Origin: A. SAEED, DEP. CHEM., COLL. SCI., BASRAH UNIV., BASRAH, IRAQ
m/z	RELATIVE INTENSITY
39	600
51	500
65	1100
77	1000
79	600
91	2200
93	600
104	500
106	4800
107	9999
108	1000
111	1000
118	1100
135	1500
223	800
224	3400
225	500
