Mass Spectrum: 1,1'-Biphenyl, 2,4',5-trichloro-
Formula: C12 H7 Cl3
CAS: 16606-02-3
Molecular weight: 256
Origin: T.L.Hayes, Battelle Columbus Laboratories, Columbus, OH 43221
m/z	RELATIVE INTENSITY
35	209
36	719
37	277
38	524
39	179
47	77
48	21
49	287
50	1114
51	827
52	65
60	139
61	735
62	1279
63	697
64	30
68	7
72	54
73	847
74	2196
75	4159
76	563
77	128
78	12
79	115
80	442
81	76
84	234
85	317
86	695
87	554
88	70
89	4
92	1115
93	3377
94	1001
96	53
97	409
98	1102
99	1175
100	301
101	273
102	42
108	128
109	350
110	2196
111	1839
112	339
113	116
114	50
115	21
116	30
120	46
121	94
122	309
123	577
124	232
125	534
126	219
128	753
129	772
130	255
131	18
132	3
133	45
134	81
135	181
136	256
137	109
138	83
146	111
147	146
148	290
150	3800
151	3018
152	338
158	10
159	92
160	339
161	104
162	97
164	4
170	123
171	23
172	94
173	11
174	12
183	28
184	267
185	576
186	9999
187	1332
188	3105
189	364
190	13
194	28
196	92
197	22
214	4
218	5
219	5
220	469
221	178
222	306
223	92
224	43
230	9
232	9
256	8307
257	1059
258	7589
259	1027
260	2543
261	313
262	266
263	28
