Mass Spectrum: Tetraisopropyl methylenediphosphonate
Formula: C13 H30 O6 P2
CAS: 1660-95-3
Molecular weight: 344
Origin: Leung Pu, NIH, Bethesda, Maryland, U.S.
m/z	RELATIVE INTENSITY
41	3903
42	1822
43	7188
44	481
45	1218
47	308
48	64
49	86
50	32
51	52
52	8
53	34
54	14
55	172
56	72
57	111
59	993
60	34
61	199
62	38
63	40
65	973
66	9
67	41
68	37
69	79
70	26
71	39
72	19
73	24
74	32
77	31
78	455
79	713
81	262
82	96
83	104
84	29
85	23
86	27
87	43
91	80
92	48
93	22
94	27
95	106
96	1827
97	540
99	442
100	8
101	30
103	18
104	29
105	40
107	53
109	49
111	244
112	39
113	41
119	48
120	27
121	87
122	104
123	105
124	16
125	83
126	27
128	184
129	71
134	20
135	11
136	50
137	19
138	165
139	231
141	674
142	679
143	135
145	187
147	17
150	11
153	11
154	324
155	44
159	9696
160	1002
161	105
162	25
165	18
167	61
173	66
175	202
176	852
177	9999
179	220
180	115
181	32
183	40
185	1177
186	71
187	23
197	25
199	65
201	1893
203	3458
204	150
216	20
217	233
218	1118
219	4443
220	179
221	45
223	18
227	43
229	109
231	8
237	9
243	1039
245	1302
246	65
247	25
258	15
259	18
260	69
261	2750
262	185
263	42
285	413
287	734
288	24
289	28
303	1901
304	167
305	33
329	121
330	19
343	28
344	221
345	31
