Mass Spectrum: 1,2,3-Trimethyltetrahydro-1,3,2-diazaphosphole 2-oxide
Formula: C5 H13 N2 O P
CAS: 16606-18-1
Molecular weight: 148
Origin: R. HOURIET, INST. CHIM. PHYS., EPFL, LAUSANNE, SWITZ.
m/z	RELATIVE INTENSITY
27	150
28	1350
29	60
30	240
32	310
40	40
41	210
42	3140
43	400
44	1730
45	110
46	20
47	730
49	60
54	90
55	90
56	500
57	340
58	690
59	30
60	260
62	30
63	290
66	80
69	30
70	60
71	40
73	60
74	100
76	120
77	60
78	170
83	80
84	20
85	1010
86	80
90	9999
91	440
92	540
93	210
104	240
105	4390
106	650
107	100
117	40
118	30
119	260
120	200
121	240
131	80
132	30
133	3080
134	130
146	50
147	1200
148	5980
149	370
