Mass Spectrum: 3-Amino-4-pyrazolecarbonitrile
Formula: C4 H4 N4
CAS: 16617-46-2
Molecular weight: 108
Origin: NIST Mass Spectrometry Data Center
m/z	RELATIVE INTENSITY
12	20
13	20
16	30
17	60
18	10
24	30
25	70
26	130
27	350
28	1992
29	611
30	90
31	30
36	30
37	80
38	661
39	601
40	210
41	90
42	280
43	1261
44	30
50	140
51	871
52	2332
53	2412
54	1191
55	50
56	40
57	150
63	30
64	230
65	210
66	370
67	170
68	20
76	50
77	430
78	160
79	801
80	110
81	260
91	40
92	20
107	60
108	9999
109	591
