Mass Spectrum: 3-Phenyl-1-indanone
Formula: C15 H12 O
CAS: 16618-72-7
Molecular weight: 208
Origin: NIST Mass Spectrometry Data Center, 1994
m/z	RELATIVE INTENSITY
14	40
15	131
18	78
26	169
27	798
28	121
37	87
38	313
39	1433
40	122
41	64
42	141
43	56
50	2164
51	3249
52	580
53	185
55	27
61	108
62	544
63	1681
64	249
65	329
70	160
74	927
75	1221
76	3239
77	3690
78	874
79	54
82	150
83	316
85	77
86	264
87	415
88	665
89	2100
91	223
95	50
98	228
99	147
100	66
101	268
102	1756
103	1606
104	772
105	719
106	58
110	73
111	75
112	37
113	206
114	86
115	533
116	61
122	43
125	39
126	307
127	203
128	169
129	37
130	1601
131	1268
132	96
137	75
138	84
139	535
140	73
141	25
149	47
150	342
151	645
152	1346
153	313
154	28
161	23
162	85
163	460
164	23
165	4090
166	566
167	36
174	48
176	1057
177	886
178	4696
179	4633
180	1714
181	290
189	86
190	70
191	366
192	70
193	1761
194	265
205	55
207	4365
208	9999
209	1641
210	147
