Mass Spectrum: 2-Thiophenesulfonyl chloride
Formula: C4 H3 Cl O2 S2
CAS: 16629-19-9
Molecular weight: 182
Origin: RADIAN CORP
m/z	RELATIVE INTENSITY
25	30
26	200
27	170
29	30
31	50
33	60
35	220
36	70
37	590
38	1240
39	7140
40	150
41	110
42	20
44	170
45	3410
46	50
47	160
48	630
49	60
50	510
51	220
52	20
53	50
55	960
56	180
57	3420
58	430
59	410
60	60
61	40
62	150
63	390
64	460
65	70
66	20
68	100
69	720
70	190
71	890
72	50
73	110
75	110
76	70
77	120
78	10
79	40
80	90
81	1200
82	1100
83	3310
84	100
85	140
87	70
88	60
89	210
90	50
91	270
92	40
93	20
94	10
95	50
96	20
97	50
99	3890
100	230
101	220
103	110
118	260
119	40
120	90
136	30
147	9999
148	380
149	940
150	20
151	20
182	2880
183	70
184	1180
185	80
186	90
