Mass Spectrum: Ethene, (2-methoxyethoxy)-
Formula: C5 H10 O2
CAS: 1663-35-0
Molecular weight: 102
m/z	RELATIVE INTENSITY
14	260
15	2833
16	60
17	70
18	280
19	30
25	20
26	320
27	1842
28	1091
29	6486
30	260
31	5875
32	190
36	10
38	10
39	110
40	30
41	581
42	661
43	2893
44	480
45	9999
46	250
47	100
51	40
55	30
56	30
57	761
58	9459
59	7337
60	310
61	40
69	10
70	80
71	20
72	70
73	230
74	60
75	20
76	20
77	70
78	20
85	10
86	20
87	991
88	50
101	20
102	681
103	110
104	20
