Mass Spectrum: Benzaldehyde, 5-bromo-2-hydroxy-3-nitro-
Formula: C7 H4 Br N O4
CAS: 16634-88-1
Molecular weight: 245
Origin: Japan AIST/NIMC Database- Spectrum MS-NW-3234
m/z	RELATIVE INTENSITY
14	10
17	10
18	30
24	10
25	60
26	90
27	109
28	259
29	559
30	519
31	40
32	20
36	70
37	459
38	549
39	419
40	30
41	30
42	99
43	20
44	30
45	40
46	139
48	30
49	159
50	519
51	589
52	279
53	1259
54	80
55	359
56	20
57	10
60	149
61	909
62	1809
63	3329
64	1319
65	129
66	189
67	60
68	30
69	80
70	50
71	10
72	30
73	189
74	799
75	249
76	90
77	119
78	439
79	309
80	90
81	50
82	30
83	10
85	60
86	50
87	20
88	20
89	50
90	369
91	1869
92	1709
93	129
94	20
95	20
101	10
102	10
103	10
104	30
105	20
106	30
107	129
108	119
109	20
115	10
116	50
117	389
118	70
119	449
120	249
121	40
122	10
128	30
129	40
130	50
131	189
132	30
133	169
134	20
135	40
136	20
137	159
138	10
139	10
140	20
141	139
142	50
143	1409
144	109
145	1269
146	80
147	10
148	40
149	20
152	10
153	399
154	40
155	379
156	30
157	20
158	30
159	229
160	40
161	219
162	10
164	10
165	109
166	20
167	40
169	109
170	369
171	679
172	399
173	599
174	40
181	279
182	30
183	279
184	30
185	40
186	60
187	549
188	99
189	499
190	50
191	10
192	10
194	10
197	80
198	719
199	819
200	739
201	719
202	70
203	10
212	10
213	20
214	10
215	689
216	70
217	769
218	70
219	90
223	10
227	659
228	70
229	799
230	80
231	179
232	20
243	30
244	1769
245	9999
246	2519
247	9869
248	849
249	129
250	10
