Mass Spectrum: 4-Chlorophenylselenol
Formula: C6 H5 Cl Se
CAS: 16645-10-6
Molecular weight: 192
Origin: NIST Mass Spectrometry Data Center, 1994
m/z	RELATIVE INTENSITY
35	167
36	263
37	1129
47	143
48	119
49	819
50	3739
51	814
55	160
56	70
60	202
61	390
62	202
63	132
72	196
73	967
74	2767
75	5135
76	1060
77	162
78	103
79	288
80	83
81	374
82	99
83	83
84	312
85	480
86	122
87	133
93	64
95	221
96	309
97	85
109	88
111	6860
112	486
113	2245
114	151
128	65
130	79
155	133
157	109
190	7383
191	653
192	9999
193	623
194	2364
195	146
