Mass Spectrum: 3,5-Heptadien-2-one, 6-methyl-, (E)-
Formula: C8 H12 O
CAS: 16647-04-4
Molecular weight: 124
Origin: STC 0001
m/z	RELATIVE INTENSITY
27	1581
29	300
38	480
39	2963
40	10
41	3503
42	320
43	5575
44	410
50	360
51	901
52	450
53	2732
54	310
55	951
61	140
62	150
63	450
65	701
66	530
67	400
77	821
78	200
79	2402
80	480
81	5565
82	641
91	520
94	150
95	180
107	200
109	9999
110	931
122	220
123	160
124	1982
125	200
