Mass Spectrum: N,N-Diethyl-N'-phenylethylenediamine
Formula: C12 H20 N2
CAS: 1665-59-4
Molecular weight: 192
Origin: NIST Mass Spectrometry Data Center, 1994
m/z	RELATIVE INTENSITY
15	162
17	9
26	46
27	501
28	730
29	961
30	2159
37	10
38	52
39	246
40	51
41	144
42	671
43	187
44	218
50	108
51	497
52	100
53	35
54	75
55	39
56	404
57	162
58	1490
59	5
60	4
62	15
63	71
64	51
65	214
66	50
67	12
68	12
69	8
70	89
71	70
72	232
73	17
75	21
77	915
78	175
79	164
80	21
84	67
86	9999
87	597
89	37
90	18
91	142
92	63
93	48
94	11
98	8
99	7
103	28
104	108
106	601
107	59
113	8
117	41
118	130
119	46
120	126
121	15
134	6
145	7
147	11
175	32
176	6
192	273
193	40
194	4
