Mass Spectrum: 2-(Dimethylamino)ethanol, TMS derivative
Formula: C7 H19 N O Si
CAS: 16654-64-1
Molecular weight: 161
Origin: K. G. Karaisz et al., J. Microcolumn Separations, 13(1), 1-7, 2001
m/z	RELATIVE INTENSITY
27	110
28	210
29	210
30	310
42	1011
43	540
44	290
45	651
47	190
55	90
56	270
58	9999
59	821
60	90
61	110
70	130
72	981
73	631
74	90
75	90
88	90
101	90
102	180
146	931
147	130
161	90
