Mass Spectrum: phenoxyethanol, TMS derivative
Formula: C11 H18 O2 Si
CAS: 16654-47-0
Molecular weight: 210
Origin: NIST Mass Spectrometry Data Center
m/z	RELATIVE INTENSITY
15	10
26	10
27	40
28	20
29	60
30	10
31	30
37	10
38	40
39	330
40	30
41	30
42	40
43	410
44	160
45	881
46	60
47	270
48	10
49	10
50	100
51	440
52	40
53	50
54	10
55	70
56	20
57	60
58	210
59	540
60	80
61	210
62	50
63	130
64	60
65	621
66	120
67	20
68	30
69	20
70	30
71	50
72	180
73	6766
74	661
75	1201
77	1021
78	110
79	80
80	10
81	30
82	50
83	30
85	30
86	10
87	130
88	40
89	50
90	20
91	631
92	80
93	80
94	190
95	340
96	40
97	180
99	20
101	460
102	70
103	751
104	70
105	80
106	10
107	80
108	20
109	60
110	10
111	10
116	470
117	1431
118	170
119	120
120	40
121	170
122	20
123	90
124	10
125	10
131	20
132	10
133	30
134	30
135	380
136	60
137	290
138	40
139	20
147	30
148	20
149	120
151	9999
152	1431
153	450
154	40
161	30
163	10
165	40
166	891
167	1081
168	180
169	50
170	10
177	30
178	10
179	10
195	1131
196	180
197	50
210	1121
211	190
212	60
213	10
