Mass Spectrum: 2-Ethoxyethanol, TMS derivative
Formula: C7 H18 O2 Si
CAS: 16654-45-8
Molecular weight: 162
Origin: NIST Mass Spectrometry Data Center, 2007
m/z	RELATIVE INTENSITY
14	10
15	140
19	20
26	60
27	460
28	200
29	1081
30	70
31	771
33	10
39	20
41	70
42	110
43	911
44	350
45	1591
46	110
47	440
48	20
49	20
50	10
51	130
53	40
54	10
55	100
56	30
57	110
58	581
59	1722
60	200
61	681
62	50
63	50
66	120
69	10
70	40
71	90
72	280
73	9068
74	901
75	8368
76	621
77	500
78	20
79	10
85	20
86	20
87	170
88	280
89	240
90	170
91	30
92	10
99	20
101	581
103	9999
104	961
105	400
106	20
116	20
117	350
118	190
119	340
120	40
121	10
131	10
147	5965
148	721
149	260
150	20
