Mass Spectrum: Gallopamil
Formula: C28 H40 N2 O5
CAS: 16662-47-8
Molecular weight: 484
Origin: NIST Mass Spectrometry Data Center, 1998.
m/z	RELATIVE INTENSITY
15	10
27	30
29	10
30	10
38	10
39	40
41	170
42	440
43	900
44	440
45	40
50	10
51	30
52	20
53	40
54	10
55	50
56	30
57	530
58	2730
59	110
63	20
64	10
65	90
66	30
67	30
68	20
69	20
70	250
71	320
72	20
74	10
75	30
76	20
77	150
78	110
79	120
80	60
81	30
82	50
83	40
84	560
85	50
88	10
89	50
90	100
91	220
92	40
93	40
94	50
95	60
96	40
97	10
98	10
101	10
102	40
103	120
104	70
105	170
106	130
107	290
108	100
109	50
110	30
114	10
115	50
116	60
117	50
118	80
119	80
120	80
121	110
122	130
123	40
124	20
125	20
127	20
128	30
129	30
130	60
131	50
132	40
133	80
134	100
135	130
136	50
137	60
138	90
139	20
140	10
141	10
142	20
143	20
144	50
145	360
146	100
147	40
148	40
149	80
150	200
151	770
152	130
153	110
154	120
155	10
156	20
157	20
158	40
159	40
160	40
161	90
162	40
163	40
164	100
165	600
166	150
167	240
168	350
169	170
170	30
171	20
172	40
173	30
174	80
175	50
176	130
177	50
178	40
179	40
180	50
181	490
182	70
183	10
184	20
185	20
186	30
187	20
188	30
189	60
190	70
191	30
192	30
193	50
194	50
195	150
196	20
197	10
199	10
200	40
201	40
202	70
203	30
204	110
205	50
206	80
207	130
208	110
209	30
210	10
213	10
214	20
215	40
216	130
217	120
218	90
219	80
220	50
221	40
222	20
223	10
228	10
229	20
230	10
231	10
232	80
233	70
234	170
235	30
236	10
241	10
242	10
243	10
244	30
245	10
246	20
247	40
248	70
249	30
258	10
259	30
260	30
263	10
264	10
273	10
274	10
275	150
276	30
277	10
288	10
289	20
290	680
291	130
292	10
301	20
303	10
317	20
318	10
319	20
320	10
331	10
333	9999
334	2160
335	280
336	20
467	10
469	10
482	20
483	20
