Mass Spectrum: Ethanone, 1-(2,4,6-trimethylphenyl)-
Formula: C11 H14 O
CAS: 1667-01-2
Molecular weight: 162
Origin: NIST Mass Spectrometry Data Center, 1990.
m/z	RELATIVE INTENSITY
15	170
27	275
28	10
29	63
38	103
39	862
40	136
41	599
42	101
43	859
50	335
51	1009
52	319
53	392
55	58
58	147
61	40
62	192
63	590
64	188
65	862
66	248
67	71
74	156
75	189
76	169
77	1694
78	603
79	436
80	118
86	54
87	69
88	32
89	249
90	32
91	2594
92	223
93	195
101	44
102	254
103	734
104	485
105	314
115	1025
116	252
117	968
118	44
119	6123
120	669
127	57
128	129
129	71
131	60
132	37
133	121
145	53
147	9999
148	1146
149	73
162	2883
163	353
164	35
