Mass Spectrum: Benzene, 2-chloro-1,3,5-trimethyl-
Formula: C9 H11 Cl
CAS: 1667-04-5
Molecular weight: 154
Origin: Japan AIST/NIMC Database- Spectrum MS-NW-4715
m/z	RELATIVE INTENSITY
15	40
26	30
27	289
28	20
29	20
36	30
37	40
38	90
39	629
40	70
41	419
42	20
43	50
44	20
45	20
49	40
50	229
51	619
52	169
53	249
54	20
55	30
56	10
57	239
58	269
59	30
60	10
61	60
62	139
63	359
64	70
65	419
66	50
67	30
69	10
70	10
71	20
72	10
73	80
74	119
75	209
76	209
77	979
78	309
79	199
80	20
84	10
85	40
86	40
87	70
88	20
89	189
90	60
91	1369
92	159
93	109
94	10
95	10
97	20
98	30
99	50
100	10
101	90
102	239
103	919
104	359
105	279
106	20
110	10
111	20
112	20
113	30
114	30
115	869
116	259
117	1109
118	409
119	9999
120	1139
121	70
125	80
126	10
127	30
136	10
137	20
138	50
139	1339
140	129
141	449
142	40
151	20
152	30
153	979
154	5359
155	849
156	1759
157	189
158	10
