Mass Spectrum: 2H-Tetrazole, 2-methyl-
Formula: C2 H4 N4
CAS: 16681-78-0
Molecular weight: 84
m/z	RELATIVE INTENSITY
26	200
27	1702
28	9999
29	601
41	400
42	100
43	300
53	200
55	200
56	4804
57	100
84	200
