Mass Spectrum: Doxepin
Formula: C19 H21 N O
CAS: 1668-19-5
Molecular weight: 279
Origin: NIST Mass Spectrometry Data Center, 1998.
m/z	RELATIVE INTENSITY
15	10
27	10
28	10
29	40
30	150
39	50
40	10
41	30
42	300
43	110
44	30
50	20
51	60
52	10
53	20
55	40
56	80
57	90
58	9999
59	460
60	10
62	10
63	70
64	10
65	40
70	10
71	20
74	20
75	30
76	40
77	60
78	20
79	10
82	20
84	20
86	10
87	20
88	20
89	60
90	10
91	50
92	10
94	10
95	20
98	10
99	10
100	10
101	30
102	30
103	20
105	10
107	20
109	10
113	20
114	10
115	170
116	20
117	10
126	30
127	40
128	100
129	20
131	10
137	10
138	10
139	70
140	10
141	20
142	10
150	30
151	60
152	150
153	40
154	10
162	10
163	60
164	60
165	290
166	60
167	10
168	10
174	10
175	10
176	80
177	50
178	250
179	60
180	10
181	10
184	10
187	20
188	20
189	180
190	80
191	130
192	40
193	30
194	20
195	20
200	20
201	30
202	170
203	80
204	20
205	70
206	20
207	10
213	10
215	30
216	10
217	10
218	60
219	120
220	40
221	30
222	10
231	10
233	10
234	10
277	10
279	10
