Mass Spectrum: 5-Carboxy-1,2,3-triazole
Formula: C3 H3 N3 O2
CAS: 16681-70-2
Molecular weight: 113
Origin: James Little,Eastman Chem.Co.,Kingsport,TN
m/z	RELATIVE INTENSITY
27	641
28	2943
29	2242
38	1201
39	1541
40	3713
41	2232
42	4724
45	2923
52	110
53	240
54	340
55	80
57	100
67	330
68	1722
69	6846
70	300
80	90
82	80
84	130
85	300
86	100
96	8638
97	430
113	9999
114	661
115	80
