Mass Spectrum: 1H-Tetrazole, 1-methyl-
Formula: C2 H4 N4
CAS: 16681-77-9
Molecular weight: 84
m/z	RELATIVE INTENSITY
26	500
27	2002
28	8708
29	3003
38	100
39	100
40	200
41	801
42	1702
43	1802
53	400
54	200
55	9999
56	901
57	100
84	3203
85	500
