Mass Spectrum: 4-Bromo-2,5-dichlorothiophene-3-sulphonyl chloride
Formula: C4 Br Cl3 O2 S2
CAS: 166964-36-9
Molecular weight: 328
Origin: NIST Mass Spectrometry Data Center, 1994
m/z	RELATIVE INTENSITY
12	296
16	99
32	385
35	840
36	1206
37	1704
44	1213
47	962
48	4308
49	1022
50	279
56	569
57	405
58	266
64	3864
68	1040
69	833
71	1486
72	1105
73	213
79	3418
80	1200
81	3150
83	439
91	592
93	290
103	898
105	444
106	369
107	1658
109	1164
111	315
115	2992
116	1896
117	1376
118	686
141	242
148	271
150	2646
151	4686
152	1992
153	3210
154	510
155	629
183	493
185	1069
187	820
189	388
195	635
197	898
227	317
229	1998
230	6601
231	2896
232	9999
233	1981
234	4611
235	612
236	987
245	302
247	579
249	321
262	307
264	1105
266	1278
268	740
280	338
293	2632
295	4136
296	434
297	2418
299	512
310	795
312	651
314	341
328	1499
330	2935
332	2042
334	793
