Mass Spectrum: 3-Octen-2-one
Formula: C8 H14 O
CAS: 1669-44-9
Molecular weight: 126
Origin: Japan AIST/NIMC Database- Spectrum MS-IW-6970
m/z	RELATIVE INTENSITY
14	20
15	309
18	20
26	99
27	1309
28	369
29	719
30	10
31	20
32	30
37	20
38	90
39	1209
40	239
41	3029
42	329
43	7669
44	209
45	60
47	20
50	90
51	169
52	80
53	489
54	199
55	9999
56	599
57	129
58	179
59	149
60	10
62	20
63	40
65	80
66	50
67	349
68	989
69	1409
70	99
71	1429
72	199
73	10
74	10
77	119
78	20
79	199
80	20
81	219
82	139
83	989
84	349
85	159
86	10
91	50
93	139
94	10
95	80
96	10
97	2539
98	209
99	20
107	10
108	289
109	40
110	10
111	6439
112	529
113	30
122	10
124	10
125	20
126	2189
127	309
128	20
