Mass Spectrum: 2-Propanone, 1-(3,5,5-trimethyl-2-cyclohexen-1-ylidene)-, (Z)-
Formula: C12 H18 O
CAS: 16695-73-1
Molecular weight: 178
Origin: J.CASSAN FACULTY OF SCIENCE, UNIV. OF NICE, NICE, FRANCE
m/z	RELATIVE INTENSITY
39	1840
40	530
41	2110
42	260
43	5790
44	260
45	530
50	240
51	820
52	340
53	920
55	760
57	820
58	160
63	290
65	710
67	370
69	210
77	1580
78	530
79	1050
80	160
81	180
91	2110
92	400
93	1320
94	180
103	390
104	180
105	2370
106	260
107	1450
108	220
115	500
116	160
117	870
119	950
120	420
121	1050
122	1320
123	290
129	500
130	1580
131	300
133	180
135	1030
136	210
143	340
144	160
145	6840
146	900
147	190
163	9999
164	1320
176	30
177	80
178	4470
179	790
