Mass Spectrum: Carbofuran 3-keto
Formula: C12 H13 N O4
CAS: 16709-30-1
Molecular weight: 235
Origin: S.M. Lee, CA Export Lab. Services, CA, USA
m/z	RELATIVE INTENSITY
51	400
52	290
53	330
54	60
55	240
56	230
57	500
58	971
59	70
61	30
62	90
63	420
64	350
65	190
66	60
67	40
68	20
69	190
70	60
74	50
75	80
76	40
77	350
78	110
79	240
80	200
81	530
82	80
89	30
91	290
92	821
93	160
94	40
103	120
104	90
105	90
107	450
108	230
109	280
110	2352
111	150
119	110
120	611
121	280
122	140
123	200
124	20
131	170
132	350
133	210
134	90
135	1992
136	581
137	3723
138	370
139	50
147	30
148	40
149	340
150	751
151	90
159	20
160	561
161	561
163	3653
164	370
165	40
177	4004
178	9999
179	1091
180	130
235	220
236	30
