Mass Spectrum: Ethyl N,N-dimethyloxamate
Formula: C6 H11 N O3
CAS: 16703-52-9
Molecular weight: 145
Origin: NIST Mass Spectrometry Data Center, 1994
m/z	RELATIVE INTENSITY
4	2
14	67
15	545
16	17
17	2
18	453
26	111
27	580
28	489
29	1003
30	98
31	16
32	4
39	16
40	67
41	128
42	981
43	350
44	435
45	66
56	388
57	26
58	256
59	11
60	9
72	9999
73	602
74	115
86	12
88	99
89	65
116	716
117	39
145	930
146	73
147	10
