Mass Spectrum: 1,1':3',1'':3'',1''':3''',1''''-Quinquephenyl
Formula: C30 H22
CAS: 16716-13-5
Molecular weight: 382
Origin: H. Fales, LC, NHLBI, NIH, Bethesda, MD 20892
m/z	RELATIVE INTENSITY
41	142
42	28
43	136
44	49
45	54
49	20
50	247
51	894
52	212
53	80
55	96
56	24
57	73
60	20
61	19
62	74
63	365
64	36
65	168
66	15
67	23
69	62
70	20
71	29
73	25
74	171
75	261
76	259
77	1485
78	305
79	32
81	20
82	25
83	35
84	22
85	19
86	65
87	128
88	85
89	168
91	360
92	48
93	17
94	23
95	20
97	22
98	67
99	74
100	66
101	144
102	287
103	154
104	15
105	36
107	40
109	24
110	39
111	101
112	74
113	153
114	69
115	363
116	53
117	48
118	39
120	39
122	38
123	112
124	207
125	248
126	264
127	280
128	361
129	88
130	24
131	20
132	121
134	19
135	97
136	376
137	919
138	997
139	288
140	38
141	61
142	37
144	92
145	129
146	20
148	16
149	79
150	339
151	624
152	1372
153	404
154	100
155	67
157	122
158	52
161	25
162	89
163	238
164	22
165	332
166	48
167	54
168	34
169	91
170	223
174	71
175	211
176	293
177	87
178	125
179	33
180	41
181	48
182	131
183	240
184	25
186	16
187	124
188	149
189	267
190	170
191	213
198	19
199	18
200	133
201	106
202	408
203	166
204	38
211	20
213	88
214	21
215	132
216	25
222	20
223	17
224	97
225	82
226	601
227	309
228	491
229	197
230	51
235	15
237	37
238	17
239	111
240	19
241	23
246	18
248	35
249	22
250	102
251	27
252	155
253	40
254	23
261	22
262	14
263	110
264	31
265	95
266	18
267	17
272	65
273	44
274	294
275	151
276	537
277	421
278	104
279	30
280	19
282	56
283	16
287	48
288	21
289	368
290	194
291	81
298	24
299	16
300	173
301	107
302	324
303	206
304	166
305	54
313	30
314	15
315	18
324	21
326	42
327	20
328	16
337	30
338	14
339	74
340	21
341	22
350	71
351	38
352	58
353	34
354	25
363	96
364	46
365	228
366	92
367	60
368	19
374	24
375	19
376	57
377	48
378	69
379	63
380	68
381	71
382	9999
383	3057
384	552
385	54
