Mass Spectrum: Heptanophenone
Formula: C13 H18 O
CAS: 1671-75-6
Molecular weight: 190
Origin: Japan AIST/NIMC Database- Spectrum MS-NW-2734
m/z	RELATIVE INTENSITY
15	10
18	10
26	20
27	319
28	109
29	259
32	10
38	20
39	199
40	20
41	439
42	50
43	299
44	10
50	139
51	629
52	50
53	40
54	10
55	189
56	30
57	30
58	10
62	10
63	20
65	40
67	10
69	30
74	30
75	30
76	119
77	3349
78	609
79	60
85	10
89	20
91	139
92	60
102	10
103	30
104	40
105	9999
106	769
107	70
115	40
116	10
117	20
119	10
120	7509
121	699
122	40
128	10
129	20
131	10
133	799
134	99
143	10
145	10
147	70
148	20
161	10
189	30
190	589
191	90
