Mass Spectrum: 2-Propanone, diethylhydrazone
Formula: C7 H16 N2
CAS: 16713-36-3
Molecular weight: 128
Origin: ATLAS OF MASS SPECTRA OF ORGANIC COMPOUNDS, V. A. KOPTYUG, ED.
m/z	RELATIVE INTENSITY
27	1470
28	1470
29	1690
30	440
39	500
40	250
41	1120
42	1890
43	1050
44	990
54	110
55	100
56	7690
57	420
58	1220
70	300
71	270
72	360
85	610
97	80
99	930
100	90
112	100
113	9999
114	1000
127	320
128	3370
129	340
