Mass Spectrum: 1,1':3',1'':3'',1''':3''',1'''':3'''',1''''':3''''',1'''''':3'''''',1'''''''-Octiphenyl
Formula: C48 H34
CAS: 16716-11-3
Molecular weight: 610
Origin: SHELL OIL CO., HOUSTON, TEXAS
m/z	RELATIVE INTENSITY
37	290
38	370
39	1010
40	240
41	1180
42	280
43	1040
44	130
45	110
48	40
49	180
50	900
51	970
52	810
53	190
54	90
55	870
56	360
57	810
58	60
59	50
60	40
61	60
62	70
63	260
64	40
65	60
66	40
67	270
68	120
69	490
70	210
71	340
72	80
73	120
74	270
75	150
76	270
77	840
78	3540
79	420
80	90
81	360
82	190
83	380
84	120
85	230
86	70
87	70
88	50
89	90
90	50
91	400
92	110
93	140
94	90
95	320
96	180
97	330
98	90
99	70
100	80
101	110
102	90
103	130
104	160
105	250
106	90
107	110
108	70
109	190
110	90
111	190
112	80
113	90
114	70
115	250
116	140
117	170
118	90
119	280
120	90
121	90
122	60
123	130
124	60
125	110
126	90
127	120
128	170
129	150
130	90
131	120
132	90
133	160
134	60
135	90
136	50
137	80
138	60
139	90
140	50
141	150
142	90
143	60
144	60
145	120
146	60
147	60
148	60
149	70
150	90
151	170
152	320
153	170
154	90
155	70
156	80
157	70
158	70
159	70
160	50
161	50
162	50
163	80
164	60
165	210
166	90
167	80
168	60
169	80
170	60
171	50
172	30
173	60
174	40
175	70
176	90
177	90
178	120
179	70
180	60
181	70
182	60
183	60
184	40
185	40
186	70
187	70
188	60
189	140
190	90
191	150
192	80
193	70
194	60
195	60
196	50
197	70
198	60
199	50
200	60
201	60
202	150
203	90
204	90
205	60
206	60
207	50
208	50
209	50
210	60
211	60
212	50
213	60
214	90
215	130
216	60
217	60
218	60
219	70
220	60
221	60
222	40
223	50
224	90
225	110
226	330
227	190
228	480
229	570
230	90
231	50
232	40
233	70
234	70
235	60
236	70
237	60
238	90
239	160
240	90
241	130
242	130
243	60
244	60
245	50
246	40
247	60
248	50
249	60
250	80
251	70
252	140
253	110
254	60
255	50
256	60
257	60
258	60
259	50
260	70
261	50
262	30
263	60
264	60
265	80
266	50
267	50
268	30
269	40
270	40
271	40
272	40
273	40
274	30
275	30
276	110
277	50
278	50
279	30
280	40
281	30
282	40
283	20
284	60
285	40
286	40
287	60
288	40
289	180
290	90
291	40
292	40
293	50
294	60
295	30
296	40
297	30
298	40
299	20
300	130
301	80
302	200
303	80
304	130
305	3180
306	680
307	90
308	40
309	40
310	30
311	40
312	40
313	70
314	50
315	60
316	50
317	80
318	50
319	130
320	110
321	40
322	80
323	60
324	60
325	40
326	70
327	70
328	70
329	60
330	150
331	60
332	90
333	60
334	40
335	30
336	60
337	50
338	50
339	60
340	40
341	60
342	30
343	30
344	20
345	20
346	30
347	20
348	30
349	50
350	60
351	50
352	50
353	30
354	30
355	30
356	50
357	20
358	30
359	30
360	30
361	30
362	90
363	80
364	60
365	60
366	40
367	30
368	20
369	10
370	20
371	20
372	20
373	20
374	70
375	50
376	90
377	70
378	70
379	70
380	60
381	30
382	270
383	110
384	40
385	30
386	30
387	30
388	80
389	50
390	60
391	40
392	30
393	30
394	30
395	30
396	40
397	30
398	40
399	40
400	40
401	40
402	40
403	30
404	30
405	30
406	30
407	30
408	30
409	30
410	30
411	30
412	20
413	30
414	30
415	50
416	60
417	30
418	40
419	30
420	30
437	30
438	30
439	50
440	40
441	80
442	50
443	50
452	50
453	50
454	50
455	70
456	70
457	60
458	1900
459	810
460	180
461	40
462	40
463	30
464	120
465	40
466	30
467	30
468	30
469	30
470	40
471	70
472	40
473	40
484	40
485	30
486	50
487	30
488	20
489	20
514	70
515	40
516	30
517	40
518	30
519	20
520	30
521	10
534	70
535	40
536	30
590	50
591	70
592	70
593	70
594	60
595	40
610	9999
611	5770
612	1800
613	40
