Mass Spectrum: 2-Butanone, ethylhydrazone
Formula: C6 H14 N2
CAS: 16713-35-2
Molecular weight: 114
Origin: ATLAS OF MASS SPECTRA OF ORGANIC COMPOUNDS, V. A. KOPTYUG, ED.
m/z	RELATIVE INTENSITY
27	1450
29	2000
30	1500
31	170
39	550
40	170
41	1210
42	9999
43	920
44	3850
45	340
46	100
53	130
54	260
55	470
56	840
57	420
58	250
68	840
69	330
70	2630
71	710
85	660
86	180
99	5000
100	400
113	270
114	5000
115	530
