Mass Spectrum: 1-Pentanone, 1-(4-methylphenyl)-
Formula: C12 H16 O
CAS: 1671-77-8
Molecular weight: 176
Origin: Dr. Jiri Zamecnik, DCIEM, North York, Canada, GP Library
m/z	RELATIVE INTENSITY
39	290
41	220
43	30
44	90
50	30
51	80
52	20
53	20
55	130
62	20
63	140
64	40
65	700
66	30
73	30
77	70
89	160
90	130
91	2010
92	240
105	30
115	20
118	30
119	9999
120	460
121	20
131	30
133	20
134	2130
135	220
147	110
161	100
176	340
177	50
