Mass Spectrum: 2-Cyclohexen-1-ol, 3-methyl-6-(1-methylethyl)-, trans-
Formula: C10 H18 O
CAS: 16721-39-4
Molecular weight: 154
Origin: N.W. Davies, Centr. Sci. Lab., Univ. Tasmania, Hobart, Australia
m/z	RELATIVE INTENSITY
27	1370
29	1020
31	160
39	1450
41	2730
42	250
43	2510
51	310
52	150
53	660
54	130
55	1790
56	860
57	390
59	300
65	350
66	110
67	560
68	130
69	970
70	190
71	870
77	1210
78	250
79	830
80	170
81	610
82	260
83	2630
84	9999
85	620
91	960
92	450
93	2490
94	390
95	460
96	110
97	470
99	110
105	190
107	130
109	130
111	940
112	500
121	590
136	510
139	2430
140	230
154	620
