Mass Spectrum: 2-Cyclohexen-1-ol, 3-methyl-6-(1-methylethyl)-, cis-
Formula: C10 H18 O
CAS: 16721-38-3
Molecular weight: 154
Origin: N.W. Davies, Centr. Sci. Lab., Univ. Tasmania, Hobart, Australia
m/z	RELATIVE INTENSITY
27	1320
29	1050
31	220
39	1400
41	2720
42	280
43	2750
45	140
51	290
52	110
53	670
54	160
55	1800
56	800
57	330
59	820
65	360
66	130
67	680
68	410
69	1170
70	250
71	1020
77	1020
78	220
79	860
80	190
81	860
82	270
83	2510
84	9999
85	600
91	860
92	420
93	2410
94	510
95	660
96	190
97	480
105	100
107	100
109	150
110	210
111	860
112	530
119	100
121	470
136	450
137	100
139	2290
140	210
154	450
