Mass Spectrum: Naphthalene, 1-(2-methylpropyl)-
Formula: C14 H16
CAS: 16727-91-6
Molecular weight: 184
m/z	RELATIVE INTENSITY
41	209
43	93
51	70
55	140
63	233
65	70
75	70
76	256
78	116
82	140
83	140
89	93
91	93
115	1000
116	93
126	140
127	163
128	326
129	163
139	442
140	233
141	9999
142	1884
143	256
151	93
152	256
153	256
154	140
155	163
165	256
166	186
167	186
184	2814
185	512
