Mass Spectrum: Methylamine, N,N-bis(N.-hexadecyl)-
Formula: C33 H69 N
CAS: 16724-61-1
Molecular weight: 479
Origin: Japan AIST/NIMC Database- Spectrum MS-IW-7584
m/z	RELATIVE INTENSITY
14	10
15	289
26	20
27	199
28	349
29	479
30	129
31	20
32	99
38	10
39	219
40	40
41	1219
42	639
43	2269
44	3779
45	189
46	60
47	10
50	30
51	60
52	40
53	99
54	169
55	1509
56	619
57	3059
58	6999
59	289
63	20
65	80
66	30
67	319
68	239
69	1059
70	1099
71	1169
72	169
73	20
74	10
75	10
76	20
77	129
78	249
79	179
80	129
81	299
82	349
83	719
84	849
85	669
86	90
89	20
91	759
92	929
93	199
94	969
95	189
96	959
97	549
98	369
99	169
100	90
101	10
102	20
103	20
104	269
105	239
106	99
107	80
108	70
109	80
110	179
111	229
112	229
113	99
114	60
115	109
116	50
117	279
118	90
119	70
120	80
121	40
122	50
123	50
124	70
125	99
126	169
127	80
128	119
129	159
130	90
131	90
132	50
133	99
134	70
135	559
136	40
137	519
138	50
139	40
140	149
141	90
142	50
143	70
144	40
145	40
146	30
147	30
148	30
149	119
150	20
151	109
152	60
153	40
154	129
155	80
156	40
157	20
158	20
159	20
160	20
161	10
162	10
163	30
164	10
165	60
166	60
167	50
168	109
169	50
170	40
171	10
172	10
174	30
175	10
176	20
177	10
178	30
179	60
180	70
181	30
182	119
183	40
184	30
185	10
189	10
190	20
191	30
192	20
193	20
194	50
195	10
196	90
197	20
198	20
200	10
202	20
203	20
204	20
205	20
206	30
207	10
208	60
209	10
210	109
211	20
212	99
213	20
214	30
215	20
216	60
217	20
218	209
219	40
220	30
221	10
222	50
223	10
224	80
225	40
226	30
230	10
232	10
234	10
236	30
238	60
239	10
240	90
241	10
242	10
244	10
246	30
247	10
248	20
250	40
251	10
252	239
253	60
254	329
255	169
256	60
257	10
258	90
259	20
260	99
261	30
262	60
263	20
264	369
265	80
266	2109
267	489
268	9999
269	1989
270	209
271	10
272	10
274	20
275	10
276	30
278	30
279	10
280	60
281	30
282	50
283	10
284	10
286	10
288	20
289	10
290	30
291	10
292	139
293	30
294	1549
295	349
296	99
297	10
302	20
303	10
304	30
305	20
306	30
307	10
308	40
309	10
310	20
316	20
318	50
319	20
320	489
321	119
322	40
323	10
324	20
330	10
332	10
333	10
334	20
335	10
336	30
338	20
342	10
344	10
346	119
347	30
348	20
350	50
351	10
352	20
358	10
360	10
362	10
364	40
366	10
372	20
376	20
378	30
379	10
380	20
384	10
386	10
387	10
388	10
389	20
390	20
391	10
392	30
393	10
394	10
398	10
404	10
406	20
408	20
418	10
420	20
422	20
432	10
434	20
435	10
436	10
442	10
448	10
450	20
461	10
462	20
463	20
464	20
477	99
478	249
479	109
480	30
