Mass Spectrum: Cholest-4-ene
Formula: C27 H46
CAS: 16732-86-8
Molecular weight: 370
Origin: CARL DJERASSI DEPT OF CHEM STANFORD UNIV STANFORD CALIF 94305
m/z	RELATIVE INTENSITY
41	2500
42	300
43	3900
44	100
50	100
51	100
53	500
54	100
55	3700
56	300
57	2600
58	100
65	200
66	100
67	2500
68	400
69	2200
70	200
71	1200
72	100
77	700
78	200
79	2300
80	500
81	3600
82	500
83	1400
84	100
85	200
91	2000
92	500
93	3100
94	1100
95	3300
96	400
97	800
101	100
103	100
104	100
105	1800
106	800
107	2400
108	9200
109	3700
110	400
111	400
115	200
116	100
117	400
118	200
119	1200
120	700
121	2000
122	1200
123	1100
124	100
125	200
127	100
128	100
129	100
130	100
131	500
132	200
133	1700
134	2200
135	3200
136	600
137	300
138	100
143	100
145	800
146	300
147	3100
148	900
149	1500
150	200
151	200
152	100
159	600
160	500
161	1500
162	900
163	800
165	200
173	600
174	300
175	700
176	300
177	100
179	100
187	400
188	200
189	300
190	100
193	200
201	600
202	300
203	500
206	200
215	2500
216	900
217	500
218	100
229	200
230	700
231	700
232	100
243	100
245	100
247	600
248	200
255	100
256	100
257	2200
258	500
259	100
260	500
261	400
262	100
273	100
274	200
275	100
285	100
287	100
288	300
300	100
301	200
314	100
315	100
327	100
328	100
341	100
355	3600
356	1000
357	200
369	200
370	9999
371	3100
372	500
