Mass Spectrum: 2,6-Octadiene, 2,7-dimethyl-
Formula: C10 H18
CAS: 16736-42-8
Molecular weight: 138
Origin: D.HENNEBERG, MAX-PLANCK INSTITUTE, MULHEIM, WEST GERMANY
m/z	RELATIVE INTENSITY
25	20
26	45
27	931
28	241
29	589
30	10
31	217
32	22
36	5
37	66
38	57
39	985
40	246
41	8205
42	481
43	293
44	12
45	70
49	9
50	44
51	137
52	62
53	617
54	124
55	669
56	56
57	35
59	73
62	9
63	36
64	7
65	126
66	81
67	1188
68	622
69	9999
70	1568
71	71
74	37
75	5
77	116
78	22
79	112
80	30
81	203
82	1434
83	117
91	69
92	7
93	43
94	112
95	536
96	150
97	17
105	14
107	12
109	63
110	9
121	5
123	199
124	17
138	150
139	14
