Mass Spectrum: Cyclohexane, 1,4-dichloro-, cis-
Formula: C6 H10 Cl2
CAS: 16749-11-4
Molecular weight: 152
Origin: A.CAMBON LAB. OF STRUCTURAL CHEM., UNIV. OF NICE, NICE, FRANCE
m/z	RELATIVE INTENSITY
28	400
29	400
39	1100
41	1300
51	300
53	500
54	600
55	600
75	500
79	800
80	2800
81	9999
82	600
116	1000
117	600
118	300
119	100
152	200
154	100
