Mass Spectrum: Pentane, 3-ethyl-2,3-dimethyl-
Formula: C9 H20
CAS: 16747-33-4
Molecular weight: 128
m/z	RELATIVE INTENSITY
25	10
26	120
27	2492
28	310
29	2282
30	50
37	20
38	50
39	1271
40	180
41	3623
42	360
43	9839
44	330
45	10
49	10
50	40
51	110
52	50
53	360
54	90
55	1321
56	400
57	9999
58	440
59	10
62	10
63	20
64	10
65	50
66	20
67	110
68	30
69	1071
70	310
71	951
72	60
77	30
78	10
79	20
80	10
81	20
82	10
83	280
84	2482
85	3583
86	230
87	10
91	10
97	10
98	430
99	1451
100	100
101	10
112	10
113	100
114	10
128	10
