Mass Spectrum: Hexane, 2,2,4-trimethyl-
Formula: C9 H20
CAS: 16747-26-5
Molecular weight: 128
Origin: Japan AIST/NIMC Database- Spectrum MS-NW-4572
m/z	RELATIVE INTENSITY
14	10
15	30
26	30
27	399
28	70
29	1079
30	30
38	20
39	379
40	70
41	1849
42	159
43	1189
44	70
50	20
51	40
52	10
53	99
54	30
55	409
56	3359
57	9999
58	479
65	20
67	50
68	20
69	139
70	409
71	1649
72	99
77	10
79	10
81	20
82	10
83	90
84	20
85	30
91	10
95	10
97	30
98	10
99	20
112	10
113	329
114	30
