Mass Spectrum: 1-Hexene, 3,4-dimethyl-
Formula: C8 H16
CAS: 16745-94-1
Molecular weight: 112
Origin: NIST Mass Spectrometry Data Center, 1990.
m/z	RELATIVE INTENSITY
15	136
26	286
27	2332
28	853
29	2969
30	83
39	3265
41	7942
42	600
43	544
50	310
51	601
52	260
53	1336
54	860
55	5676
56	9999
57	5232
58	220
63	104
65	275
66	118
67	898
68	289
69	1307
70	1012
71	103
77	188
79	229
81	160
83	1272
84	3678
85	255
97	91
