Mass Spectrum: Dodecanophenone
Formula: C18 H28 O
CAS: 1674-38-0
Molecular weight: 260
Origin: Japan AIST/NIMC Database- Spectrum MS-NW-6094
m/z	RELATIVE INTENSITY
18	10
27	179
28	30
29	349
39	109
40	20
41	579
42	109
43	479
44	10
50	40
51	249
52	20
53	40
54	20
55	349
56	70
57	139
65	20
67	30
68	10
69	80
70	20
71	30
75	10
76	60
77	1699
78	299
79	40
81	10
83	40
85	10
91	99
92	30
95	10
96	10
97	10
103	30
104	50
105	5079
106	399
107	70
115	20
117	20
120	9999
121	1109
122	70
128	10
129	20
130	10
131	10
133	939
134	109
138	30
143	10
144	10
145	10
146	10
147	40
148	10
157	10
161	10
162	10
175	10
189	30
203	10
217	20
218	10
242	10
259	30
260	1339
261	289
262	30
