Mass Spectrum: 2,4-Dimethyl-1-hexene
Formula: C8 H16
CAS: 16746-87-5
Molecular weight: 112
Origin: NIST Mass Spectrometry Data Center, 1990.
m/z	RELATIVE INTENSITY
15	94
26	155
27	1416
28	548
29	2133
39	2922
40	764
41	6552
42	524
43	356
44	60
50	197
51	425
52	184
53	970
54	60
55	3780
56	9999
57	7010
58	317
63	97
65	221
66	100
67	861
68	283
69	566
70	1236
71	87
77	189
79	170
81	126
82	81
83	774
84	120
97	135
112	1042
113	105
