Mass Spectrum: Hexane, 2,2,3-trimethyl-
Formula: C9 H20
CAS: 16747-25-4
Molecular weight: 128
m/z	RELATIVE INTENSITY
26	30
27	1091
28	170
29	1892
30	40
38	10
39	671
40	130
41	3133
42	390
43	2412
44	80
45	10
46	10
50	10
51	30
52	20
53	170
54	50
55	781
56	6716
57	9999
58	430
59	10
63	10
64	10
65	20
66	10
67	50
68	10
69	220
70	550
71	1121
72	60
73	10
77	10
78	10
79	10
80	10
81	10
82	10
83	50
84	20
85	170
86	10
91	10
93	10
95	10
97	10
99	10
112	10
113	180
114	20
128	10
