Mass Spectrum: 1-Octanone, 1-phenyl-
Formula: C14 H20 O
CAS: 1674-37-9
Molecular weight: 204
Origin: NIST Mass Spectrometry Data Center, 1994
m/z	RELATIVE INTENSITY
12	6
15	36
17	12
18	21
26	95
27	1467
28	340
29	1354
30	18
37	10
38	57
39	883
40	156
41	1573
42	355
43	611
44	15
50	401
51	1701
52	139
53	143
54	10
55	829
56	92
57	175
58	10
62	20
63	65
64	19
65	120
66	22
67	42
68	15
69	40
70	15
74	21
75	93
77	5465
78	939
79	116
80	6
81	9
82	11
83	15
89	34
91	221
92	83
101	6
102	25
103	63
104	6
105	9999
106	784
107	89
108	7
115	80
116	18
117	26
120	7382
121	716
122	42
127	14
128	20
129	31
130	10
131	22
133	763
134	90
135	8
143	10
144	6
145	11
146	6
147	35
148	14
161	31
162	13
175	14
204	402
205	63
206	4
