Mass Spectrum: Pentane, 3-ethyl-2,2-dimethyl-
Formula: C9 H20
CAS: 16747-32-3
Molecular weight: 128
Origin: NIST Mass Spectrometry Data Center, 1990.
m/z	RELATIVE INTENSITY
14	23
15	111
16	13
26	80
27	1135
28	295
29	1589
30	47
32	37
37	23
39	1044
40	264
41	3992
42	475
43	2187
44	73
50	34
51	104
52	46
53	299
54	23
55	1358
56	6843
57	9999
58	440
63	18
65	50
66	17
67	99
68	17
69	376
70	986
71	1307
72	78
77	26
79	25
81	16
83	108
84	49
97	14
98	16
99	46
113	114
114	12
