Mass Spectrum: 2-Fluorophenyl isocyanate
Formula: C7 H4 F N O
CAS: 16744-98-2
Molecular weight: 137
Origin: NIST Mass Spectrometry Data Center, 1994
m/z	RELATIVE INTENSITY
4	3
14	2
16	12
25	37
26	175
27	148
28	330
31	677
32	59
33	84
36	60
37	487
38	626
39	401
40	55
41	27
42	46
44	127
46	25
47	17
48	36
49	170
50	606
51	478
52	281
55	246
56	493
57	813
58	182
59	39
60	64
61	367
62	647
63	796
64	327
65	68
68	480
70	85
71	18
73	58
74	189
75	277
76	174
77	32
78	34
79	37
80	136
81	879
82	3538
83	420
84	22
86	36
87	79
88	171
89	1232
90	140
92	38
93	33
94	71
95	34
106	52
109	6292
110	405
111	23
137	9999
138	676
139	44
