Mass Spectrum: Pentane, 2,3,3,4-tetramethyl-
Formula: C9 H20
CAS: 16747-38-9
Molecular weight: 128
m/z	RELATIVE INTENSITY
26	30
27	1421
28	120
29	831
30	20
37	10
38	20
39	781
40	130
41	2953
42	320
43	9999
44	330
45	10
46	10
50	10
51	40
52	20
53	220
54	40
55	661
56	200
57	3253
58	140
59	10
63	10
64	10
65	20
66	10
67	80
68	20
69	1531
70	160
71	290
72	20
77	10
78	10
79	10
80	10
81	10
82	10
83	30
84	2772
85	5955
86	370
87	10
91	10
95	10
96	10
97	40
98	10
112	10
113	90
114	10
128	10
