Mass Spectrum: 1-Hexene, 4-ethyl-
Formula: C8 H16
CAS: 16746-85-3
Molecular weight: 112
Origin: NIST Mass Spectrometry Data Center, 1990.
m/z	RELATIVE INTENSITY
26	319
27	2111
28	1054
29	2043
31	586
32	170
39	3626
40	619
41	5374
42	1527
43	9999
44	558
45	474
50	260
51	505
52	236
53	1163
54	771
55	5925
56	730
59	705
65	312
66	142
67	950
68	484
69	1293
70	8996
71	5447
72	265
74	601
77	219
79	217
83	701
84	705
112	360
