Mass Spectrum: 1-Propene, 3,3',3''-[methylidynetris(oxy)]tris-
Formula: C10 H16 O3
CAS: 16754-50-0
Molecular weight: 184
Origin: CARL DJERASSI DEPT OF CHEM STANFORD UNIV STANFORD CALIF 94305
m/z	RELATIVE INTENSITY
41	9999
42	900
43	600
44	500
45	100
47	100
51	100
53	200
54	500
55	900
56	400
57	4200
58	900
59	100
65	100
66	100
67	500
68	100
69	300
70	100
71	100
77	100
79	300
80	100
81	3300
82	300
83	100
85	100
87	100
126	100
127	2500
128	200
129	100
184	200
