Mass Spectrum: Methomyl
Formula: C5 H10 N2 O2 S
CAS: 16752-77-5
Molecular weight: 162
Origin: AAFS Toxicology Section MS DB Committee, U. Alberta, Canada
m/z	RELATIVE INTENSITY
40	390
41	350
42	1681
43	480
44	770
45	1311
46	710
47	1401
48	320
49	120
54	50
55	160
56	310
57	290
58	8677
59	1761
60	170
61	240
62	80
63	50
64	80
67	40
68	40
69	110
70	100
71	600
72	340
73	780
74	450
75	190
76	30
77	30
79	130
80	250
81	80
82	70
83	260
84	40
85	190
86	110
88	8307
89	390
90	240
91	40
94	70
95	170
97	40
100	30
105	9999
106	550
107	510
111	30
114	70
115	330
116	150
119	40
144	90
162	290
163	40
