Mass Spectrum: 4-Aminoheptane
Formula: C7 H17 N
CAS: 16751-59-0
Molecular weight: 115
Origin: NIST Mass Spectrometry Data Center, 1994
m/z	RELATIVE INTENSITY
15	136
17	14
18	217
27	740
28	435
29	539
30	5114
31	81
32	3
37	14
38	44
39	431
40	83
41	670
42	544
43	686
44	356
45	14
50	11
51	30
52	23
53	73
54	100
55	540
56	435
57	149
58	43
65	12
66	12
67	20
68	32
69	67
70	109
71	12
72	9999
73	494
74	12
77	7
84	10
86	10
98	14
114	87
115	28
116	14
