Mass Spectrum: Ethanone, 1-phenyl-, (2,4-dinitrophenyl)hydrazone
Formula: C14 H12 N4 O4
CAS: 1677-87-8
Molecular weight: 300
Origin: Japan AIST/NIMC Database- Spectrum MS-IW-6505
m/z	RELATIVE INTENSITY
15	10
26	10
27	70
28	289
30	189
32	499
37	10
38	60
39	179
40	20
41	30
42	80
43	489
44	40
50	169
51	719
52	169
53	40
54	10
55	10
57	20
61	20
62	99
63	279
64	99
65	80
66	30
67	10
68	20
69	20
71	10
74	80
75	209
76	349
77	3509
78	979
79	379
80	40
81	10
82	30
83	30
87	10
88	40
89	109
90	119
91	209
92	99
93	20
94	10
95	20
96	30
97	20
98	10
99	10
101	30
102	199
103	3309
104	829
105	459
106	80
107	20
109	50
110	20
111	10
113	10
114	10
115	40
116	60
117	60
118	1359
119	319
120	80
121	1899
122	259
123	20
126	70
127	80
128	60
129	20
130	30
131	30
132	20
133	40
134	20
135	119
136	10
137	10
138	30
139	149
140	99
141	60
142	20
143	10
146	90
147	10
149	10
150	199
151	139
152	409
153	119
154	70
155	20
163	70
164	189
165	259
166	519
167	169
168	50
169	10
176	90
177	149
178	679
179	249
180	409
181	329
182	129
183	40
190	90
191	149
192	479
193	169
194	90
195	109
196	50
197	10
204	10
205	209
206	339
207	539
208	289
209	169
210	50
211	70
212	189
213	30
218	10
219	539
220	129
221	70
222	30
223	139
224	40
225	90
226	20
235	40
236	40
237	40
238	419
239	109
240	70
241	169
242	20
251	20
252	99
253	649
254	139
255	149
256	20
265	1449
266	459
267	209
268	40
269	30
270	50
271	10
281	70
282	10
283	149
284	90
285	90
286	10
299	1289
300	9999
301	1699
302	219
303	20
