Mass Spectrum: 3,3-Diethoxy-1-propanol
Formula: C7 H16 O3
CAS: 16777-87-0
Molecular weight: 148
Origin: NIST Mass Spectrometry Data Center
m/z	RELATIVE INTENSITY
13	30
14	80
15	360
19	1371
20	20
24	10
25	60
26	450
27	2102
28	340
29	3773
30	400
31	3123
33	10
36	10
37	20
38	20
39	70
41	110
42	220
43	1661
44	1702
45	5615
46	671
47	6136
48	90
49	30
53	30
54	20
55	470
56	540
57	2963
58	400
59	831
60	30
61	90
69	10
70	10
71	170
72	1041
73	1091
74	110
75	6326
76	230
77	30
83	10
85	120
86	20
87	10
88	10
89	10
91	10
98	10
99	10
100	20
101	90
102	270
103	9999
104	601
105	60
119	40
135	10
147	30
