Mass Spectrum: Cyclohexane, (2-methylpropyl)-
Formula: C10 H20
CAS: 1678-98-4
Molecular weight: 140
Origin: NIST Mass Spectrometry Data Center, 1990.
m/z	RELATIVE INTENSITY
15	119
27	1624
28	299
29	1506
39	2310
40	591
41	5377
42	758
43	1724
44	114
45	12
50	61
51	224
52	122
53	820
54	1164
55	9999
56	2194
57	1025
58	55
59	13
62	11
63	43
65	198
67	2206
68	487
69	2118
70	373
71	54
74	10
77	189
78	39
79	221
80	10
81	703
82	4972
83	8049
84	636
85	45
91	61
92	10
93	26
96	1276
97	3189
98	282
99	12
111	28
112	60
125	245
126	28
140	1647
141	144
142	7
