Mass Spectrum: 3-Ethyl-3-hexene
Formula: C8 H16
CAS: 16789-51-8
Molecular weight: 112
Origin: NIST Mass Spectrometry Data Center, 1990.
m/z	RELATIVE INTENSITY
15	118
26	97
27	774
28	310
29	706
39	1609
40	309
41	2636
42	446
43	398
44	66
50	213
51	424
52	195
53	885
54	66
55	9999
56	691
57	83
62	66
63	130
65	366
66	145
67	955
68	231
69	1039
70	695
77	260
78	67
79	330
80	64
81	255
82	64
83	4657
84	712
97	178
112	2015
113	184
