Mass Spectrum: Cyclohexane, 1,2,3-trimethyl-, (1.alpha.,2.beta.,3.alpha.)-
Formula: C9 H18
CAS: 1678-81-5
Molecular weight: 126
Origin: NIST Mass Spectrometry Data Center, 1990.
m/z	RELATIVE INTENSITY
15	147
27	1657
28	845
29	1544
31	90
32	105
39	2723
40	624
41	5976
42	1666
43	1722
44	115
45	58
50	129
51	348
52	185
53	1082
54	58
55	7628
56	4248
57	1223
58	66
59	70
63	91
65	312
67	1503
69	9999
70	3669
71	560
77	281
78	64
79	251
80	52
81	274
82	1495
83	2745
84	873
85	137
91	119
95	100
96	230
97	1088
98	403
109	73
111	6571
112	549
126	3364
127	354
