Mass Spectrum: Dodecanoic acid, 2-hydroxy-1-(hydroxymethyl)ethyl ester
Formula: C15 H30 O4
CAS: 1678-45-1
Molecular weight: 274
Origin: R.T.HOLMAN,UNIVERSITY OF MINNESOTA
m/z	RELATIVE INTENSITY
26	220
27	5500
28	1400
29	5400
30	200
31	1900
32	120
33	40
34	20
35	50
36	20
37	40
38	60
39	1400
40	320
41	7400
42	2200
43	9999
44	1500
45	1500
46	100
47	90
48	20
49	20
50	30
51	60
52	40
53	450
54	560
55	6600
56	2700
57	7900
58	460
59	320
60	1700
61	1500
62	70
63	60
64	10
65	80
66	70
67	800
68	550
69	2600
70	900
71	2900
72	230
73	2200
74	6300
75	1700
76	100
77	110
78	30
79	200
80	110
81	700
82	390
83	1900
84	3800
85	2000
86	180
87	1500
88	170
89	130
90	20
91	80
92	20
93	380
94	100
95	1000
96	310
97	1500
98	5200
99	620
100	160
101	510
102	140
103	110
104	20
105	60
106	20
107	110
108	60
109	540
110	170
111	630
112	1700
113	260
114	50
115	480
116	1500
117	220
118	30
119	20
120	10
121	140
122	40
123	180
124	50
125	240
126	900
127	120
128	30
129	1100
130	120
131	40
132	10
133	20
134	4000
135	340
136	60
137	50
138	240
139	180
140	360
141	300
142	50
143	380
144	40
145	20
146	10
147	480
148	50
149	60
150	20
151	20
152	20
153	100
154	110
155	340
156	100
157	310
158	50
159	20
160	20
161	30
162	10
163	70
164	70
165	60
166	20
167	50
168	20
169	50
170	20
171	350
172	80
173	80
174	10
175	20
176	160
177	30
178	20
179	20
180	40
181	100
182	690
183	9800
184	1300
185	270
186	60
187	20
188	10
189	20
190	40
191	10
192	10
193	10
194	10
195	10
196	10
197	20
198	30
199	50
200	1100
201	2900
202	380
203	50
204	20
205	10
206	10
207	10
208	10
209	10
210	20
211	60
212	40
213	80
214	1000
215	210
216	40
217	20
218	20
219	20
220	10
224	10
225	20
226	20
227	50
228	40
229	30
230	10
231	20
239	20
240	20
241	30
243	2000
244	340
245	50
246	20
247	10
253	10
254	10
255	40
256	100
257	260
258	50
259	10
267	10
268	10
269	10
271	20
272	10
273	20
274	94
275	20
