Mass Spectrum: Cyclohexane, ethyl-
Formula: C8 H16
CAS: 1678-91-7
Molecular weight: 112
Origin: NIST Mass Spectrometry Data Center, 1990.
m/z	RELATIVE INTENSITY
15	77
26	146
27	1206
28	247
29	1059
39	2065
40	458
41	4089
42	971
43	530
44	87
50	135
51	292
52	146
53	781
54	989
55	8947
56	1152
57	143
63	68
65	193
67	1676
68	335
69	924
70	344
77	194
78	58
79	198
82	5600
83	9999
84	729
112	2760
113	248
