Mass Spectrum: 2-Hexanethiol
Formula: C6 H14 S
CAS: 1679-06-7
Molecular weight: 118
m/z	RELATIVE INTENSITY
26	550
27	4974
28	831
29	3243
32	130
33	360
34	270
35	661
37	140
38	290
39	3073
40	460
41	6095
42	3733
43	9999
44	360
45	1051
46	180
47	1311
49	110
50	180
51	250
53	480
54	260
55	3994
56	2913
57	1601
58	420
59	951
60	1712
61	6876
62	360
63	370
67	150
69	2152
70	380
71	120
74	140
75	460
84	2532
85	2632
86	170
103	180
118	3633
119	260
120	160
