Mass Spectrum: Benzene, 1-(2-bromoethyl)-3-chloro-
Formula: C8 H8 Br Cl
CAS: 16799-05-6
Molecular weight: 218
m/z	RELATIVE INTENSITY
50	2002
51	3103
52	200
75	230
76	20
77	360
78	30
103	4804
104	400
125	9999
126	901
127	3303
128	300
139	4804
140	400
183	1601
184	100
218	2803
219	300
220	3603
221	400
222	800
