Mass Spectrum: 4-Methylbenzoyl isothiocyanate
Formula: C9 H7 N O S
CAS: 16794-68-6
Molecular weight: 177
Origin: NIST Mass Spectrometry Data Center, 1994
m/z	RELATIVE INTENSITY
14	18
15	28
26	73
27	174
28	111
32	160
37	135
38	338
39	1559
40	121
41	343
42	13
43	64
44	84
45	96
49	60
50	617
51	617
52	158
53	100
58	521
59	120
60	55
61	201
62	523
63	1245
64	381
65	2971
66	173
69	12
70	19
73	43
74	178
75	127
76	95
77	61
85	56
86	162
87	81
88	43
89	882
90	43
91	6518
92	478
93	18
104	15
116	37
117	52
119	9999
120	882
121	60
148	15
177	34
