Mass Spectrum: 1-Propanethiol, 2,2-dimethyl-
Formula: C5 H12 S
CAS: 1679-08-9
Molecular weight: 104
m/z	RELATIVE INTENSITY
24	10
25	20
26	260
27	2342
28	420
29	4164
30	100
31	10
32	90
33	230
34	160
35	90
36	20
37	150
38	300
39	2572
40	300
41	5545
42	330
43	911
44	90
45	1231
46	330
47	1651
48	140
49	150
50	200
51	240
52	60
53	450
54	140
55	4764
56	1621
57	9999
58	561
59	210
60	70
61	310
62	20
63	20
64	10
65	10
66	10
67	20
68	10
69	130
70	30
71	230
72	20
73	110
74	20
75	10
76	10
78	10
80	10
81	10
82	10
83	10
84	10
85	20
86	10
87	20
88	70
89	1611
90	90
91	70
92	10
104	3103
105	200
106	140
107	10
