Mass Spectrum: 1H-1,2,3-Triazole, 4-phenyl-
Formula: C8 H7 N3
CAS: 1680-44-0
Molecular weight: 145
Origin: JCPRB4, (1)15(1979); S. I. MILLER ET AL.
m/z	RELATIVE INTENSITY
39	700
40	500
42	600
51	800
63	1300
64	600
77	1200
89	1800
90	1200
91	1600
103	500
104	500
116	700
118	2100
145	9999
146	1300
