Mass Spectrum: 2-Heptadecanol
Formula: C17 H36 O
CAS: 16813-18-6
Molecular weight: 256
Origin: R.T.HOLMAN,UNIVERSITY OF MINNESOTA
m/z	RELATIVE INTENSITY
28	770
29	940
30	40
31	80
32	140
39	230
40	70
41	2160
42	570
43	3610
44	520
45	9999
46	260
47	30
51	20
52	20
53	130
54	260
55	2500
56	1270
57	3000
58	1270
59	770
60	50
65	30
66	40
67	370
68	300
69	1830
70	1050
71	1830
72	120
73	60
74	20
75	20
77	30
78	20
79	60
80	30
81	230
82	530
83	1770
84	720
85	1000
86	80
87	30
88	20
89	20
91	30
92	20
93	20
94	20
95	160
96	370
97	1610
98	520
99	240
100	40
101	20
103	20
104	20
105	20
106	20
107	20
108	20
109	70
110	170
111	880
112	370
113	160
114	70
115	20
116	20
117	10
119	20
120	20
121	20
122	20
123	40
124	120
125	470
126	250
127	120
128	20
129	20
131	10
133	20
135	20
137	30
138	80
139	210
140	180
141	90
142	20
143	10
145	10
147	20
149	20
151	20
152	60
153	120
154	140
155	70
156	20
165	20
166	30
167	80
168	110
169	60
170	20
175	10
176	10
177	20
178	10
179	20
180	30
181	50
182	80
183	30
184	20
185	10
191	20
192	20
193	20
194	40
195	40
196	100
197	30
198	10
199	10
207	130
208	50
209	40
210	200
211	50
212	70
213	30
219	20
220	10
221	10
222	10
223	10
224	30
225	20
226	10
227	10
236	20
237	20
238	340
239	100
240	30
241	150
242	30
243	10
250	10
251	10
252	20
253	10
254	60
255	30
256	14
