Mass Spectrum: Cobalt, tetracarbonylhydro-
Formula: C4 H Co O4
CAS: 16842-03-8
Molecular weight: 172
Origin: F.E.SAALFELD, NAVAL RESEARCH LAB, WASHINGTON D.C., USA
m/z	RELATIVE INTENSITY
28	9999
59	9375
60	480
71	1057
87	8557
88	769
115	7500
116	1778
143	1057
144	3653
172	2163
