Mass Spectrum: 1,5-Cyclododecadiene, (E,E)-
Formula: C12 H20
CAS: 1684-05-5
Molecular weight: 164
Origin: MPI,B2419-G1875,16-JAN-69 (ID=4, PURITY=4)
m/z	RELATIVE INTENSITY
25	16
26	65
27	1632
28	268
29	1281
30	17
33	7
34	3
35	18
37	9
38	71
39	3258
40	492
41	6126
42	377
43	358
46	2
47	17
48	5
49	4
50	79
51	355
52	286
53	1778
54	9999
55	4244
56	315
57	59
58	8
61	1
62	12
63	99
64	40
65	665
66	948
67	9540
68	3941
69	1193
70	49
71	30
72	6
73	7
74	18
75	52
76	22
77	741
78	563
79	3674
80	4555
81	6608
82	2724
83	636
84	35
87	17
88	5
89	38
90	12
91	494
92	148
93	2445
94	2331
95	2217
96	918
97	335
98	12
103	16
104	4
105	80
106	41
107	1608
108	819
109	670
110	435
111	32
117	18
119	12
120	71
121	4226
122	923
123	265
124	1
134	4
135	1243
136	804
137	76
149	247
150	22
164	642
165	75
