Mass Spectrum: 1H-Indene, 2,3-dihydro-4,6-dimethyl-
Formula: C11 H14
CAS: 1685-82-1
Molecular weight: 146
m/z	RELATIVE INTENSITY
12	10
13	10
14	20
15	300
16	10
17	10
18	10
25	10
26	230
27	1071
28	180
29	140
30	10
31	10
36	10
37	50
38	190
39	1151
40	100
41	310
42	10
43	10
44	10
45	10
46	10
47	10
49	20
50	340
51	811
52	210
53	330
54	10
55	20
56	10
57	40
58	90
59	10
60	10
61	50
62	180
63	550
64	320
65	420
66	30
67	30
68	10
69	20
70	90
71	350
72	160
73	80
74	150
75	160
76	100
77	621
78	170
79	130
80	10
81	10
84	10
85	20
86	50
87	70
88	20
89	170
90	30
91	971
92	20
93	10
94	10
97	10
98	30
99	20
100	10
101	50
102	180
103	260
104	70
105	290
106	10
107	10
109	10
110	10
111	10
112	10
113	30
114	50
115	1411
116	631
117	290
118	150
119	140
120	30
125	20
126	70
127	420
128	1121
129	1031
130	581
131	9999
133	10
134	10
138	10
139	50
140	20
141	130
142	40
143	120
144	190
145	1752
146	3453
148	10
