Mass Spectrum: 2-Amino-3-hydroxypyridine
Formula: C5 H6 N2 O
CAS: 16867-03-1
Molecular weight: 110
Origin: NIST Mass Spectrometry Data Center, 1990.
m/z	RELATIVE INTENSITY
14	87
17	132
18	153
25	166
26	526
27	881
28	1293
29	517
30	124
36	83
37	618
38	1700
39	2102
40	513
41	573
42	403
43	588
44	124
50	68
51	214
52	613
53	931
54	2813
55	5535
56	616
63	141
64	538
65	1352
66	349
67	158
68	233
80	164
81	1463
82	3285
83	758
93	265
110	9999
111	760
