Mass Spectrum: p-Mentha-1,5-dien-8-ol
Formula: C10 H16 O
CAS: 1686-20-0
Molecular weight: 152
Origin: NIST Mass Spectrometry Data Center, 2010
m/z	RELATIVE INTENSITY
27	160
29	110
31	530
38	60
39	781
40	120
41	841
42	130
43	1371
45	550
50	140
51	591
52	230
53	290
55	120
57	80
58	110
59	9999
60	370
61	140
62	100
63	310
64	80
65	951
66	200
67	170
74	40
75	40
77	2963
78	741
79	6326
80	420
81	90
89	120
90	40
91	3873
92	1071
93	3643
94	7867
95	631
102	30
103	150
104	80
105	220
106	40
109	190
115	170
116	40
117	240
119	1391
120	140
121	70
124	30
134	250
135	70
137	70
