Mass Spectrum: 1-Phenanthrenecarboxylic acid, 7-ethenyl-1,2,3,4,4a,4b,5,6,7,9,10,10a-dodecahydro-1,4a,7-trimethyl-, methyl ester, [1R-(1.alpha.,4a.beta.,4b.alpha.,7.alpha.,10a.alpha.)]-
Formula: C21 H32 O2
CAS: 1686-54-0
Molecular weight: 316
Origin: R RYHAGE MS-LAB KAROLINSKA INSTITUTET STOCKHOLM SWEDEN
m/z	RELATIVE INTENSITY
15	300
27	290
29	460
39	470
40	100
41	1380
42	120
43	470
51	140
53	550
55	1260
56	140
57	180
59	590
65	330
66	120
67	880
68	150
69	450
71	100
73	150
77	880
78	290
79	1440
80	260
81	1290
82	160
83	150
91	2160
92	600
93	1600
94	300
95	710
97	280
101	290
103	230
104	190
105	1690
106	590
107	1370
108	290
109	810
114	100
115	390
116	180
117	720
118	230
119	1530
120	1030
121	9999
122	1340
123	900
124	100
127	110
128	320
129	400
130	160
131	570
132	190
133	1510
134	840
135	1010
136	290
137	100
139	100
141	180
142	150
143	320
144	140
145	600
146	200
147	620
148	1090
149	710
150	100
153	420
155	130
157	280
158	130
159	590
160	210
161	490
162	120
163	100
165	100
169	140
171	220
172	130
173	410
174	170
175	390
180	1560
181	1900
182	270
185	280
186	130
187	520
188	240
189	120
194	270
199	210
201	310
202	110
213	190
214	110
215	100
227	240
229	100
241	1560
242	350
256	500
257	2160
258	450
269	140
273	160
274	100
287	330
288	530
289	140
301	2560
302	600
316	2470
317	660
