Mass Spectrum: 1-Phenanthrenecarboxylic acid, 7-ethenyl-1,2,3,4,4a,4b,5,6,7,8,10,10a-dodecahydro-1,4a,7-trimethyl-, methyl ester, [1R-(1.alpha.,4a.beta.,4b.alpha.,7.alpha.,10a.alpha.)]-
Formula: C21 H32 O2
CAS: 1686-62-0
Molecular weight: 316
m/z	RELATIVE INTENSITY
39	200
40	100
41	1100
42	100
43	300
51	100
52	100
53	1300
54	200
55	2800
56	200
57	100
59	1500
65	1000
66	300
67	3100
68	1000
69	1200
71	200
73	500
76	100
77	3100
78	1100
79	6699
80	2100
81	4600
82	500
83	400
85	200
87	100
88	200
89	100
90	300
91	9799
92	2900
93	4999
94	1300
95	3500
96	400
97	800
99	100
100	100
101	1300
102	200
103	1100
104	1200
105	8999
106	4500
107	5499
108	1100
109	4300
110	500
111	100
113	100
114	300
115	2300
116	1100
117	3000
118	1500
119	8999
120	3200
121	6799
122	1000
123	1300
125	100
127	600
128	1800
129	2400
130	1100
131	4700
132	1200
133	5099
134	1600
135	1900
136	300
137	200
139	100
141	700
142	700
143	2400
144	900
145	3900
146	1600
147	3100
148	2400
149	1000
150	100
152	100
153	300
154	100
155	400
156	300
157	1900
158	700
159	2900
160	800
161	1600
162	300
163	200
165	200
169	300
170	100
171	1300
172	600
173	2700
174	700
175	1600
176	300
177	200
181	200
183	200
185	2400
186	1500
187	5599
188	1600
189	700
190	300
199	1400
200	1200
201	3700
202	800
203	500
213	1500
214	900
215	400
216	800
217	100
227	1800
228	700
229	300
241	9999
242	1600
243	100
256	2900
257	2800
258	500
259	200
269	200
273	100
287	1100
288	200
301	1100
302	200
316	2100
317	500
