Mass Spectrum: Phenanthrene, 7-ethenyl-1,2,3,4,4a,4b,5,6,7,8,8a,9-dodecahydro-1,1,4b,7-tetramethyl-, [4aS-(4a.alpha.,4b.beta.,7.alpha.,8a.alpha.)]-
Formula: C20 H32
CAS: 1686-67-5
Molecular weight: 272
Origin: A. MCCORMICK GC-MS UNIT, UNIVERSITY OF GLASGOW
m/z	RELATIVE INTENSITY
15	77
27	750
28	350
29	1500
31	100
32	50
39	950
40	250
41	4650
42	350
43	1260
51	100
52	100
53	1400
54	150
55	3350
56	200
57	250
65	650
66	250
67	2350
68	1000
69	1700
77	1550
78	430
79	2700
80	4000
81	3350
82	350
91	2650
92	550
93	2850
94	700
95	1850
96	100
97	260
103	250
104	160
105	2150
106	560
107	2300
108	850
109	1350
110	150
111	150
115	350
116	150
117	630
118	200
119	1250
120	350
121	2620
122	450
123	1100
124	150
128	270
129	400
130	130
131	700
132	200
133	900
134	200
135	1100
136	1900
137	500
141	100
142	100
143	200
145	600
146	200
147	850
148	200
149	1300
150	150
159	400
161	750
162	150
163	450
171	100
173	300
175	800
176	140
187	550
188	150
189	350
190	200
201	500
202	150
203	90
204	130
215	270
216	160
229	180
230	120
257	9999
258	2220
259	150
272	2150
273	500
274	50
