Mass Spectrum: 1,3-Dimethyl-5-ethyladamantane
Formula: C14 H24
CAS: 1687-35-0
Molecular weight: 192
Origin: V.G.Zaikin, TIPS, Russian Acad. Sci.
m/z	RELATIVE INTENSITY
51	150
53	450
55	800
57	100
65	300
67	500
69	400
70	100
77	600
78	150
79	750
80	200
81	500
83	200
91	800
92	200
93	1301
94	200
95	500
105	400
107	4804
108	500
109	200
121	1000
122	200
135	300
149	100
163	9999
164	1151
177	850
178	250
192	300
193	50
