Mass Spectrum: 1,2-Dicarbadodecaborane(12)
Formula: C2 H12 B10
CAS: 16872-09-6
Molecular weight: 146
Origin: RADIAN CORP
m/z	RELATIVE INTENSITY
13	110
36	50
37	120
47	30
48	40
49	30
57	20
58	30
59	20
67	60
68	130
78	30
79	60
80	60
81	30
87	30
88	90
89	180
90	220
91	190
92	70
93	10
97	20
98	110
99	230
100	340
101	330
102	230
103	130
104	40
105	10
109	60
110	180
111	310
112	370
113	330
114	220
115	130
116	40
119	30
120	130
121	300
122	580
123	890
124	1060
125	890
126	560
127	360
128	220
129	120
130	110
131	240
132	520
133	980
134	1460
135	1900
136	2150
137	2200
138	2290
139	2820
140	4410
141	7340
142	9999
143	9740
144	6120
145	2550
146	940
