Mass Spectrum: 1,3,5,7-Tetramethyl-adamantane
Formula: C14 H24
CAS: 1687-36-1
Molecular weight: 192
Origin: V.G.Zaikin, TIPS, Russian Acad. Sci.
m/z	RELATIVE INTENSITY
51	300
52	150
53	800
54	300
55	1701
56	600
57	700
65	450
67	800
68	150
69	950
77	750
78	150
79	900
80	200
81	800
82	200
83	700
91	1101
92	250
93	950
94	200
95	1000
96	300
97	300
105	800
106	300
107	2201
108	350
109	700
119	200
121	4303
122	600
123	200
135	600
136	100
149	200
163	350
177	9999
178	1651
192	700
193	110
194	10
