Mass Spectrum: Phenol, 2-ethyl-6-methyl-
Formula: C9 H12 O
CAS: 1687-64-5
Molecular weight: 136
Origin: J.MACAK, DEP. GAS COKE TECH., PRAGUE INST. CHEM. TECH., CZECes
m/z	RELATIVE INTENSITY
38	300
39	2000
40	300
41	800
43	400
50	500
51	1300
52	500
53	900
55	300
62	200
63	600
64	100
65	1000
66	300
67	400
74	100
75	100
76	100
77	2900
78	600
79	500
89	200
90	100
91	2700
92	400
93	700
94	100
102	100
103	400
105	200
107	500
108	200
119	100
121	9999
122	1000
135	300
136	3400
137	400
