Mass Spectrum: 1-Methyl-3-ethyladamantane
Formula: C13 H22
CAS: 1687-34-9
Molecular weight: 178
Origin: V.G.Zaikin, TIPS, Russian Acad. Sci.
m/z	RELATIVE INTENSITY
51	200
53	500
55	800
57	200
65	300
66	100
67	600
68	150
69	400
77	650
78	150
79	900
80	200
81	800
82	200
83	300
91	700
92	200
93	2802
94	300
95	400
105	300
107	1301
108	200
121	500
135	200
149	9999
150	1101
163	700
164	150
178	400
179	60
