Mass Spectrum: Phenol, 2-ethyl-5-methyl-
Formula: C9 H12 O
CAS: 1687-61-2
Molecular weight: 136
Origin: ALLIED CHEMICAL CORP., GLENOLDEN, PA, USA
m/z	RELATIVE INTENSITY
27	1111
28	196
29	284
37	83
38	281
39	1421
40	200
41	452
42	58
43	138
50	369
51	836
52	321
53	589
54	52
55	173
61	61
62	161
63	424
64	131
65	630
66	219
67	251
74	86
75	96
76	83
77	1618
78	396
79	270
89	173
90	117
91	1759
92	267
93	335
94	70
102	84
103	202
105	129
107	263
108	131
109	63
115	309
116	89
117	212
118	68
119	101
120	125
121	9999
122	919
123	58
134	60
135	267
136	3091
137	318
