Mass Spectrum: 2-Quinazolinamine
Formula: C8 H7 N3
CAS: 1687-51-0
Molecular weight: 145
Origin: Japan AIST/NIMC Database- Spectrum MS-IW-6817
m/z	RELATIVE INTENSITY
26	20
27	40
28	139
37	80
38	119
39	169
40	30
41	40
42	20
43	229
45	20
49	20
50	539
51	249
52	129
53	60
54	10
58	30
59	60
61	50
62	109
63	289
64	309
65	99
66	30
67	10
72	509
73	70
74	159
75	389
76	679
77	129
78	30
79	10
86	10
87	20
88	40
89	60
90	639
91	1119
92	99
93	40
99	20
100	20
101	20
102	289
103	599
104	90
115	10
116	60
117	689
118	3659
119	399
120	10
128	159
129	999
130	90
143	30
144	819
145	9999
146	999
147	50
