Mass Spectrum: 1(3H)-Isobenzofuranone, 3,3-dimethyl-
Formula: C10 H10 O2
CAS: 1689-09-4
Molecular weight: 162
Origin: Japan AIST/NIMC Database- Spectrum MS-IW-6378
m/z	RELATIVE INTENSITY
15	20
27	30
28	20
29	10
37	10
38	30
39	129
40	10
41	20
43	429
44	10
45	10
49	10
50	229
51	219
52	80
53	20
57	20
58	10
59	10
61	10
62	40
63	90
64	20
65	149
66	90
73	10
74	99
75	129
76	309
77	299
78	60
79	20
86	10
87	10
89	70
90	50
91	1219
92	90
101	20
102	30
103	99
104	329
105	70
115	80
116	10
117	50
118	30
119	259
120	20
145	10
146	20
147	9999
148	1009
149	80
162	1179
163	189
164	10
