Mass Spectrum: Thiophene, 2-(1,1-dimethylethyl)-
Formula: C8 H12 S
CAS: 1689-78-7
Molecular weight: 140
m/z	RELATIVE INTENSITY
12	10
13	10
14	40
15	500
16	10
26	50
27	861
28	130
29	410
30	10
32	10
33	20
34	10
35	10
36	10
37	100
38	270
39	1832
40	120
41	2132
42	90
43	30
44	20
45	1411
46	50
47	140
48	10
49	30
50	250
51	490
52	120
53	370
54	40
55	140
56	20
57	280
58	350
59	230
60	50
61	90
62	110
63	230
64	40
65	510
66	120
67	70
68	20
69	350
70	70
71	160
72	10
73	30
74	50
75	40
76	20
77	230
78	70
79	160
80	20
81	110
82	110
83	80
84	180
85	1211
86	70
87	60
88	10
89	20
90	10
91	380
92	100
93	40
94	10
95	50
96	30
97	1862
98	50
99	110
100	10
101	10
102	10
103	10
104	10
105	30
106	10
107	10
108	60
109	460
110	230
111	20
112	20
120	10
121	30
122	10
123	90
124	60
125	9999
126	821
127	470
128	40
129	10
135	10
137	10
139	10
140	2482
141	210
142	120
143	10
