Mass Spectrum: Cyclohexane, 1,4-dichloro-, trans-
Formula: C6 H10 Cl2
CAS: 16890-91-8
Molecular weight: 152
Origin: F.GAYMARD FACULTY OF SCIENCE, NICE UNIV., NICE, FRANCE
m/z	RELATIVE INTENSITY
28	200
29	250
36	400
38	200
39	950
40	200
41	1600
42	200
49	250
51	450
52	200
53	800
54	550
55	550
62	450
64	150
67	450
75	850
77	300
79	800
80	2250
81	9999
82	1350
88	300
90	100
116	800
118	270
152	260
154	130
