Mass Spectrum: Piperidine, 4,4'-(1,3-propanediyl)bis-
Formula: C13 H26 N2
CAS: 16898-52-5
Molecular weight: 210
Origin: NIST Mass Spectrometry Data Center, 1990.
m/z	RELATIVE INTENSITY
15	236
26	111
27	1581
28	4917
29	4495
30	8405
31	184
32	119
39	1329
40	365
41	3391
42	4270
43	2882
44	6222
45	274
46	121
51	163
52	137
53	941
54	928
55	4733
56	9068
57	4316
58	962
65	266
66	129
67	1215
68	775
69	697
70	837
71	339
72	92
77	187
78	76
79	469
80	703
81	76
82	9999
83	1290
84	4997
85	2827
86	202
91	132
93	277
94	218
95	505
96	1506
97	414
98	4055
99	1023
100	138
104	107
105	83
106	130
107	166
108	512
109	202
110	480
111	83
112	4077
113	1023
114	110
121	120
122	201
123	102
124	408
125	102
126	5333
127	550
128	95
135	89
136	201
137	53
138	200
139	152
140	251
148	78
150	114
152	775
153	516
154	2377
155	252
164	258
165	128
166	518
167	390
168	707
169	101
178	238
179	124
180	547
181	478
182	239
192	89
193	77
194	315
195	1148
196	132
208	185
209	1384
210	2774
211	441
