Mass Spectrum: Nitroxinil
Formula: C7 H3 I N2 O3
CAS: 1689-89-0
Molecular weight: 290
Origin: Frank Antolasic, RMIT Applied Chemistry Department, Victoria Australia 3001
m/z	RELATIVE INTENSITY
15	30
17	40
18	40
20	50
24	20
25	40
26	60
28	60
30	741
36	60
37	390
38	300
39	40
41	30
42	40
43	40
45	60
46	30
47	20
48	20
49	70
50	120
51	160
52	150
53	601
54	60
55	40
58	70
61	751
62	961
63	360
64	170
65	120
66	100
67	80
69	20
71	20
72	30
73	70
74	90
75	150
76	240
77	240
78	80
81	20
85	20
86	80
87	320
88	1641
89	741
90	120
91	70
98	30
99	50
100	30
101	40
102	60
104	80
105	70
114	20
117	1541
118	260
119	30
127	460
128	70
132	120
133	320
134	30
139	20
141	20
143	20
145	150
146	500
147	50
151	20
152	50
163	30
164	130
165	40
166	20
176	20
188	20
189	90
190	60
202	30
204	190
205	20
215	150
216	200
217	30
229	80
232	601
233	60
243	310
244	70
245	20
257	80
258	20
260	621
261	50
264	20
273	671
274	140
275	20
290	9999
291	931
292	90
