Mass Spectrum: Bromoxynil
Formula: C7 H3 Br2 N O
CAS: 1689-84-5
Molecular weight: 275
Origin: MASS SPECTROMETRY CENTER, UNIV. OF UTAH EPA-PTSEL 0820
m/z	RELATIVE INTENSITY
25	213
26	193
27	73
29	300
36	368
37	1874
38	1122
39	212
44	92
45	281
48	60
49	402
50	277
51	156
52	242
53	2078
60	394
61	2480
62	2745
63	1575
64	424
65	266
66	285
67	20
73	217
74	277
75	167
76	21
79	323
80	215
81	378
82	207
83	146
84	246
85	72
86	335
87	1090
88	8240
89	1354
90	224
91	110
93	185
95	17
97	15
99	333
100	81
104	45
106	80
116	392
117	1975
118	349
119	312
123	14
124	99
137	174
138	397
139	187
141	368
142	347
143	113
144	267
167	600
168	1964
169	734
170	1936
171	91
195	707
196	218
197	812
198	236
246	43
248	217
250	41
275	6545
276	693
277	9999
278	1137
279	6343
280	628
