Mass Spectrum: 3,5-Dimethoxycinnamic acid
Formula: C11 H12 O4
CAS: 16909-11-8
Molecular weight: 208
Origin: NIST Mass Spectrometry Data Center
m/z	RELATIVE INTENSITY
15	230
26	40
27	140
29	130
30	40
31	40
36	10
37	70
38	280
39	641
40	100
41	190
42	40
43	170
45	510
46	20
47	20
49	30
50	581
51	1411
52	410
53	480
54	70
55	360
56	30
57	80
58	20
59	210
60	80
61	130
62	621
63	1241
64	330
65	651
66	671
67	140
68	110
69	651
70	40
71	40
72	10
73	80
74	260
75	280
76	460
77	2212
78	781
79	911
80	150
81	110
82	70
83	40
84	30
85	80
86	110
87	170
88	240
89	1241
90	661
91	1421
92	390
93	130
94	410
95	260
97	70
98	60
99	50
100	30
101	80
102	440
103	761
104	450
105	1261
106	280
107	520
108	140
109	601
110	60
111	50
112	10
113	10
114	10
115	60
116	90
117	520
118	781
119	641
120	470
121	991
122	320
123	140
124	100
125	100
126	30
127	10
128	10
129	40
130	60
131	280
132	671
133	1381
134	510
135	691
136	100
137	1001
138	110
139	140
140	20
141	10
143	10
144	40
145	110
146	120
147	681
148	1311
149	390
150	190
151	160
152	60
153	20
154	160
155	10
159	100
160	210
161	1732
162	460
163	1591
164	300
165	420
166	70
167	20
173	10
175	120
176	180
177	1491
178	220
179	540
180	170
181	20
187	10
189	280
190	60
191	751
192	180
193	340
194	40
205	30
206	20
207	1041
208	9999
209	1161
210	170
211	10
