Mass Spectrum: 2-Propenoic acid, 3-(2,4-dimethoxyphenyl)-, (E)-
Formula: C11 H12 O4
CAS: 16909-09-4
Molecular weight: 208
Origin: NIST Mass Spectrometry Data Center
m/z	RELATIVE INTENSITY
15	320
20	10
26	60
27	210
29	240
30	40
31	60
33	10
36	10
37	80
38	280
39	961
40	150
41	380
42	70
43	340
44	110
45	681
46	40
47	30
50	751
51	1992
52	490
53	691
54	110
55	621
56	70
57	170
58	40
59	230
60	170
61	220
62	931
63	1862
64	550
65	1011
66	641
67	160
68	140
69	801
70	50
71	70
73	170
74	400
75	390
76	671
77	3563
78	1261
79	1041
80	120
81	130
82	60
83	40
84	40
85	240
86	190
87	300
88	360
89	1672
90	971
91	1972
92	631
93	210
94	510
95	360
96	90
97	50
98	110
99	50
100	40
101	130
102	260
103	1031
104	390
105	1832
106	460
107	420
108	300
109	330
110	40
111	50
112	10
113	10
114	10
115	70
116	180
117	350
118	691
119	861
120	490
121	9318
122	971
123	170
124	921
125	120
126	20
127	10
128	10
129	80
130	40
131	420
132	280
133	3463
134	861
135	741
136	160
137	530
138	90
139	50
140	10
141	10
143	10
144	20
145	90
146	120
147	721
148	2632
149	6846
150	1081
151	340
152	50
153	10
154	50
157	10
159	30
160	50
161	1311
162	691
163	380
164	80
165	220
166	30
167	40
171	10
173	10
174	10
175	90
176	811
177	4914
178	530
179	120
180	30
185	10
189	40
190	20
191	1031
192	180
193	210
194	20
205	20
206	10
207	210
208	9999
209	1201
210	160
211	20
