Mass Spectrum: Octane, 1-(butylthio)-
Formula: C12 H26 S
CAS: 16900-07-5
Molecular weight: 202
Origin: GAZ DE FRANCE D.E.T.N., B.P. 33, LA PLAINE ST. DENIS, FRANCE
m/z	RELATIVE INTENSITY
26	133
27	2143
28	1228
29	6000
30	143
32	143
33	19
34	76
35	133
36	10
37	29
38	29
39	1257
40	238
41	7142
42	1628
43	4000
44	238
45	629
46	400
47	1342
48	171
49	162
50	48
51	76
52	38
53	409
54	429
55	5714
56	9999
57	5142
58	286
59	276
60	762
61	7428
62	343
63	371
64	20
65	57
66	48
67	448
68	619
69	5714
70	904
71	1000
72	76
73	181
74	95
75	580
76	114
77	95
78	19
79	76
80	19
81	152
82	571
83	1856
84	2571
85	200
86	29
87	438
88	307
89	1000
90	2228
91	914
92	171
93	67
95	38
96	19
97	229
98	48
101	181
102	38
103	952
104	181
105	57
106	19
110	57
111	210
112	1771
113	171
115	38
117	724
118	76
119	38
122	133
131	162
132	19
143	19
144	114
145	7142
146	914
147	457
148	48
159	647
160	86
161	38
173	361
174	48
175	19
187	115
201	171
202	2714
203	429
204	162
