Mass Spectrum: Tin(IV)chloride bis(2,4-pentanedionate)
Formula: C10 H14 Cl2 O4 Sn
CAS: 16919-46-3
Molecular weight: 388
Origin: Japan AIST/NIMC Database- Spectrum MS-NW-5558
m/z	RELATIVE INTENSITY
14	40
15	509
17	10
18	20
26	90
27	489
28	269
29	90
35	20
36	109
37	20
38	50
39	209
40	60
41	129
42	279
43	9999
44	229
45	30
50	10
51	20
53	60
54	20
55	459
56	50
57	119
58	40
67	30
68	30
69	309
70	50
71	149
72	40
81	20
82	20
83	10
84	80
85	499
86	30
95	20
96	10
97	30
98	80
99	459
100	379
101	30
102	20
111	20
113	20
116	99
117	60
118	139
119	80
120	209
121	30
122	30
124	40
129	20
130	10
131	119
132	70
133	349
134	179
135	519
136	129
137	489
139	90
141	99
143	20
144	20
145	30
147	50
149	50
150	20
151	749
152	399
153	1439
154	549
155	1919
156	139
157	809
158	50
159	449
160	50
161	239
163	30
165	30
167	20
168	20
169	40
170	20
171	10
172	20
173	30
174	30
175	60
176	70
177	90
178	30
179	80
180	20
181	20
183	20
186	30
187	30
188	50
189	30
190	60
191	10
192	20
193	10
194	20
195	10
196	10
197	40
198	30
199	80
200	40
201	119
202	30
203	60
204	10
205	30
206	10
207	50
208	20
209	30
210	20
211	90
212	20
213	60
214	139
215	969
216	679
217	1499
218	809
219	1919
220	149
221	329
222	70
223	399
224	50
225	159
226	40
227	179
228	70
229	219
230	40
231	169
232	20
233	80
234	10
235	229
236	119
237	399
238	169
239	559
240	70
241	229
242	20
243	229
244	80
245	399
246	209
247	679
248	229
249	709
250	219
251	479
252	289
253	299
254	379
255	119
256	149
257	40
258	60
259	10
260	20
265	10
266	10
267	90
268	60
269	169
270	80
271	239
272	30
273	99
274	10
275	50
277	20
281	129
282	10
283	149
284	70
285	1689
286	1029
287	3819
288	1769
289	5599
290	1049
291	3109
292	319
293	1369
294	90
295	499
296	40
297	90
299	10
307	10
309	20
310	20
311	50
312	20
313	40
314	10
315	30
317	20
318	10
319	10
321	10
331	10
333	20
335	20
337	10
345	80
346	20
347	90
348	99
349	1229
350	849
351	2509
352	1329
353	3339
354	669
355	1209
356	169
357	599
358	80
359	159
360	20
371	10
372	10
373	20
375	10
380	10
382	20
384	119
385	99
386	309
387	149
388	429
389	99
390	239
391	40
392	99
393	10
394	40
