Mass Spectrum: 1,1,1',1'-Tetrafluorodimethyl ether
Formula: C2 H2 F4 O
CAS: 1691-17-4
Molecular weight: 118
Origin: Thomas J.Bruno
m/z	RELATIVE INTENSITY
28	1951
29	9999
31	9358
32	4083
40	280
47	4313
48	9558
51	9999
52	1141
66	410
71	1090
99	290
117	960
