Mass Spectrum: trans-2-Heptenyl acetate
Formula: C9 H16 O2
CAS: 16939-73-4
Molecular weight: 156
Origin: Japan AIST/NIMC Database- Spectrum MS-IW-2185
m/z	RELATIVE INTENSITY
14	30
15	299
26	50
27	979
28	209
29	659
30	10
31	60
37	10
38	50
39	1169
40	179
41	2209
42	689
43	9999
44	459
45	119
50	40
51	109
52	70
53	559
54	4499
55	3369
56	509
57	1589
58	339
59	70
60	20
61	389
62	10
63	20
65	119
66	129
67	2029
68	989
69	489
70	619
71	879
72	549
73	199
74	10
77	50
78	10
79	139
80	30
81	2579
82	189
83	129
84	50
85	339
86	219
87	60
91	10
93	20
94	10
95	469
96	2739
97	519
98	109
99	369
100	309
101	80
110	10
111	30
112	40
113	549
114	1809
115	159
116	10
127	40
128	30
141	20
156	99
157	10
