Mass Spectrum: Ethyl 2-heptynoate
Formula: C9 H14 O2
CAS: 16930-95-3
Molecular weight: 154
Origin: NIST Mass Spectrometry Data Center, 1994
m/z	RELATIVE INTENSITY
12	12
13	53
14	207
15	1269
16	68
17	4
18	40
19	83
25	70
26	1148
27	8920
28	1285
29	7825
30	330
31	126
37	489
38	1687
39	4839
40	1002
41	5917
42	807
43	4130
44	213
45	934
46	36
49	138
50	999
51	1611
52	1279
53	4571
54	587
55	1809
56	428
57	121
58	24
60	29
61	75
62	172
63	289
64	98
65	842
66	3938
67	3205
68	1619
69	809
70	112
71	297
73	108
74	21
75	30
76	21
77	875
78	21
79	5480
80	1208
81	3412
82	503
83	475
84	2815
85	589
86	279
87	33
91	86
92	49
93	330
94	254
95	211
96	33
97	1138
98	415
99	341
100	95
101	23
107	213
109	9999
110	820
111	1628
112	1920
113	331
114	29
121	60
125	1864
126	479
127	208
139	235
140	18
153	84
