Mass Spectrum: 9H-Thioxanthen-9-one, 2-(trifluoromethyl)-
Formula: C14 H7 F3 O S
CAS: 1693-28-3
Molecular weight: 280
Origin: NIST Mass Spectrometry Data Center, 1994
m/z	RELATIVE INTENSITY
18	72
20	56
37	134
38	295
39	539
45	299
49	93
50	1484
51	451
52	40
53	141
56	39
57	267
58	318
61	215
62	555
63	1299
64	142
65	92
69	2899
70	144
71	138
73	159
74	791
75	1464
76	581
77	194
78	76
79	43
80	65
81	514
82	717
83	109
84	85
85	133
86	216
87	341
88	292
89	194
90	43
91	491
92	43
93	374
94	378
95	96
96	40
97	50
98	146
99	234
100	215
101	839
103	129
104	118
105	226
106	393
107	279
108	731
109	122
110	145
111	146
113	249
114	98
116	364
118	64
119	58
121	29
122	53
123	125
124	70
125	381
126	673
129	36
130	185
131	166
132	372
133	96
135	49
136	111
137	225
138	428
139	1592
140	675
143	185
144	182
145	70
149	60
150	121
151	93
152	34
155	56
157	771
158	125
160	42
162	55
163	36
168	76
169	154
170	246
175	136
176	134
180	40
181	101
182	418
183	430
184	63
185	37
186	63
187	128
188	379
189	79
199	75
200	90
201	356
202	2205
203	357
204	163
205	57
206	186
207	305
211	66
213	192
219	199
220	80
225	60
229	220
231	323
233	1452
234	246
235	83
247	43
248	47
249	44
251	1402
252	5480
253	842
254	306
255	43
261	597
262	118
263	41
280	9999
281	1614
282	570
283	88
