Mass Spectrum: Tridecanoic acid, TMS derivative
Formula: C16 H34 O2 Si
CAS: 169597-14-2
Molecular weight: 286
Origin: NIST Mass Spectrometry Data Center
m/z	RELATIVE INTENSITY
15	10
26	10
27	320
28	80
29	851
30	30
31	20
39	320
40	70
41	2302
42	520
43	2552
44	230
45	931
46	70
47	420
48	30
49	20
50	10
51	20
52	10
53	180
54	160
55	2522
56	450
57	871
58	250
59	350
60	110
61	651
62	40
63	20
65	30
66	10
67	360
68	100
69	811
70	180
71	200
72	410
73	9428
74	1011
75	8227
76	571
77	350
78	20
79	130
80	20
81	440
82	70
83	410
84	230
85	170
86	130
87	110
88	90
89	250
90	50
91	80
92	10
93	110
94	20
95	460
96	60
97	380
98	340
99	240
100	30
101	160
102	30
103	40
105	260
106	30
107	60
108	10
109	130
110	20
111	150
112	90
113	40
114	20
115	90
116	761
117	9999
118	981
119	410
120	20
121	50
122	10
123	30
124	10
125	50
126	20
127	30
129	4694
130	571
131	1531
132	3773
133	651
134	180
135	50
137	10
139	20
140	40
141	30
142	20
143	290
145	2062
146	260
147	90
149	10
151	10
152	10
153	40
154	30
155	20
156	10
157	120
158	20
159	230
160	40
161	10
163	10
167	20
168	10
169	10
171	180
172	30
173	60
174	30
177	10
178	10
181	10
185	230
186	40
187	210
188	40
189	10
196	10
197	10
199	60
200	20
201	400
202	60
203	20
213	30
214	10
215	40
216	10
227	290
228	60
229	60
230	10
241	30
242	10
243	230
244	50
245	10
255	10
257	70
258	20
268	10
269	10
271	6176
272	1311
273	350
274	50
285	30
286	240
287	50
288	10
