Mass Spectrum: Acetic acid, trichloro-, octyl ester
Formula: C10 H17 Cl3 O2
CAS: 16958-78-4
Molecular weight: 274
Origin: V.G.Zaikin, Petrochem. Synth. Inst., Moscow
m/z	RELATIVE INTENSITY
25	90
26	480
27	2392
28	681
29	3853
30	180
31	130
35	220
36	791
37	130
38	460
39	2372
40	611
41	8698
42	4094
43	9999
44	1591
45	90
47	410
48	140
49	190
50	120
51	190
52	160
53	470
54	681
55	6996
56	7667
57	9699
58	450
63	190
65	80
66	70
67	631
68	1822
69	5545
70	6676
71	5975
72	380
76	80
77	120
79	130
81	180
82	921
83	4054
84	5285
85	460
86	90
87	70
97	410
98	60
110	651
111	250
112	931
113	100
117	991
118	70
119	1031
120	70
121	330
