Mass Spectrum: Rebemide
Formula: C11 H15 N O
CAS: 1696-17-9
Molecular weight: 177
Origin: CARL DJERASSI DEPT OF CHEM STANFORD UNIV STANFORD CALIF 94305
m/z	RELATIVE INTENSITY
42	200
44	100
50	200
51	800
56	100
76	100
77	3400
78	300
105	9999
106	800
134	200
148	300
162	100
176	2800
177	1300
178	200
