Mass Spectrum: Morpholine, 4-acetyl-
Formula: C6 H11 N O2
CAS: 1696-20-4
Molecular weight: 129
Origin: Japan AIST/NIMC Database- Spectrum MS-NW-6400
m/z	RELATIVE INTENSITY
12	20
13	30
14	209
15	1589
16	30
17	90
18	369
19	10
25	20
26	339
27	1009
28	2239
29	2059
30	1559
31	259
32	10
36	40
38	30
39	70
40	129
41	499
42	1809
43	8289
44	639
45	279
46	20
51	20
52	60
53	20
54	319
55	579
56	5579
57	9999
58	769
59	239
60	30
64	30
66	10
67	10
68	60
69	169
70	459
71	339
72	929
73	70
74	10
83	20
84	60
85	219
86	4569
87	1459
88	99
89	10
98	159
99	579
100	189
101	199
102	20
105	10
108	10
110	10
112	30
114	2049
115	149
116	20
127	10
128	139
129	3929
130	319
131	30
