Mass Spectrum: tert-Butyl 2,4,5-trichlorophenyl carbonate
Formula: C11 H11 Cl3 O3
CAS: 16965-08-5
Molecular weight: 296
Origin: Japan AIST/NIMC Database- Spectrum MS-IW-2322
m/z	RELATIVE INTENSITY
12	20
14	10
15	80
16	30
18	10
25	20
26	109
27	609
28	589
29	1299
30	30
35	40
36	169
37	289
38	289
39	1859
40	449
41	6189
42	319
43	439
44	3629
45	599
46	20
47	70
48	349
49	259
50	329
51	239
52	60
53	459
54	109
55	1049
56	2619
57	9999
58	619
59	159
60	149
61	559
62	859
63	349
64	20
65	30
66	219
67	119
68	20
71	80
72	289
73	489
74	279
75	129
76	20
77	20
80	129
81	80
82	20
83	279
84	139
85	189
86	50
87	90
89	40
90	50
91	129
92	80
94	10
95	50
96	249
97	2679
98	459
99	1069
100	149
101	30
102	10
106	20
107	479
108	149
109	449
110	60
111	99
117	20
118	20
119	40
120	20
121	20
123	10
124	20
125	60
126	40
127	20
128	10
131	90
132	1729
133	949
134	1139
135	579
136	209
137	90
138	10
140	10
141	10
142	10
143	209
144	169
145	149
146	99
147	40
148	20
149	10
160	339
161	119
162	329
163	80
164	99
165	20
166	10
167	549
168	50
169	529
170	50
171	169
172	10
173	20
174	10
175	10
177	10
178	10
179	1199
180	90
181	1139
182	80
183	359
184	20
185	40
189	10
192	10
194	10
195	99
196	8129
197	679
198	7869
199	579
200	2509
201	179
202	279
203	20
210	10
212	10
214	10
223	899
224	70
225	859
226	60
227	269
228	20
229	30
237	90
238	10
239	90
240	10
241	70
242	10
243	40
245	10
281	379
282	40
283	359
284	40
285	109
286	10
287	10
