Mass Spectrum: Morpholine, 4-(methylsulfonyl)-
Formula: C5 H11 N O3 S
CAS: 1697-34-3
Molecular weight: 165
Origin: Div. of Experiment Therapeutics WRAIR, WRAMC, Washington DC 20307
m/z	RELATIVE INTENSITY
41	743
42	2168
43	501
44	367
45	228
46	59
47	56
48	169
49	124
50	17
51	36
52	61
53	17
54	621
55	1075
56	9999
57	691
58	500
59	83
60	76
62	6
63	183
64	60
65	146
68	5
70	55
71	12
72	43
75	19
76	11
79	2995
80	201
81	155
82	5
84	395
85	121
86	5307
87	299
88	34
90	40
91	5
100	8
106	27
107	722
108	229
109	43
110	12
120	28
122	2095
123	83
124	100
134	559
135	28
136	28
148	6
150	210
151	10
164	52
165	1460
166	148
167	80
168	22
