Mass Spectrum: cis-7-Tetradecen-1-yl acetate
Formula: C16 H30 O2
CAS: 16974-10-0
Molecular weight: 254
Origin: NIST Mass Spectrometry Data Center, 1998.
m/z	RELATIVE INTENSITY
14	10
15	100
26	30
27	600
28	140
29	1230
30	40
31	60
37	10
38	20
39	1100
40	220
41	5319
42	1100
43	9999
44	310
45	70
50	20
51	90
52	80
53	980
54	4780
55	7179
56	1290
57	1030
58	80
59	20
60	20
61	800
62	20
63	20
64	10
65	350
66	740
67	8689
68	4330
69	4120
70	720
71	390
72	40
73	250
74	10
77	320
78	90
79	1160
80	680
81	7899
82	8339
83	2730
84	320
85	120
86	30
87	30
88	10
91	180
92	30
93	310
94	320
95	5559
96	6479
97	1490
98	170
99	40
100	10
101	20
103	10
105	30
106	10
107	100
108	130
109	3180
110	2490
111	470
112	140
113	30
114	10
115	10
116	10
119	10
121	50
122	90
123	1140
124	1120
125	170
126	50
127	20
128	20
129	10
135	20
136	50
137	700
138	820
139	90
140	10
141	10
142	30
143	10
149	10
150	10
151	200
152	180
153	30
155	10
156	10
165	80
166	350
167	60
168	10
169	10
179	10
181	10
183	10
194	1360
195	210
196	20
211	10
