Mass Spectrum: Cobalt, octacarbonyl(zinc)di-, (2Co-Zn)
Formula: C8 Co2 O8 Zn
CAS: 16985-99-2
Molecular weight: 406
Origin: J.M.BURLITCH CORNELL UNIVERSITY, ITHACA, NEW YORK, USA
m/z	RELATIVE INTENSITY
59	3700
64	1700
71	290
87	6100
115	3700
118	6100
123	5200
130	430
143	1000
146	1200
151	4200
174	5900
179	1700
182	3200
202	6300
207	280
210	1400
230	9999
238	1600
258	2300
266	2600
269	280
286	750
294	3400
314	400
322	480
350	1000
378	3600
406	7200
