Mass Spectrum: 1,7-Dicarbadodecaborane(12)
Formula: C2 H12 B10
CAS: 16986-24-6
Molecular weight: 146
Origin: RADIAN CORP
m/z	RELATIVE INTENSITY
12	40
13	330
35	20
36	240
37	510
46	20
47	100
48	90
57	30
58	40
59	20
69	80
78	80
79	130
80	70
87	30
88	170
89	270
90	320
91	200
92	70
98	160
99	420
100	510
101	430
102	210
103	70
109	40
110	190
111	350
112	420
113	250
114	140
115	40
120	160
121	410
122	750
123	960
124	970
125	780
126	440
127	270
128	180
129	130
130	150
131	300
132	650
133	1090
134	1350
135	1590
136	1750
137	1740
138	1830
139	2440
140	4070
141	6880
142	9920
143	9999
144	6590
145	3130
146	1140
