Mass Spectrum: Cobalt, (cadmium)octacarbonyldi-, (2Co-Cd)
Formula: C8 Cd Co2 O8
CAS: 16986-00-8
Molecular weight: 456
Origin: J.M.BURLITCH CORNELL UNIVERSITY, ITHACA, NEW YORK, USA
m/z	RELATIVE INTENSITY
59	3400
71	270
87	5300
114	6900
115	4600
118	4500
130	350
143	1200
146	1000
173	6600
174	4500
201	6900
202	5500
229	3800
230	9999
232	4000
257	890
258	1700
260	1800
286	800
288	2100
314	2400
316	3800
344	2200
372	260
400	380
428	3800
456	9000
