Mass Spectrum: 2-Propanone, 1,1,1,3-tetrachloro-
Formula: C3 H2 Cl4 O
CAS: 16995-35-0
Molecular weight: 194
Origin: Susan Richardson
m/z	RELATIVE INTENSITY
35	400
36	30
37	320
38	430
41	110
42	741
46	10
47	721
48	170
49	3043
50	290
51	1111
53	20
63	410
64	40
65	130
76	180
77	9999
78	240
79	3173
82	951
83	380
84	771
85	200
86	130
94	20
95	530
96	200
97	370
98	100
117	1491
119	1291
120	90
121	510
131	601
132	10
133	601
135	190
159	420
161	420
163	120
165	30
194	30
196	40
198	20
