Mass Spectrum: 2-Methyl-2-octene
Formula: C9 H18
CAS: 16993-86-5
Molecular weight: 126
Origin: NIST Mass Spectrometry Data Center, 1990.
m/z	RELATIVE INTENSITY
26	138
27	1263
28	493
29	1123
39	2215
41	7088
42	755
43	699
44	61
50	139
51	325
52	166
53	1102
54	481
55	3178
56	4447
57	1183
65	229
67	1229
69	9999
70	1595
71	136
77	169
79	185
81	168
82	222
83	609
84	636
85	68
97	123
98	187
111	341
126	2162
127	215
