Mass Spectrum: 4-Benzyloxy-3-methoxyphenylacetonitrile
Formula: C16 H15 N O2
CAS: 1700-29-4
Molecular weight: 253
Origin: NIST Mass Spectrometry Data Center, 1994
m/z	RELATIVE INTENSITY
4	11
14	21
15	89
18	10
26	35
27	87
28	26
29	49
31	33
37	44
38	158
39	786
40	78
41	200
42	18
43	8
46	11
50	226
51	534
52	147
53	92
54	15
55	26
61	30
62	139
63	501
64	425
65	1607
66	132
67	14
69	6
74	32
75	62
76	153
77	407
78	122
79	177
80	17
86	9
87	18
89	317
91	9999
92	830
93	50
94	152
95	15
102	43
103	57
104	51
105	134
106	67
107	186
108	17
115	24
116	61
117	8
119	52
120	10
130	31
131	17
132	17
133	12
134	39
135	13
141	13
148	6
152	13
160	22
161	15
162	51
163	8
181	8
253	389
254	65
