Mass Spectrum: 2-Nonene, 3-methyl-, (E)-
Formula: C10 H20
CAS: 17003-99-5
Molecular weight: 140
Origin: D.HENNEBERG, MAX-PLANCK INSTITUTE, MULHEIM, WEST GERMANY
m/z	RELATIVE INTENSITY
21	12
22	10
23	4
26	90
27	1669
28	106
29	1839
30	39
36	15
37	61
38	41
39	1348
40	195
41	6312
42	2191
43	2554
44	34
45	12
46	6
50	32
51	106
52	53
53	571
54	297
55	6780
56	1548
57	452
58	8
63	18
65	106
66	63
67	598
68	344
69	3865
70	9999
71	1670
72	38
77	57
78	6
79	70
80	8
81	116
82	110
83	916
84	205
85	20
88	14
91	11
93	7
95	32
96	10
97	51
98	29
109	6
110	91
111	499
112	71
113	7
140	788
141	60
