Mass Spectrum: Benzaldehyde, 3-(phenylmethoxy)-
Formula: C14 H12 O2
CAS: 1700-37-4
Molecular weight: 212
Origin: NIST Mass Spectrometry Data Center, 1992
m/z	RELATIVE INTENSITY
12	3
15	6
17	7
18	41
25	3
26	39
27	115
28	9
29	117
30	1
31	5
37	65
38	312
39	1385
40	76
41	192
42	10
43	2
46	3
50	327
51	649
52	114
53	48
54	6
55	15
61	47
62	215
63	796
64	448
65	2517
66	163
67	5
73	10
74	79
75	67
76	123
77	236
78	38
79	13
80	2
82	4
83	7
85	6
86	15
87	17
89	339
91	9999
92	1114
93	70
94	4
96	2
97	15
98	3
101	3
102	5
103	3
104	7
105	42
106	6
107	2
113	2
115	23
116	3
119	5
120	21
121	59
122	11
125	1
126	9
127	17
128	17
129	11
130	3
139	6
140	2
141	3
150	4
151	14
152	42
153	32
154	14
155	25
156	3
165	24
166	4
168	4
169	2
181	15
182	5
183	14
184	12
185	3
193	2
194	7
195	3
209	2
212	671
213	102
214	10
