Mass Spectrum: 2-Chloro-3-methyl-1,4-naphthoquinone
Formula: C11 H7 Cl O2
CAS: 17015-99-5
Molecular weight: 206
Origin: R.T. LOEFFLER,LONG ASHTON RES. STN.,LONG ASHTON,BRISTOL,U.K.
m/z	RELATIVE INTENSITY
39	850
50	1450
74	800
75	900
76	2250
89	950
104	1100
105	800
114	900
115	5050
143	5700
171	9999
172	1300
178	1150
188	1000
206	9850
208	3550
