Mass Spectrum: (S)-(+)-4-Isopropyl-2-oxazolidinone
Formula: C6 H11 N O2
CAS: 17016-83-0
Molecular weight: 129
Origin: NIST Mass Spectrometry Data Center, 1994
m/z	RELATIVE INTENSITY
15	1827
26	225
27	1644
28	2453
29	807
30	716
38	275
39	2239
40	503
41	2983
42	6157
43	3468
44	394
50	114
51	113
52	160
53	186
54	301
55	347
56	663
57	331
58	3336
68	114
70	216
85	4078
86	9999
87	1144
88	101
129	448
