Mass Spectrum: 3-Methoxy-5-nitrosalicylaldehyde
Formula: C8 H7 N O5
CAS: 17028-61-4
Molecular weight: 197
Origin: NIST Mass Spectrometry Data Center
m/z	RELATIVE INTENSITY
15	180
25	10
26	100
27	130
29	651
30	601
31	60
33	10
36	10
37	200
38	420
39	751
40	160
41	360
42	160
43	160
44	30
45	50
46	110
48	20
49	320
50	1902
51	3253
52	3323
53	2082
54	390
55	831
56	60
57	60
58	60
59	70
60	50
61	530
62	1281
63	1672
64	520
65	1011
66	400
67	571
68	721
69	490
70	70
71	30
72	10
73	80
74	300
75	1001
76	140
77	911
78	300
79	2182
80	3243
81	290
82	80
83	160
84	20
85	20
87	10
89	10
90	160
91	701
92	210
93	550
94	120
95	571
96	871
97	90
98	30
101	10
103	90
104	30
105	621
106	150
107	691
108	5125
109	390
110	80
111	180
112	10
118	10
119	310
120	120
121	1461
122	951
123	470
124	260
125	30
126	10
131	20
132	10
133	160
134	60
135	160
136	4554
137	510
138	100
139	921
140	70
141	10
147	10
149	240
150	1201
151	6216
152	611
153	100
154	190
155	10
165	230
166	50
167	1261
168	510
169	280
170	20
178	90
179	460
180	200
181	220
182	180
183	20
196	781
197	9999
198	941
199	140
200	10
