Mass Spectrum: Rhenium tetrafluoride oxide
Formula: F4 O Re
CAS: 17026-29-8
Molecular weight: 279
Origin: R.T.PAINE UNIV. CALIF., LOS ALAMOS, NEW MEXICO, USA
m/z	RELATIVE INTENSITY
185	600
187	1200
201	200
203	700
204	400
206	700
220	400
222	600
223	400
225	800
239	700
241	1000
242	300
244	500
255	200
257	300
258	5300
260	9999
261	200
263	300
277	900
279	1600
