Mass Spectrum: Calusterone
Formula: C21 H32 O2
CAS: 17021-26-0
Molecular weight: 316
Origin: Drug Lab
m/z	RELATIVE INTENSITY
37	10
38	20
39	1121
40	290
41	4144
42	340
43	9999
44	250
45	350
46	10
50	40
51	350
52	270
53	2302
54	330
55	6416
56	350
57	1641
58	1281
59	330
60	20
61	10
62	10
63	110
64	70
65	1511
66	601
67	4994
68	1181
69	1782
70	150
71	5375
72	991
73	90
74	30
75	20
76	70
77	4414
78	961
79	6706
80	951
81	5105
82	581
83	1161
84	120
85	510
86	70
87	30
88	20
89	110
90	70
91	7427
92	1161
93	6105
94	1331
95	4614
96	661
97	2072
98	200
99	180
100	40
101	40
102	100
103	741
104	360
105	6065
106	1241
107	5425
108	1872
109	2722
110	581
111	721
112	80
113	130
114	40
115	1321
116	540
117	1722
118	591
119	4734
120	1672
121	4574
122	4004
123	6166
124	6516
125	951
126	90
127	280
128	951
129	1061
130	430
131	2082
132	761
133	4784
134	2742
135	6246
136	1361
137	911
138	140
139	80
140	20
141	460
142	420
143	871
144	410
145	2472
146	1001
147	3283
148	2002
149	2502
150	1391
151	4194
152	761
153	260
154	110
155	370
156	230
157	991
158	430
159	2062
160	791
161	2172
162	1571
163	2692
164	711
165	681
166	160
167	120
168	60
169	280
170	180
171	851
172	420
173	1521
174	1171
175	5325
176	1241
177	1381
178	230
179	80
180	30
181	80
182	50
183	280
184	140
185	671
186	260
187	941
188	731
189	761
190	350
191	410
192	1011
193	2372
194	350
195	150
196	40
197	180
198	190
199	561
200	290
201	1241
202	440
203	1081
204	530
205	100
206	30
207	10
208	10
209	90
210	40
211	190
212	80
213	440
214	350
215	460
216	601
217	390
218	80
219	10
220	10
221	20
223	80
224	40
225	330
226	100
227	1031
228	290
229	220
230	110
231	1171
232	210
233	20
234	10
237	30
238	20
239	100
240	240
241	671
242	320
243	2592
244	561
245	601
246	661
247	120
248	10
251	20
252	10
253	10
254	80
255	450
256	280
257	90
258	611
259	4094
260	801
261	80
265	130
266	20
267	10
269	30
270	30
271	10
272	10
273	100
274	230
275	40
280	70
281	40
282	20
283	971
284	210
285	30
287	10
288	490
289	100
290	10
296	10
297	20
298	961
299	240
300	40
301	2783
302	601
303	70
314	10
315	20
316	5455
317	1301
318	170
319	10
