Mass Spectrum: 3,6-Heptanedione
Formula: C7 H12 O2
CAS: 1703-51-1
Molecular weight: 128
Origin: James Little,Eastman Chem.Co.,Kingsport,TN
m/z	RELATIVE INTENSITY
28	691
29	5175
30	120
31	80
39	310
41	410
42	631
43	9999
44	250
45	70
53	150
55	410
56	310
57	6506
58	270
67	70
70	60
71	1511
72	90
81	150
85	230
95	70
99	5735
100	310
