Mass Spectrum: Benzenemethanol, 4-(dimethylamino)-
Formula: C9 H13 N O
CAS: 1703-46-4
Molecular weight: 151
Origin: ORMSBG,9(1)125(1974); ECKHARDT
m/z	RELATIVE INTENSITY
42	520
77	1160
79	580
81	610
91	590
107	950
118	1060
120	990
122	810
134	9999
135	1550
148	1060
149	700
150	5630
151	8800
152	920
