Mass Spectrum: 3-Hexanone, 4-methyl-
Formula: C7 H14 O
CAS: 17042-16-9
Molecular weight: 114
Origin: A.QUAYLE, SHELL LTD., THORNTON RES. CENT., CHESTER, CHES., UK
m/z	RELATIVE INTENSITY
26	162
27	1000
29	4981
30	150
39	411
41	1577
42	98
43	237
53	124
55	271
56	573
57	9999
58	441
85	935
86	698
99	101
114	898
115	105
