Mass Spectrum: Demeton-S-methyl sulfone
Formula: C6 H15 O5 P S2
CAS: 17040-19-6
Molecular weight: 262
Origin: CATALOGUE OF MASS SPECTRA OF PESTICIDES, APRIL, 1975; J. FREUDENTHAL & L. G. GRAMBERG, NAT'L INST. OF PUBLIC HEALTH, THE NETHERLANDS
m/z	RELATIVE INTENSITY
15	479
27	323
29	644
31	116
45	182
47	542
49	147
58	111
59	593
60	343
61	271
63	191
75	106
77	140
79	1147
80	125
93	499
95	235
109	6313
110	1130
111	385
112	456
125	4444
126	171
127	507
128	139
137	212
142	1075
168	1217
169	9999
170	689
171	621
