Mass Spectrum: tert-Butyl N-(1-hydroxy-2,2,2-trifluoroethyl)carbamate
Formula: C7 H12 F3 N O3
CAS: 17049-74-0
Molecular weight: 215
Origin: NIST Mass Spectrometry Data Center, 1994
m/z	RELATIVE INTENSITY
12	179
13	119
14	226
15	1150
16	437
17	260
18	318
25	65
26	268
27	1660
28	1522
29	6025
30	212
31	2585
32	284
37	92
38	252
39	2516
40	508
41	6937
42	617
43	2766
44	1767
45	513
46	262
47	119
48	110
49	284
50	1414
51	3143
52	96
53	205
54	92
55	614
56	1777
57	9999
58	746
59	9447
60	339
61	96
62	1025
63	87
69	1433
74	144
78	163
79	485
90	288
98	898
99	153
102	141
124	149
142	199
146	320
160	323
