Mass Spectrum: 2-Pyridinesulfonylacetonitrile
Formula: C7 H6 N2 O2 S
CAS: 170449-34-0
Molecular weight: 182
Origin: NIST Mass Spectrometry Data Center, 1994
m/z	RELATIVE INTENSITY
12	37
13	88
25	37
26	303
27	697
28	336
32	13
37	128
38	378
39	607
40	978
41	127
44	28
45	14
48	325
49	188
50	1199
51	4413
52	1325
53	61
57	69
58	19
62	22
63	51
64	187
65	68
66	25
67	21
68	12
69	42
70	31
75	239
76	352
78	9999
79	644
80	25
81	23
82	31
83	19
91	31
118	1890
119	147
126	17
142	96
182	304
183	33
184	20
