Mass Spectrum: 1H-Indene, 2,3-dihydro-1,6-dimethyl-
Formula: C11 H14
CAS: 17059-48-2
Molecular weight: 146
m/z	RELATIVE INTENSITY
24	10
25	10
26	100
27	681
28	120
29	80
30	10
32	10
36	10
37	30
38	110
39	871
40	80
41	210
42	10
43	10
44	10
45	10
49	10
50	270
51	751
52	190
53	360
54	20
55	10
56	10
57	30
58	70
59	10
60	10
61	30
62	140
63	480
64	530
65	500
66	50
67	20
68	10
69	20
70	70
71	230
72	180
73	20
74	100
75	120
76	90
77	520
78	160
79	120
80	10
81	10
84	10
85	10
86	40
87	50
88	20
89	150
90	30
91	1111
92	100
93	10
94	10
97	10
98	20
99	10
100	10
101	40
102	150
103	200
104	70
105	300
106	30
107	10
109	10
110	10
111	10
112	10
113	20
114	30
115	1251
116	911
117	180
118	20
119	20
120	10
122	10
125	10
126	50
127	330
128	851
129	931
130	380
131	9999
132	1111
133	60
134	10
137	10
138	10
139	40
140	10
141	130
142	70
143	90
144	190
145	671
146	2682
147	320
148	20
149	10
