Mass Spectrum: 2-Ethyl-1-H-indene
Formula: C11 H12
CAS: 17059-50-6
Molecular weight: 144
Origin: V.G.Zaikin, TIPS, Russian Acad. Sci.
m/z	RELATIVE INTENSITY
51	500
52	170
62	200
63	600
64	250
65	290
71	300
73	120
74	150
75	220
76	130
77	360
78	210
86	120
87	150
89	300
91	230
101	110
102	310
103	200
104	350
115	2302
116	600
117	130
126	150
127	1251
128	3072
129	9999
130	1101
141	300
142	100
143	500
144	4854
145	581
146	31
