Mass Spectrum: 1H-Indene, 2,3-dihydro-1,2-dimethyl-
Formula: C11 H14
CAS: 17057-82-8
Molecular weight: 146
m/z	RELATIVE INTENSITY
24	10
25	10
26	160
27	901
28	230
29	220
30	20
31	10
32	10
37	50
38	170
39	1211
40	110
41	350
42	20
43	140
44	20
45	10
46	10
49	20
50	410
51	1001
52	230
53	380
54	20
55	40
56	10
57	60
58	190
59	30
60	10
61	50
62	210
63	701
64	540
65	571
66	50
67	50
68	20
69	30
70	60
71	170
72	90
73	20
74	160
75	190
76	140
77	701
78	240
79	140
80	10
81	10
84	10
85	20
86	50
87	80
88	30
89	290
90	70
91	2092
92	210
93	10
94	10
97	10
98	20
99	10
100	10
101	60
102	210
103	340
104	120
105	250
106	30
107	10
108	10
109	10
110	10
111	10
113	30
114	50
115	1702
116	901
117	791
118	120
119	40
120	10
121	10
122	10
125	10
126	70
127	400
128	1021
129	1481
130	540
131	9999
132	1141
133	70
134	10
137	10
138	10
139	50
140	10
141	200
142	140
143	140
144	410
145	791
146	2963
147	500
148	40
149	10
