Mass Spectrum: 9H-Fluorene, 1,9-dimethyl-
Formula: C15 H14
CAS: 17057-98-6
Molecular weight: 194
Origin: D.HOFFMANN, AMERICAN HEALTH FOUNDATION, NEW YORK, N.Y., USA
m/z	RELATIVE INTENSITY
51	300
63	400
76	900
89	1300
115	200
139	200
152	800
164	100
165	400
179	9999
180	1400
194	4600
