Mass Spectrum: Benzenamine, N-[(2-nitrophenyl)methylene]-
Formula: C13 H10 N2 O2
CAS: 17064-77-6
Molecular weight: 226
m/z	RELATIVE INTENSITY
51	5205
52	500
77	9999
78	801
152	1601
153	155
168	1902
169	200
179	9899
180	1001
181	100
209	9709
210	1201
211	100
226	6506
227	801
