Mass Spectrum: 4-Pyrenamine
Formula: C16 H11 N
CAS: 17075-03-5
Molecular weight: 217
Origin: Organic Synthesis Lab, MSU, Moscow.TRC 199q
m/z	RELATIVE INTENSITY
68	40
69	20
72	70
74	60
75	40
83	20
85	40
86	70
87	90
88	20
98	40
99	110
100	190
110	50
111	40
113	20
137	40
150	50
161	40
162	50
163	130
164	50
165	50
174	50
185	50
186	100
187	530
188	390
189	2662
190	621
191	70
198	100
199	110
200	881
201	220
202	40
212	50
213	50
214	240
215	100
216	380
217	9999
218	1672
219	150
