Mass Spectrum: D-Mannitol, 1,2:5,6-bis-O-(1-methylethylidene)-
Formula: C12 H22 O6
CAS: 1707-77-3
Molecular weight: 262
Origin: D.HENNEBERG, MAX-PLANCK INSTITUTE, MULHEIM, WEST GERMANY
m/z	RELATIVE INTENSITY
26	90
27	490
28	203
29	561
30	29
31	817
32	21
38	10
39	321
40	107
41	1001
42	600
43	8644
44	275
45	715
46	19
47	112
50	20
51	17
52	17
53	102
54	14
55	720
56	265
57	1620
58	231
59	4548
60	307
61	1074
62	22
63	23
65	19
67	37
68	31
69	950
70	74
71	228
72	1365
73	1599
74	356
75	71
77	27
78	10
81	124
82	20
83	814
84	73
85	782
86	203
87	149
88	10
89	10
91	29
93	18
95	17
97	83
98	55
99	315
100	108
101	9999
102	619
103	837
104	45
105	19
107	5
108	15
109	8
110	15
111	1410
112	91
113	163
114	121
115	322
116	232
117	32
119	154
126	34
127	29
128	38
129	762
130	62
131	816
132	113
133	48
141	16
143	339
144	301
145	149
146	21
147	819
148	56
149	14
153	10
154	8
157	9
159	39
160	5
161	227
162	24
171	196
172	23
173	17
183	18
185	16
186	29
187	7
189	1225
190	114
191	20
213	15
229	185
230	28
231	15
247	1717
248	199
249	33
262	11
