Mass Spectrum: 1,3-Dioxolane, 2-hexyl-
Formula: C9 H18 O2
CAS: 1708-34-5
Molecular weight: 158
Origin: W.Jennings, T.Shibamoto
m/z	RELATIVE INTENSITY
41	70
43	991
44	791
45	5195
46	70
55	190
57	390
58	280
71	70
73	9999
74	1692
75	280
81	70
85	190
88	70
101	70
157	1091
