Mass Spectrum: TATP
Formula: C9 H18 O6
CAS: 17088-37-8
Molecular weight: 222
Origin: Robert B. Cody, JEOL USA, Inc
m/z	RELATIVE INTENSITY
29	390
30	10
31	150
32	80
33	10
36	10
37	60
38	60
39	150
40	90
41	220
42	430
43	9999
44	380
45	200
47	30
53	20
55	50
57	520
58	2732
59	1682
60	80
73	330
74	250
75	1241
76	30
77	0
89	10
91	0
101	70
117	50
222	0
