Mass Spectrum: O-Methyl S-2-diethylaminoethyl ethylphosphonothiolate
Formula: C9 H22 N O2 P S
CAS: 170800-77-8
Molecular weight: 239
Origin: VERIFIN - Methodology B1-1979
m/z	RELATIVE INTENSITY
27	100
28	100
29	200
30	200
41	60
42	300
43	50
44	300
56	400
57	80
58	600
59	50
61	70
70	300
71	600
72	200
79	500
84	600
85	60
86	9999
87	600
98	50
99	2402
100	300
107	600
130	70
167	200
238	10
