Mass Spectrum: Azobenzene, (E)-
Formula: C12 H10 N2
CAS: 17082-12-1
Molecular weight: 182
Origin: GAZ DE FRANCE, DELORME, PARIS, FRANCE
m/z	RELATIVE INTENSITY
26	28
27	265
37	51
38	149
39	248
40	25
41	25
49	13
50	196
51	2078
52	78
61	17
62	44
63	179
64	207
65	82
74	61
75	63
76	39
77	9999
78	627
89	16
90	15
91	49
93	28
102	41
105	180
106	137
115	102
127	35
128	80
139	38
151	124
152	482
153	414
154	94
182	2732
183	340
