Mass Spectrum: Furan, 2,5-dihydro-3-methyl-
Formula: C5 H8 O
CAS: 1708-31-2
Molecular weight: 84
Origin: J.VOTH UNIV. OF CALIFORNIA, DAVIS, CALIFORNIA, 95616, USA
m/z	RELATIVE INTENSITY
2	176
12	155
13	260
14	611
15	1275
16	65
17	109
18	358
19	16
20	3
24	46
25	291
26	2114
27	8859
28	3512
29	9999
30	475
31	308
32	25
36	93
37	772
38	1255
39	8557
40	1040
41	9363
42	500
43	1349
44	506
45	134
48	53
49	381
50	1748
51	1809
52	748
53	3557
54	1510
55	990
56	4463
57	348
58	27
59	11
60	12
61	35
62	34
63	32
64	4
65	129
66	37
67	25
68	113
69	5123
70	235
71	18
73	7
77	4
79	3
81	134
82	178
83	2237
84	6846
85	379
86	27
