Mass Spectrum: Furan, 2,3-dihydro-2,5-dimethyl-
Formula: C6 H10 O
CAS: 17108-52-0
Molecular weight: 98
Origin: D.HENNEBERG, MAX-PLANCK INSTITUTE, MULHEIM, WEST GERMANY
m/z	RELATIVE INTENSITY
24	3
25	17
26	183
27	1252
28	62
29	856
30	22
31	34
33	3
35	4
36	4
37	51
38	85
39	1909
40	107
41	625
42	231
43	9999
44	225
45	498
46	16
47	11
48	22
49	26
50	151
51	212
52	125
53	826
54	1455
55	2171
56	244
57	40
58	39
59	12
61	26
62	5
63	8
64	2
65	30
66	4
67	38
68	12
69	115
70	56
71	113
72	5
75	8
77	50
78	8
79	227
80	28
81	82
82	95
83	2101
84	125
85	5
95	46
96	32
97	587
98	2838
99	201
100	10
