Mass Spectrum: Benzoyl chloride, 4-(1,1-dimethylethyl)-
Formula: C11 H13 Cl O
CAS: 1710-98-1
Molecular weight: 196
Origin: Japan AIST/NIMC Database- Spectrum MS-NW-7785
m/z	RELATIVE INTENSITY
14	10
15	70
18	10
26	20
27	199
28	50
29	229
35	10
36	80
37	20
38	70
39	509
40	60
41	889
42	40
43	20
44	20
45	50
49	10
50	359
51	639
52	109
53	99
54	10
55	139
56	40
57	209
58	359
59	80
61	30
62	90
63	249
64	70
65	349
66	40
67	20
71	159
72	439
73	239
74	139
75	199
76	199
77	589
78	179
79	70
82	10
83	10
84	10
85	10
86	30
87	50
88	20
89	189
90	269
91	839
92	90
93	60
95	10
98	20
99	20
101	90
102	189
103	349
104	70
105	379
106	40
107	10
110	10
111	10
113	40
114	20
115	599
116	169
117	539
118	899
119	259
120	20
123	20
125	839
126	70
127	299
128	50
129	20
130	10
131	99
132	20
133	169
134	30
135	10
137	30
138	10
139	30
140	10
141	40
143	20
144	10
145	339
146	599
147	90
148	10
152	10
153	1189
154	139
155	399
156	40
157	10
159	20
160	20
161	9999
162	1239
163	139
164	10
165	10
167	10
175	10
178	10
180	10
181	2279
182	279
183	779
184	90
196	319
197	40
198	99
199	20
