Mass Spectrum: 2,4-Furandicarboxylic acid, dimethyl ester
Formula: C8 H8 O5
CAS: 1710-13-0
Molecular weight: 184
Origin: INST.OF CLINICAL BIOCHEM,RIKSHOSP,UNIV.OF OSLO,E.JELLUM,ET.A
m/z	RELATIVE INTENSITY
29	800
37	600
38	2500
39	1000
53	1300
59	1700
66	1700
69	900
85	600
93	1500
94	600
121	1600
153	9999
154	1000
184	4200
