Mass Spectrum: 1-Naphthalenemethyl isothiocyanate
Formula: C12 H9 N S
CAS: 17112-82-2
Molecular weight: 199
Origin: NIST Mass Spectrometry Data Center, 1994
m/z	RELATIVE INTENSITY
14	5
26	78
27	172
28	172
32	123
34	24
37	58
38	162
39	565
40	47
41	23
44	105
45	155
50	459
51	494
52	109
53	20
58	606
59	91
60	28
61	138
62	441
63	982
64	151
65	267
66	19
70	278
72	83
73	61
74	457
75	398
76	269
77	236
78	38
83	398
84	142
85	188
86	272
87	321
88	188
89	599
90	54
91	160
93	18
98	150
99	217
101	90
102	135
103	22
110	41
111	50
112	39
113	300
114	22
115	3464
116	350
117	24
125	33
126	183
127	244
128	95
137	71
139	1319
141	9999
142	1147
143	76
153	40
154	82
164	43
166	418
167	261
168	43
170	20
171	154
172	33
173	17
199	1548
200	240
201	89
