Mass Spectrum: Benzoyl chloride, 3-fluoro-
Formula: C7 H4 Cl F O
CAS: 1711-07-5
Molecular weight: 158
Origin: Japan AIST/NIMC Database- Spectrum MS-IW- 704
m/z	RELATIVE INTENSITY
26	10
27	10
28	20
31	60
35	10
36	70
37	109
38	99
39	60
44	10
45	30
47	299
48	20
49	70
50	489
51	219
52	10
53	20
55	10
56	30
57	80
60	10
61	629
62	139
63	90
65	30
68	269
69	389
70	30
73	60
74	319
75	1529
76	129
77	10
80	10
81	10
85	10
91	50
92	80
93	109
94	299
95	4569
96	319
97	10
107	10
109	10
111	10
122	20
123	9999
124	779
125	40
129	20
130	10
140	10
158	1059
159	80
160	349
161	20
