Mass Spectrum: Benzoyl chloride, 3-methoxy-
Formula: C8 H7 Cl O2
CAS: 1711-05-3
Molecular weight: 170
Origin: Japan AIST/NIMC Database- Spectrum MS-NW-6364
m/z	RELATIVE INTENSITY
14	20
15	169
16	10
25	20
26	60
27	70
28	259
29	99
30	20
31	80
35	40
36	179
37	199
38	519
39	239
40	10
41	10
42	10
43	30
44	159
46	20
48	10
49	80
50	629
51	279
52	50
53	139
54	10
55	10
57	10
60	30
61	139
62	329
63	1249
64	1319
65	129
66	50
67	149
68	10
70	10
72	20
73	119
74	299
75	329
76	399
77	3029
78	279
79	189
80	20
81	20
83	10
84	10
85	30
86	10
87	10
90	10
91	40
92	2179
93	169
94	20
95	10
96	10
98	10
99	109
100	10
101	40
103	40
104	50
105	40
106	40
107	2559
108	239
109	20
111	40
112	20
113	20
119	40
120	109
121	20
122	10
126	20
127	20
128	10
129	10
133	50
134	20
135	9999
136	919
137	80
139	20
141	10
142	10
151	10
152	149
153	20
154	30
155	20
169	10
170	2039
171	209
172	679
173	70
