Mass Spectrum: Benzoyl chloride, 3-methyl-
Formula: C8 H7 Cl O
CAS: 1711-06-4
Molecular weight: 154
Origin: Japan AIST/NIMC Database- Spectrum MS-NW-2821
m/z	RELATIVE INTENSITY
15	10
26	40
27	90
28	80
35	20
36	50
37	99
38	169
39	799
40	70
41	219
43	90
44	50
45	69
46	10
49	50
50	379
51	399
52	109
53	40
59	189
60	30
61	119
62	289
63	749
64	229
65	1809
66	99
73	40
74	109
75	90
76	80
77	60
80	10
82	10
84	10
85	40
86	70
87	50
88	20
89	689
90	419
91	6149
92	479
93	20
99	20
101	10
105	60
116	10
117	30
118	60
119	9999
120	889
121	60
124	10
125	50
126	10
127	10
136	20
138	10
153	10
154	739
155	70
156	229
157	20
