Mass Spectrum: 2-Methyl-1,5-hexadiene-3-ol
Formula: C7 H12 O
CAS: 17123-60-3
Molecular weight: 112
Origin: NIST Mass Spectrometry Data Center, 1990.
m/z	RELATIVE INTENSITY
26	146
27	1021
28	194
29	456
31	253
38	411
39	3073
40	626
41	4493
42	959
43	649
44	340
45	224
50	328
51	474
52	205
53	853
54	149
55	652
65	199
67	202
68	165
69	536
71	9999
72	490
77	809
78	181
79	893
83	230
93	127
94	353
97	364
