Mass Spectrum: Morpholine, 4-(phenylacetyl)-
Formula: C12 H15 N O2
CAS: 17123-83-0
Molecular weight: 205
Origin: Zaikin V.G., TIPS RAS, Moscow, Russia
m/z	RELATIVE INTENSITY
26	50
27	120
28	20
29	220
30	120
36	30
39	270
40	30
41	140
42	641
43	80
44	80
45	210
46	30
50	60
51	150
52	30
54	60
55	120
56	961
57	831
58	60
62	50
63	220
64	70
65	901
66	50
70	3613
71	140
72	50
74	100
77	60
84	40
85	80
86	701
87	110
88	70
89	390
90	470
91	4094
92	420
103	20
104	90
105	60
114	9999
115	631
116	60
117	30
118	801
119	110
127	40
132	50
162	90
174	50
190	130
204	140
205	3974
206	561
207	40
