Mass Spectrum: 3-Fluoro-5-(trifluoromethyl)benzoyl chloride
Formula: C8 H3 Cl F4 O
CAS: 171243-30-4
Molecular weight: 226
Origin: NIST Mass Spectrometry Data Center, 1994
m/z	RELATIVE INTENSITY
16	16
18	59
20	40
25	34
28	77
35	205
36	92
37	412
38	270
39	51
44	22
47	76
48	27
49	189
50	1087
51	282
52	17
53	84
55	44
56	189
57	225
60	56
61	406
62	838
63	887
64	51
65	47
68	714
69	1332
70	34
71	28
72	228
73	219
74	666
75	1084
76	55
77	21
79	65
80	104
81	129
84	36
85	103
86	313
87	82
88	38
91	35
92	327
93	783
94	983
96	216
98	31
99	313
100	28
103	32
104	57
105	87
106	33
109	23
110	19
111	74
112	305
113	1208
114	95
117	73
118	46
119	31
122	88
123	137
124	36
125	203
129	25
132	32
137	53
143	1182
144	573
145	45
161	91
163	7772
164	623
165	25
172	32
179	192
180	20
181	53
191	9999
192	875
193	61
197	36
207	581
208	55
209	210
210	24
226	308
227	30
228	101
