Mass Spectrum: Ethyl 3-isothiocyanatopropionate
Formula: C6 H9 N O2 S
CAS: 17126-62-4
Molecular weight: 159
Origin: NIST Mass Spectrometry Data Center
m/z	RELATIVE INTENSITY
12	30
15	671
17	50
19	90
26	1561
27	5925
28	881
29	6166
30	561
31	430
33	80
34	50
37	40
38	100
39	120
40	190
41	260
42	931
43	1191
44	530
45	2022
46	180
47	60
51	80
52	170
53	100
54	400
55	1181
56	340
57	320
58	1101
59	2632
60	2262
61	180
62	110
70	290
71	2112
72	9218
73	1011
74	380
82	340
83	90
85	9999
86	2452
87	1111
88	2142
89	140
90	90
98	90
101	40
102	50
103	70
112	110
114	4974
115	3283
116	571
117	160
130	230
131	230
159	4934
160	370
161	290
