Mass Spectrum: Octafluoromethanetetramine
Formula: C F8 N4
CAS: 17125-65-4
Molecular weight: 220
Origin: A.Pleshkova, Nesmeyanov Inst.Org.Elem.Cpds, Moscow
m/z	RELATIVE INTENSITY
14	530
19	190
26	751
27	10
28	380
31	5695
32	70
33	4114
34	20
40	781
41	10
45	550
46	10
47	230
50	1692
51	20
52	6126
53	20
54	110
55	10
59	791
60	20
64	7987
65	120
78	1201
79	20
83	110
97	9999
98	190
116	80
168	3833
169	90
