Mass Spectrum: Acetic acid, (2,4-dichlorophenoxy)-, 2-methylpropyl ester
Formula: C12 H14 Cl2 O3
CAS: 1713-15-1
Molecular weight: 276
Origin: J. SHAW, BORRISTON RESEARCH, ROCKVILLE, MD, USA
m/z	RELATIVE INTENSITY
33	20
34	40
35	30
36	110
37	120
38	230
39	1611
40	760
41	7757
42	2582
43	2872
44	240
45	90
47	40
48	10
49	80
50	380
51	230
52	30
53	160
55	780
56	980
57	9999
58	870
59	80
60	40
61	160
62	350
63	1001
64	60
65	70
66	10
67	30
68	10
69	60
70	80
71	270
72	160
73	580
74	750
75	1151
76	120
77	220
78	20
79	30
81	30
83	170
84	180
85	260
86	70
87	160
89	50
90	10
91	40
92	10
93	30
94	10
95	20
96	40
97	210
98	230
99	160
100	90
101	40
105	20
107	110
109	1331
110	370
111	1411
112	340
113	350
114	80
115	30
119	20
120	10
121	20
123	10
125	30
126	110
127	50
128	80
129	20
130	10
133	550
135	380
136	20
137	50
138	10
139	80
140	30
141	70
142	10
143	50
145	1121
147	1041
148	80
149	290
150	20
151	30
155	20
156	30
157	10
158	10
159	10
161	330
162	1541
163	280
164	950
165	90
166	150
167	20
173	40
175	1521
176	290
177	930
178	170
179	140
180	30
185	870
186	90
187	250
188	20
205	10
220	720
222	520
223	40
224	70
276	680
278	500
280	110
