Mass Spectrum: Benzeneacetic acid, 4-hydroxy-, ethyl ester
Formula: C10 H12 O3
CAS: 17138-28-2
Molecular weight: 180
Origin: R.SELF AGRICULTURAL RES., FOOD RES. INSTITUTE, NORWICH, U.K.
m/z	RELATIVE INTENSITY
27	435
29	897
39	244
41	185
43	244
44	352
45	324
51	301
52	185
53	185
55	216
77	730
78	315
107	9999
108	875
119	129
180	2730
181	273
