Mass Spectrum: 1,2,4,5-Tetrakis(trimethylsilyl)benzene
Formula: C18 H38 Si4
CAS: 17156-61-5
Molecular weight: 366
Origin: F. TURECEK,HEYROVSKY INST PHYS CHEM & ELECTROCHEM,PRAGUE,CZECH
m/z	RELATIVE INTENSITY
31	100
41	70
43	240
44	100
45	1830
46	100
47	50
55	50
57	100
58	50
59	570
60	50
67	100
69	70
71	50
72	70
73	9999
74	890
75	370
83	380
85	50
93	70
95	50
97	430
98	50
99	70
107	100
109	70
111	70
113	70
115	70
121	70
123	50
125	100
129	140
131	100
133	50
135	50
138	70
139	50
141	100
144	100
145	360
146	50
149	50
152	1330
153	330
155	520
156	100
157	70
159	100
160	290
161	140
163	140
165	210
168	330
169	70
173	70
175	270
176	70
177	170
179	70
187	100
189	290
190	100
191	330
192	70
201	100
203	170
204	170
205	480
206	120
207	50
215	50
217	140
219	50
231	140
233	210
235	70
245	130
247	760
248	210
249	190
261	450
262	140
263	4380
264	1310
265	600
266	120
277	290
278	190
279	120
280	50
290	50
293	140
294	70
305	100
319	260
320	100
335	4660
336	1920
337	1050
338	240
339	100
351	9040
352	3560
353	1920
354	550
355	140
366	4380
367	1810
368	930
369	240
