Mass Spectrum: Acetaldehyde, methylhydrazone
Formula: C3 H8 N2
CAS: 17167-73-6
Molecular weight: 72
Origin: ATLAS OF MASS SPECTRA OF ORGANIC COMPOUNDS, V. A. KOPTYUG, ED.
m/z	RELATIVE INTENSITY
27	1670
28	3860
29	2000
30	8630
31	1310
39	340
40	540
41	1360
42	3630
43	1950
44	950
45	120
55	500
56	650
57	3680
58	190
69	150
71	1810
72	9999
73	500
