Mass Spectrum: Cyclohexane, 1-bromo-2-fluoro-, trans-
Formula: C6 H10 Br F
CAS: 17170-96-6
Molecular weight: 180
Origin: J. M. PECHINE
m/z	RELATIVE INTENSITY
27	1030
28	190
29	385
33	250
38	110
39	1385
40	190
41	2765
42	250
45	110
46	240
47	255
51	405
53	880
54	350
55	1950
59	2320
65	230
67	155
72	585
73	690
77	220
79	800
80	235
81	9999
82	715
85	325
101	5915
102	390
180	1325
182	1235
