Mass Spectrum: Dibenzyl phosphite
Formula: C14 H15 O3 P
CAS: 17176-77-1
Molecular weight: 262
Origin: NIST Mass Spectrometry Data Center, 1994
m/z	RELATIVE INTENSITY
14	60
27	100
28	24
29	46
31	37
32	31
38	94
39	775
40	89
41	167
47	106
50	244
51	857
52	242
53	101
61	38
62	145
63	461
64	38
65	2515
66	166
73	51
74	75
75	80
76	38
77	1487
78	316
79	2377
80	163
89	701
91	8196
92	919
93	51
105	466
107	4657
108	504
109	55
133	43
141	87
165	107
166	33
167	37
171	9999
172	770
173	92
178	85
179	223
180	2366
181	374
183	28
