Mass Spectrum: Silane, dichlorodiethyl-
Formula: C4 H10 Cl2 Si
CAS: 1719-53-5
Molecular weight: 156
Origin: RADIAN CORP
m/z	RELATIVE INTENSITY
27	340
28	40
29	250
43	10
53	160
54	20
55	70
63	1590
64	210
65	800
66	90
67	110
77	60
78	10
79	40
89	30
90	70
91	130
92	390
93	240
94	150
95	70
98	900
99	3990
100	820
101	2750
102	250
103	510
112	120
113	60
114	90
115	80
120	160
121	250
122	80
123	120
125	190
127	9999
128	870
129	6490
130	490
131	1230
132	80
156	800
157	120
158	560
159	80
160	100
