Mass Spectrum: Silane, chloro(chloromethyl)dimethyl-
Formula: C3 H8 Cl2 Si
CAS: 1719-57-9
Molecular weight: 142
Origin: RADIAN CORP
m/z	RELATIVE INTENSITY
14	30
15	60
26	20
27	80
29	170
30	20
38	20
39	40
40	10
41	130
42	190
43	390
44	40
45	60
47	40
48	30
49	230
50	40
51	70
52	30
53	180
54	30
55	110
56	20
57	60
58	50
59	440
60	10
61	30
62	10
63	1810
64	180
65	1920
66	160
67	540
68	20
69	40
71	20
72	20
73	40
74	30
75	110
76	110
77	280
78	360
79	1710
80	230
81	550
82	30
83	40
84	10
85	10
88	20
89	870
90	90
91	200
92	190
93	9999
94	760
95	3760
96	250
97	170
98	220
99	191
100	240
101	129
102	80
103	240
105	50
106	10
107	450
108	40
109	240
110	30
111	70
112	50
113	34
114	40
115	23
117	60
119	30
123	30
125	40
127	230
128	20
129	170
141	20
142	240
144	120
146	20
