Mass Spectrum: Benzeneacetic acid, .alpha.-hydroxy-, (S)-
Formula: C8 H8 O3
CAS: 17199-29-0
Molecular weight: 152
Origin: Japan AIST/NIMC Database- Spectrum MS-NW-2168
m/z	RELATIVE INTENSITY
12	10
16	30
17	30
18	109
19	10
26	80
27	409
28	299
29	539
30	20
31	10
36	10
37	119
38	199
39	559
40	50
41	20
42	20
43	30
44	409
45	239
46	10
49	70
50	699
51	1729
52	429
53	269
54	20
55	30
60	10
61	60
62	139
63	279
64	70
65	60
66	10
73	40
74	169
75	109
76	119
77	4819
78	849
79	7289
80	489
81	20
85	10
86	20
87	20
89	269
90	489
91	299
92	60
95	10
104	10
105	1759
106	989
107	9999
108	839
109	50
118	109
119	10
122	30
134	10
135	20
136	90
137	10
152	929
153	80
