Mass Spectrum: Anthracene-D10-
Formula: C14 D10
CAS: 1719-06-8
Molecular weight: 188
Origin: NIST Mass Spectrometry Data Center, 1990.
m/z	RELATIVE INTENSITY
28	11
30	46
32	14
38	16
40	48
42	152
44	11
50	8
51	15
52	211
53	10
54	195
56	37
62	59
64	190
66	605
68	17
70	25
74	16
76	253
78	446
80	1255
82	93
84	16
86	39
88	114
89	9
90	196
91	9
92	567
93	9
94	1290
100	98
101	8
102	86
104	51
106	39
108	71
112	39
114	41
118	74
122	53
124	31
126	21
128	15
130	59
132	168
133	18
134	60
136	96
142	26
144	19
146	133
147	15
154	80
156	469
157	57
158	816
159	115
160	992
161	141
168	21
170	54
180	107
181	17
182	152
183	24
184	1253
185	194
186	674
187	105
188	9999
189	1433
190	109
