Mass Spectrum: Benzene, 1,1'-(1,3,5-hexatriene-1,6-diyl)bis-
Formula: C18 H16
CAS: 1720-32-7
Molecular weight: 232
Origin: RADIAN CORP
m/z	RELATIVE INTENSITY
27	320
38	100
39	850
41	110
50	450
51	1310
52	400
53	120
58	60
62	260
63	1050
64	210
65	890
66	60
74	290
75	400
76	580
77	1560
78	920
79	80
86	100
87	210
88	170
89	830
90	110
91	4580
92	390
95	110
98	50
99	50
100	70
101	430
102	850
103	490
104	260
108	270
113	250
114	310
115	3960
116	1780
117	1150
118	110
126	280
127	810
128	3560
129	1000
130	130
139	440
140	90
141	3930
142	500
143	20
150	130
151	370
152	1190
153	1750
154	1320
155	890
156	110
163	80
164	70
165	410
166	90
167	390
168	40
176	120
177	60
178	210
179	70
187	30
188	20
189	380
190	200
191	680
192	120
200	80
201	110
202	1120
203	660
204	430
205	190
206	10
213	90
214	30
215	1850
216	1170
217	1540
218	280
224	10
225	10
226	230
227	180
228	340
229	300
230	110
231	1250
232	9999
233	1980
234	190
