Mass Spectrum: Isoquinoline, 1-methyl-
Formula: C10 H9 N
CAS: 1721-93-3
Molecular weight: 143
Origin: Japan AIST/NIMC Database- Spectrum MS-IW-3008
m/z	RELATIVE INTENSITY
26	20
27	40
28	70
37	30
38	70
39	229
40	20
41	20
42	30
43	10
49	20
50	289
51	409
52	109
53	10
55	10
56	10
57	139
58	419
59	40
61	70
62	189
63	409
64	90
65	129
66	10
70	199
71	369
72	40
73	20
74	239
75	399
76	269
77	339
78	50
85	20
86	60
87	99
88	99
89	329
90	119
91	50
98	40
99	30
100	40
101	429
102	279
103	209
104	30
110	10
111	10
113	129
114	189
115	2829
116	1269
117	239
118	20
121	20
122	20
126	10
127	60
128	1049
129	109
140	189
141	149
142	1089
143	9999
144	1139
145	50
