Mass Spectrum: Pyridine, 2-chloro-6-methoxy-
Formula: C6 H6 Cl N O
CAS: 17228-64-7
Molecular weight: 143
Origin: Japan AIST/NIMC Database- Spectrum MS-NW-1318
m/z	RELATIVE INTENSITY
12	20
13	30
14	90
15	749
16	10
18	10
24	10
25	70
26	439
27	349
28	519
29	279
30	50
31	50
32	129
35	50
36	109
37	879
38	2059
39	3889
40	209
41	60
42	109
43	40
44	50
45	70
47	119
48	50
49	359
50	1049
51	1169
52	539
53	489
54	99
55	80
56	30
57	10
58	10
60	159
61	169
62	219
63	279
64	1179
65	1279
66	319
67	99
68	30
69	10
70	10
71	50
72	60
73	329
74	189
75	389
76	1479
77	689
78	7939
79	769
80	369
81	80
82	20
84	50
85	319
86	439
87	149
88	139
89	50
90	40
91	50
92	50
93	1749
94	289
95	40
96	50
98	20
99	50
100	509
101	60
102	209
103	20
104	10
106	319
107	99
108	1119
109	369
110	159
111	20
112	989
113	7799
114	3659
115	2729
116	1109
117	80
120	10
121	30
122	10
123	20
124	60
125	10
127	90
128	30
129	30
130	10
138	519
139	589
140	139
141	40
142	9999
143	8369
144	3649
145	2629
146	189
147	20
