Mass Spectrum: 1,3-Dioxolane, 2,2,4,5-tetramethyl-, cis-
Formula: C7 H14 O2
CAS: 17226-65-2
Molecular weight: 130
Origin: D.HENNEBERG, MAX-PLANCK INSTITUTE, MULHEIM, WEST GERMANY
m/z	RELATIVE INTENSITY
26	63
27	441
28	156
29	544
30	10
31	374
32	16
36	3
39	339
40	105
41	834
42	1438
43	9999
44	414
45	1578
46	33
47	5
53	40
54	26
55	1508
56	124
57	379
58	3774
59	1871
60	73
61	190
67	14
68	11
69	29
70	17
71	186
72	78
73	3069
74	139
75	17
79	4
81	2
82	3
83	8
84	5
85	24
86	1045
87	73
88	8
95	1
96	3
97	122
98	20
99	7
101	6
109	4
111	5
112	6
113	11
114	10
115	4186
116	276
117	31
129	10
131	10
