Mass Spectrum: 2(1H)-Pyridinone, 6-chloro-1-methyl-
Formula: C6 H6 Cl N O
CAS: 17228-63-6
Molecular weight: 143
Origin: P.BEAK ROGER ADAMS LAB., ILLINOIS UNIV., URBANA, ILL., USA
m/z	RELATIVE INTENSITY
26	293
27	482
28	461
37	497
38	1156
39	6978
40	752
41	103
42	271
43	71
49	357
50	759
51	907
52	626
53	611
54	355
55	111
60	104
61	78
62	86
63	165
64	612
65	410
66	137
73	288
74	242
75	176
76	263
78	427
79	320
80	732
81	128
85	85
86	58
87	74
89	98
93	454
100	187
102	312
104	93
108	9999
109	757
114	259
115	2615
116	248
117	886
118	60
143	4958
144	397
145	1690
146	125
