Mass Spectrum: Pyrimidine, 2-chloro-
Formula: C4 H3 Cl N2
CAS: 1722-12-9
Molecular weight: 114
Origin: Japan AIST/NIMC Database- Spectrum MS-NW-7543
m/z	RELATIVE INTENSITY
12	50
13	30
14	20
24	70
25	219
26	2689
27	339
28	379
29	20
35	109
36	99
37	129
38	269
39	219
40	70
41	10
42	10
43	20
44	80
47	169
48	20
49	60
50	139
51	1089
52	1819
53	1259
54	50
55	10
56	10
57	10
58	10
59	10
60	719
61	119
62	609
63	50
64	129
67	10
68	10
69	10
73	20
74	10
75	10
76	50
77	179
78	50
79	5779
80	309
81	10
83	10
85	20
86	309
87	1699
88	179
89	549
90	30
113	239
114	9999
115	599
116	3209
117	189
118	10
