Mass Spectrum: 9,10-Ethanoanthracene-9(10H)-methylamine, N-methyl-, 9,10-dihydro
Formula: C18 H19 N
CAS: 17243-39-9
Molecular weight: 249
Origin: Finnigan MAT: Toxicological Library (LIBR-TX)
m/z	RELATIVE INTENSITY
42	1616
44	8723
165	195
178	1559
179	608
180	965
191	2281
192	905
203	499
204	410
205	189
206	188
217	386
218	9999
219	1687
220	789
221	1971
222	408
249	484
250	296
