Mass Spectrum: 3-Chlorothiophene
Formula: C4 H3 Cl S
CAS: 17249-80-8
Molecular weight: 118
Origin: Japan AIST/NIMC Database- Spectrum MS-IW-1316
m/z	RELATIVE INTENSITY
12	10
25	20
26	30
32	30
33	10
35	10
36	60
37	229
38	279
39	1069
40	30
41	229
42	10
44	90
45	2019
46	40
47	149
48	40
49	149
50	209
51	80
56	50
57	409
58	729
59	289
60	149
61	10
68	30
69	189
70	10
71	20
72	40
73	669
74	50
75	219
76	20
79	209
80	40
81	359
82	409
83	3619
84	219
85	179
86	10
91	70
92	219
93	30
94	80
112	10
116	10
117	30
118	9999
119	529
120	3649
121	189
122	149
