Mass Spectrum: Oxacyclododecan-2-one
Formula: C11 H20 O2
CAS: 1725-03-7
Molecular weight: 184
Origin: NIST Mass Spectrometry Data Center, 1994
m/z	RELATIVE INTENSITY
14	42
15	456
16	48
17	34
18	52
19	54
26	389
27	4090
28	2482
29	4658
30	293
31	820
37	33
39	3822
40	914
41	9999
42	3710
43	2860
44	217
45	380
46	28
50	73
51	163
52	109
53	899
54	1550
55	7647
56	1905
57	992
58	390
59	213
60	719
61	169
63	27
65	157
66	251
67	2241
68	1874
69	3374
70	1225
71	592
72	118
73	941
74	101
77	88
78	66
79	487
80	354
81	1399
82	1719
83	2277
84	2868
85	414
86	89
87	326
88	33
91	87
92	58
93	277
94	434
95	962
96	1453
97	1449
98	3356
99	432
100	298
101	248
102	74
105	51
106	72
107	130
108	107
109	406
110	492
111	1021
112	1007
113	358
114	323
115	115
116	395
119	136
120	57
121	50
122	269
123	492
124	587
125	338
126	108
127	282
128	80
129	104
133	57
135	26
136	21
137	346
138	282
139	74
140	36
141	176
142	42
148	150
151	93
155	50
156	31
166	140
167	22
