Mass Spectrum: 2-Butanone, 4-(2,6,6-trimethyl-1-cyclohexen-1-yl)-
Formula: C13 H22 O
CAS: 17283-81-7
Molecular weight: 194
Origin: F.H.JOHNSON, PRINCETON UNIVERSITY, PRINCETON, N.J., USA
m/z	RELATIVE INTENSITY
27	660
28	270
29	720
39	1200
40	240
41	2790
42	300
43	6300
44	180
45	90
51	360
52	210
53	1170
54	150
55	1770
56	180
57	300
58	120
63	120
65	660
66	210
67	1230
68	270
69	1320
70	120
71	840
77	1500
78	300
79	2160
80	480
81	2480
82	480
83	300
91	1860
92	450
93	3360
94	570
95	2670
96	390
97	240
103	150
105	1680
106	690
107	1680
108	540
109	1590
110	180
111	120
119	2280
120	600
121	9999
122	1140
123	3630
124	570
125	150
133	390
135	330
136	3630
137	720
138	300
151	120
161	4320
162	600
163	90
176	2070
177	330
179	2130
180	300
194	1470
195	195
196	45
