Mass Spectrum: 2-Cyclohexen-1-one, 3,4,4-trimethyl-
Formula: C9 H14 O
CAS: 17299-41-1
Molecular weight: 138
Origin: CARL DJERASSI DEPT OF CHEM STANFORD UNIV STANFORD CALIF 94305
m/z	RELATIVE INTENSITY
41	3800
42	400
43	1800
50	100
51	700
52	300
53	1600
54	500
55	2100
56	200
57	100
63	200
65	500
66	200
67	4700
68	400
69	300
70	100
77	800
78	100
79	800
80	200
81	2600
82	1900
83	200
91	300
93	300
95	8600
96	9999
97	600
107	100
108	100
109	1300
110	6500
111	300
122	100
123	800
124	200
138	4200
139	300
