Mass Spectrum: Benzene, 1-chloro-2-propyl-
Formula: C9 H11 Cl
CAS: 1730-86-5
Molecular weight: 154
m/z	RELATIVE INTENSITY
15	10
26	20
27	120
28	20
29	40
30	10
32	10
36	10
37	20
38	50
39	310
40	30
41	120
42	10
43	10
44	20
45	10
47	10
49	20
50	150
51	330
52	50
53	20
55	10
56	10
57	60
58	60
59	10
60	10
61	40
62	100
63	360
64	60
65	170
66	10
67	10
68	10
69	10
72	10
73	110
74	80
75	210
76	60
77	290
78	60
79	20
84	10
85	30
86	30
87	40
88	20
89	691
90	200
91	741
92	60
93	10
97	20
98	10
99	270
100	20
101	140
102	80
103	190
104	40
105	10
106	10
109	10
110	10
111	10
112	140
113	30
114	60
115	250
116	60
117	100
118	20
119	1001
120	100
121	10
123	10
124	10
125	9999
126	901
127	3223
128	290
129	10
136	10
137	10
138	20
139	80
140	10
141	30
142	10
149	10
151	10
152	10
153	10
154	2392
155	240
156	781
157	80
158	10
