Mass Spectrum: 9H-Fluorene, 1-methyl-
Formula: C14 H12
CAS: 1730-37-6
Molecular weight: 180
Origin: NIST Mass Spectrometry Data Center, 1990.
m/z	RELATIVE INTENSITY
27	125
28	176
32	61
38	63
39	261
50	237
51	337
52	64
62	277
63	758
64	88
65	69
70	203
74	424
75	623
76	1591
83	937
86	235
87	441
88	706
89	1903
90	414
98	190
99	151
100	70
101	76
102	119
110	91
111	99
113	148
114	51
115	324
122	52
126	241
127	131
128	104
137	87
138	68
139	473
140	68
149	86
150	459
151	719
152	1115
153	185
162	120
163	566
165	9999
166	1389
167	89
174	109
175	144
176	968
177	647
178	2246
179	2093
180	6898
181	1091
182	82
