Mass Spectrum: Undecane, 2,6-dimethyl-
Formula: C13 H28
CAS: 17301-23-4
Molecular weight: 184
Origin: NIST Mass Spectrometry Data Center, 1990.
m/z	RELATIVE INTENSITY
27	712
28	706
29	1112
32	167
39	854
41	3801
42	1077
43	4269
44	160
51	45
53	341
55	1935
56	2099
57	9999
58	422
65	62
67	188
68	152
69	895
70	1216
71	4810
72	261
79	50
83	256
84	533
85	818
86	66
97	271
98	1708
99	551
112	726
113	758
114	72
127	54
140	79
141	116
155	60
169	98
184	102
