Mass Spectrum: Undecane, 3,7-dimethyl-
Formula: C13 H28
CAS: 17301-29-0
Molecular weight: 184
Origin: D.HENNEBERG, MAX-PLANCK INSTITUTE, MULHEIM, WEST GERMANY
m/z	RELATIVE INTENSITY
21	18
26	104
27	1089
28	543
29	2643
30	44
33	4
37	16
38	6
39	572
40	86
41	3262
42	750
43	9999
44	31
51	7
53	123
54	95
55	1382
56	2070
57	8941
58	320
67	69
68	39
69	542
70	884
71	5110
72	284
83	84
84	1489
85	4261
86	242
96	59
97	262
98	165
99	430
112	10
113	114
126	221
127	633
128	41
154	21
155	177
156	6
169	16
184	12
