Mass Spectrum: Undecane, 2,8-dimethyl-
Formula: C13 H28
CAS: 17301-25-6
Molecular weight: 184
Origin: D.HENNEBERG, MAX-PLANCK INSTITUTE, MULHEIM, WEST GERMANY
m/z	RELATIVE INTENSITY
26	149
27	984
29	1608
30	8
31	17
32	254
35	6
36	10
37	44
39	563
40	22
41	2597
42	807
43	9999
44	40
53	122
55	1444
56	1223
57	7451
58	173
59	5
65	14
67	48
68	33
69	432
70	2751
71	6565
72	256
82	27
83	112
84	273
85	2730
86	172
95	10
97	115
98	30
99	547
100	43
111	20
112	168
113	200
119	17
125	45
140	307
141	587
155	16
169	52
184	18
