Mass Spectrum: 5-Ethyldecane
Formula: C12 H26
CAS: 17302-36-2
Molecular weight: 170
Origin: V.G.Zaikin, TIPS, Russian Acad. Sci.
m/z	RELATIVE INTENSITY
41	2602
42	550
43	5955
44	150
55	1151
56	1101
57	9999
58	800
69	500
70	700
71	4353
72	200
83	350
84	250
85	1951
98	1000
99	550
112	750
113	400
140	1050
141	900
170	150
171	20
