Mass Spectrum: Nonane, 4,5-dimethyl-
Formula: C11 H24
CAS: 17302-23-7
Molecular weight: 156
m/z	RELATIVE INTENSITY
26	30
27	611
29	1261
30	30
38	10
39	110
40	120
41	220
42	1051
43	9999
44	370
45	10
51	20
52	10
53	130
54	80
55	2042
56	2202
57	9358
58	400
65	20
66	10
67	70
68	40
69	1211
70	3403
71	6035
72	260
81	10
82	80
83	320
84	3253
85	3934
86	220
87	10
96	30
97	120
98	340
99	370
100	20
111	10
112	460
113	530
114	30
126	601
127	450
128	30
141	10
156	100
157	10
