Mass Spectrum: Undecane, 3,8-dimethyl-
Formula: C13 H28
CAS: 17301-30-3
Molecular weight: 184
Origin: D.HENNEBERG, MAX-PLANCK INSTITUTE, MULHEIM, WEST GERMANY
m/z	RELATIVE INTENSITY
21	11
27	664
28	681
29	2057
30	73
32	91
33	28
35	10
37	10
39	509
40	78
41	2582
42	583
43	8598
44	42
53	118
54	42
55	1529
56	1662
57	9999
58	378
67	80
68	23
69	400
70	2733
71	7128
72	355
82	36
83	252
84	398
85	3831
86	210
87	10
97	74
98	12
99	891
100	50
110	71
111	464
112	129
113	969
114	50
127	424
140	78
141	469
142	21
154	53
155	311
156	23
