Mass Spectrum: Undecane, 4,7-dimethyl-
Formula: C13 H28
CAS: 17301-32-5
Molecular weight: 184
Origin: D.HENNEBERG, MAX-PLANCK INSTITUTE, MULHEIM, WEST GERMANY
m/z	RELATIVE INTENSITY
21	8
24	6
26	82
27	926
29	1831
30	34
33	5
35	3
37	1
39	372
40	62
41	2314
42	782
43	9999
45	17
51	2
53	104
54	98
55	1012
56	1099
57	7723
58	287
59	14
63	4
67	19
68	23
69	442
70	1238
71	4994
72	257
74	36
82	16
83	97
84	963
85	3289
86	146
98	224
99	309
112	110
113	155
126	128
127	377
128	6
140	29
141	259
142	6
155	9
184	5
