Mass Spectrum: Undecane, 2,7-dimethyl-
Formula: C13 H28
CAS: 17301-24-5
Molecular weight: 184
Origin: D.HENNEBERG, MAX-PLANCK INSTITUTE, MULHEIM, WEST GERMANY
m/z	RELATIVE INTENSITY
21	15
25	4
26	54
27	887
28	157
29	1613
30	29
35	4
39	475
40	38
41	2558
42	673
43	9999
44	52
51	1
53	82
54	60
55	1049
56	1725
57	6100
58	225
65	1
66	3
67	42
68	71
69	627
70	370
71	3938
72	174
82	25
83	120
84	1463
85	3640
86	239
98	772
99	434
100	6
111	113
112	4
113	46
126	220
127	382
128	23
141	160
169	23
