Mass Spectrum: Undecane, 4,8-dimethyl-
Formula: C13 H28
CAS: 17301-33-6
Molecular weight: 184
Origin: SOCONY MOBIL OIL INC., PAULSBORO, NEW JERSEY
m/z	RELATIVE INTENSITY
26	126
27	2746
28	291
29	3145
30	71
37	19
38	43
39	1294
40	265
41	4528
42	1435
43	9999
44	327
45	5
50	17
51	69
52	36
53	343
54	163
55	2261
56	1012
57	5344
58	233
59	5
62	2
63	13
64	6
65	47
66	31
67	167
68	81
69	559
70	2928
71	5979
72	323
73	9
77	34
78	11
79	37
80	17
81	40
82	20
83	139
84	526
85	3157
86	206
87	6
91	16
92	3
93	6
94	2
95	14
96	70
97	295
98	153
99	619
100	47
105	4
106	2
110	7
111	50
112	171
113	293
114	26
124	2
125	22
126	18
127	47
128	5
139	10
140	375
141	1421
142	158
143	7
154	29
155	93
156	12
168	17
169	106
170	13
182	3
183	6
184	105
185	16
