Mass Spectrum: Nonane, 2,5-dimethyl-
Formula: C11 H24
CAS: 17302-27-1
Molecular weight: 156
Origin: TECH. UNIVERSITY OF KARLSRUHE, KARLSRUHE, W. GERMANY
m/z	RELATIVE INTENSITY
12	1
13	1
14	3
15	34
16	6
19	1
20	1
24	1
25	3
26	41
27	851
28	162
29	1250
30	32
31	1
32	1
36	5
37	8
38	15
39	477
40	97
41	2200
42	546
43	7700
44	254
45	5
46	2
47	1
48	1
49	1
50	20
51	26
52	14
53	126
54	72
55	914
56	1610
57	9999
58	437
59	7
62	2
63	4
64	1
65	16
66	7
67	49
68	36
69	493
70	948
71	1110
72	61
73	1
74	1
75	1
76	1
77	13
78	3
79	11
80	3
81	13
82	10
83	95
84	1640
85	2840
86	185
87	4
91	4
92	1
93	1
94	1
95	2
96	3
97	13
98	647
99	1130
100	82
101	1
102	1
111	10
112	136
113	135
114	11
115	1
125	2
126	63
127	97
128	9
129	1
140	30
141	150
142	17
143	1
154	11
155	7
156	215
157	25
158	1
