Mass Spectrum: Undecane, 3,6-dimethyl-
Formula: C13 H28
CAS: 17301-28-9
Molecular weight: 184
Origin: D.HENNEBERG, MAX-PLANCK INSTITUTE, MULHEIM, WEST GERMANY
m/z	RELATIVE INTENSITY
25	10
26	93
27	462
29	1434
30	43
37	34
38	21
39	212
40	37
41	1877
42	251
43	4036
45	25
47	6
50	13
51	18
53	65
54	20
55	965
56	1427
57	9999
58	381
63	22
65	8
67	64
68	42
69	356
70	849
71	3864
72	225
78	12
82	14
83	190
84	198
85	1068
86	73
96	21
97	111
98	656
99	518
100	38
112	378
113	704
114	59
124	16
126	40
127	59
141	16
154	34
155	312
156	18
169	44
184	51
