Mass Spectrum: 2,3-Dimethyldecane
Formula: C12 H26
CAS: 17312-44-6
Molecular weight: 170
Origin: NIST Mass Spectrometry Data Center, 1990.
m/z	RELATIVE INTENSITY
15	51
16	21
27	1713
28	622
29	2365
32	90
39	1207
41	5304
42	1868
43	9999
44	345
51	68
53	355
54	255
55	2346
56	1613
57	5880
58	245
65	54
67	200
68	153
69	775
70	1622
71	7302
72	380
82	370
83	702
84	947
85	3853
86	249
96	234
97	1048
98	538
99	134
111	46
126	1956
127	878
128	91
