Mass Spectrum: Undecane, 4,4-dimethyl-
Formula: C13 H28
CAS: 17312-68-4
Molecular weight: 184
Origin: D.HENNEBERG, MAX-PLANCK INSTITUTE, MULHEIM, WEST GERMANY
m/z	RELATIVE INTENSITY
21	10
26	4
27	790
28	177
29	1248
39	342
41	2273
42	248
43	9092
53	73
55	1097
56	2000
57	6932
58	203
67	21
69	846
70	138
71	3372
72	104
83	55
84	2617
85	9999
86	590
99	574
140	321
141	1012
142	35
169	43
