Mass Spectrum: Undecane, 4,5-dimethyl-
Formula: C13 H28
CAS: 17312-79-7
Molecular weight: 184
Origin: D.HENNEBERG, MAX-PLANCK INSTITUTE, MULHEIM, WEST GERMANY
m/z	RELATIVE INTENSITY
21	25
25	66
26	47
27	1184
28	410
29	2230
30	58
31	28
32	17
33	29
36	24
37	79
38	68
39	503
40	21
41	2895
42	1254
43	7691
44	120
49	11
51	25
52	40
53	147
54	71
55	1665
56	1047
57	9999
58	444
59	17
60	13
63	3
64	22
65	15
66	31
67	118
68	91
69	607
70	4284
71	5940
72	287
82	181
83	592
84	396
85	531
86	11
97	86
98	195
99	348
100	29
111	2
112	1613
113	398
114	16
127	9
140	22
141	115
155	9
