Mass Spectrum: Undecane, 3,5-dimethyl-
Formula: C13 H28
CAS: 17312-81-1
Molecular weight: 184
Origin: D.HENNEBERG, MAX-PLANCK INSTITUTE, MULHEIM, WEST GERMANY
m/z	RELATIVE INTENSITY
22	29
23	16
24	10
26	76
27	478
29	1212
30	5
31	38
32	15
33	42
34	12
35	10
36	9
37	32
39	370
41	1942
42	439
43	3973
44	167
48	12
50	10
51	24
52	13
53	83
54	21
55	355
56	1216
57	9999
60	7
62	3
67	54
68	54
69	467
70	734
71	3677
72	231
81	6
82	101
83	185
84	241
85	1373
86	72
87	14
91	10
97	53
98	532
99	939
100	65
111	32
112	301
113	212
125	9
126	146
127	177
128	11
140	16
141	7
147	5
155	284
156	16
169	35
184	38
