Mass Spectrum: Undecane, 3,3-dimethyl-
Formula: C13 H28
CAS: 17312-65-1
Molecular weight: 184
Origin: D.HENNEBERG, MAX-PLANCK INSTITUTE, MULHEIM, WEST GERMANY
m/z	RELATIVE INTENSITY
22	4
26	104
27	551
28	77
29	1130
30	12
33	8
39	332
40	34
41	1872
42	375
43	6268
44	127
51	1
53	90
54	38
55	1267
56	520
57	5358
58	193
67	342
68	18
69	418
70	3902
71	9999
72	527
82	3
83	81
84	35
85	1888
86	104
97	24
98	50
99	695
100	33
111	16
112	22
113	257
114	1
126	33
127	9
139	16
154	280
155	873
156	91
169	97
