Mass Spectrum: Undecane, 3,4-dimethyl-
Formula: C13 H28
CAS: 17312-78-6
Molecular weight: 184
Origin: D.HENNEBERG, MAX-PLANCK INSTITUTE, MULHEIM, WEST GERMANY
m/z	RELATIVE INTENSITY
22	40
26	40
27	970
29	2358
30	3
39	492
40	54
41	3465
42	747
43	9999
44	23
53	128
54	33
55	1670
56	4671
57	9489
58	429
67	73
68	88
69	901
70	1147
71	7228
72	343
82	201
83	634
84	1242
85	5352
86	280
96	58
97	730
98	370
99	266
113	42
126	2168
127	890
128	28
155	220
