Mass Spectrum: 4,4-Dipropylheptane
Formula: C13 H28
CAS: 17312-72-0
Molecular weight: 184
Origin: NIST Mass Spectrometry Data Center, 1990.
m/z	RELATIVE INTENSITY
27	1398
28	597
29	1414
32	123
39	1062
41	5275
42	741
43	6106
44	249
53	646
55	4304
56	2068
57	9999
58	427
65	231
66	118
67	675
68	235
69	1551
71	7107
72	410
77	218
79	249
81	197
83	331
84	1234
85	8589
86	597
97	902
98	666
99	1806
100	127
112	187
140	1633
141	4088
142	450
