Mass Spectrum: Undecane, 2,3-dimethyl-
Formula: C13 H28
CAS: 17312-77-5
Molecular weight: 184
Origin: D.HENNEBERG, MAX-PLANCK INSTITUTE, MULHEIM, WEST GERMANY
m/z	RELATIVE INTENSITY
25	13
27	935
28	251
29	1611
30	30
31	54
33	7
34	10
36	10
37	15
38	18
39	484
40	123
41	3035
42	932
43	9999
44	87
50	2
51	31
52	7
53	160
54	109
55	1658
56	1106
57	8926
58	333
59	3
65	8
66	23
67	148
68	110
69	763
70	1419
71	6507
72	312
81	59
82	232
83	490
84	584
85	4183
86	277
90	2
96	126
97	620
98	350
99	729
100	40
110	51
111	430
112	244
113	51
125	2
127	1
140	1481
141	810
142	67
169	3
