Mass Spectrum: Undecane, 3-ethyl-
Formula: C13 H28
CAS: 17312-58-2
Molecular weight: 184
Origin: D.HENNEBERG, MAX-PLANCK INSTITUTE, MULHEIM, WEST GERMANY
m/z	RELATIVE INTENSITY
22	27
25	3
26	103
27	860
28	63
29	2045
32	7
33	12
36	10
39	632
40	41
41	2854
42	855
43	9827
47	12
51	12
53	148
54	63
55	1906
56	627
57	9999
58	314
67	113
68	41
69	680
70	2503
71	6545
72	346
82	64
83	291
84	301
85	3706
86	193
96	19
97	279
98	146
99	1305
100	69
111	181
112	66
113	430
114	10
125	41
126	73
140	6
154	1141
155	1056
156	91
