Mass Spectrum: Undecanoic acid, methyl ester
Formula: C12 H24 O2
CAS: 1731-86-8
Molecular weight: 200
Origin: NIST Mass Spectrometry Data Center
m/z	RELATIVE INTENSITY
15	70
26	20
27	300
28	100
29	561
30	20
31	30
33	10
39	440
40	100
41	1862
42	500
43	1992
44	70
45	110
50	10
51	30
52	20
53	220
54	180
55	2502
56	460
57	961
58	50
59	1241
60	40
61	10
63	10
65	40
66	20
67	240
68	120
69	921
70	190
71	260
72	20
74	9999
75	1171
76	70
77	30
78	10
79	80
80	20
81	170
82	90
83	611
84	380
85	270
87	6366
88	621
89	40
91	10
93	40
94	10
95	180
96	50
97	430
98	320
99	50
100	20
101	881
102	50
107	30
108	10
109	60
110	10
111	110
112	40
113	20
115	390
116	70
121	20
123	10
124	50
125	40
126	100
127	10
129	661
130	70
135	10
139	30
140	10
143	1531
144	140
145	10
149	30
150	20
151	10
153	10
157	1321
158	150
167	20
169	1041
170	130
171	350
172	30
185	10
200	340
201	70
202	10
