Mass Spectrum: Undecane, 4-ethyl-
Formula: C13 H28
CAS: 17312-59-3
Molecular weight: 184
Origin: D.HENNEBERG, MAX-PLANCK INSTITUTE, MULHEIM, WEST GERMANY
m/z	RELATIVE INTENSITY
26	92
27	1026
28	124
29	1822
30	5
32	8
33	24
34	3
37	40
39	572
40	52
41	2975
42	815
43	9999
44	161
45	12
51	4
52	8
53	152
54	149
55	1713
56	1200
57	9464
58	311
65	11
67	119
68	107
69	763
70	623
71	4498
72	248
77	5
79	11
81	30
82	78
83	236
84	1479
85	5163
86	319
96	47
97	270
98	201
99	969
100	54
110	10
111	182
112	127
113	256
114	15
125	45
126	83
140	478
141	280
142	12
154	601
155	650
156	55
