Mass Spectrum: Dodecane, 3-methyl-
Formula: C13 H28
CAS: 17312-57-1
Molecular weight: 184
Origin: D.HENNEBERG, MAX-PLANCK INSTITUTE, MULHEIM, WEST GERMANY
m/z	RELATIVE INTENSITY
23	30
26	91
27	793
28	14
29	2169
30	102
31	7
32	41
33	32
37	43
38	14
39	467
40	182
41	2953
42	680
43	5807
47	33
51	9
52	13
53	172
54	51
55	1210
56	3035
57	9999
58	379
60	6
61	2
66	20
67	126
68	39
69	461
70	393
71	3675
72	166
73	33
77	32
78	27
81	30
82	61
83	197
84	212
85	2332
86	129
91	7
95	13
96	46
97	185
98	83
99	740
100	29
102	5
111	84
112	42
113	246
114	33
115	11
125	61
126	73
127	82
154	375
155	647
156	72
168	15
169	40
