Mass Spectrum: Undecane, 5,5-dimethyl-
Formula: C13 H28
CAS: 17312-73-1
Molecular weight: 184
Origin: D.HENNEBERG, MAX-PLANCK INSTITUTE, MULHEIM, WEST GERMANY
m/z	RELATIVE INTENSITY
24	44
26	110
27	569
28	408
29	1081
31	125
33	57
36	39
38	22
39	228
40	24
41	1729
42	119
43	3621
44	206
53	114
54	26
55	720
56	1191
57	9999
58	304
59	78
67	87
68	37
69	529
70	678
71	3494
72	41
82	52
83	169
84	125
85	1453
86	37
91	16
97	65
98	567
99	1468
100	191
111	118
113	30
126	389
127	910
128	78
140	53
142	1
169	75
184	22
