Mass Spectrum: Benzene, (3,3-dimethylbutyl)-
Formula: C12 H18
CAS: 17314-92-0
Molecular weight: 162
Origin: D.HENNEBERG, MAX-PLANCK INSTITUTE, MULHEIM, WEST GERMANY
m/z	RELATIVE INTENSITY
26	59
27	595
28	893
29	1242
30	37
31	65
32	88
36	5
37	7
38	31
39	746
40	88
41	2012
42	140
43	2851
44	85
45	26
49	9
50	117
51	466
52	139
53	133
54	14
55	324
56	207
57	9999
58	427
59	35
61	8
62	24
63	185
64	93
65	1123
66	74
67	33
68	10
69	100
70	423
71	1369
72	67
74	47
75	43
76	45
77	524
78	410
79	288
80	21
81	7
82	4
83	9
84	3
85	5
86	4
87	7
88	5
89	182
90	86
91	8516
92	1145
93	74
94	7
95	6
96	3
97	8
98	3
99	4
101	6
102	50
103	251
104	334
105	2342
106	3709
107	280
108	14
109	5
110	4
111	5
112	16
113	4
114	6
115	112
116	45
117	81
118	13
119	24
120	6
121	3
124	3
126	7
127	30
128	84
129	47
130	16
131	68
132	8
133	5
134	4
135	3
136	3
141	6
142	3
143	8
145	93
146	24
147	506
148	72
149	5
157	3
159	4
160	20
161	13
162	3611
163	458
