Mass Spectrum: Decane, 3,4-dimethyl-
Formula: C12 H26
CAS: 17312-45-7
Molecular weight: 170
Origin: D.HENNEBERG, MAX-PLANCK INSTITUTE, MULHEIM, WEST GERMANY
m/z	RELATIVE INTENSITY
24	6
27	1494
28	598
29	1737
30	61
34	20
35	47
39	598
40	80
41	2400
42	454
43	7483
44	199
45	57
46	26
47	21
51	97
52	19
53	77
54	97
55	1193
56	3468
57	9999
58	254
59	74
60	32
61	24
63	17
68	79
69	517
70	1026
71	5688
72	228
77	66
79	39
81	74
82	125
83	705
84	720
85	1688
86	98
88	23
89	21
90	7
96	68
97	76
99	116
100	14
101	33
103	19
105	7
108	23
110	46
111	57
112	1370
113	478
114	83
115	12
118	4
121	16
124	10
127	30
129	26
138	6
140	61
141	241
142	13
143	1
145	8
147	12
151	22
153	3
155	9
156	9
158	2
160	3
165	4
168	17
170	19
171	8
