Mass Spectrum: Undecane, 5,7-dimethyl-
Formula: C13 H28
CAS: 17312-83-3
Molecular weight: 184
Origin: D.HENNEBERG, MAX-PLANCK INSTITUTE, MULHEIM, WEST GERMANY
m/z	RELATIVE INTENSITY
21	8
24	4
26	33
27	977
29	1675
30	25
32	127
36	3
39	450
41	2687
42	680
43	9999
52	14
53	72
54	78
55	1205
56	1436
57	6927
58	366
67	63
68	19
69	587
70	702
71	4070
72	196
82	27
83	100
84	1364
85	3535
86	235
96	18
97	23
98	301
99	373
113	19
126	240
127	863
128	49
