Mass Spectrum: Undecane, 4,6-dimethyl-
Formula: C13 H28
CAS: 17312-82-2
Molecular weight: 184
Origin: D.HENNEBERG, MAX-PLANCK INSTITUTE, MULHEIM, WEST GERMANY
m/z	RELATIVE INTENSITY
21	7
24	7
25	15
26	79
27	808
29	1605
30	16
32	36
33	28
35	16
37	38
38	1
39	371
41	2009
42	664
43	7036
44	13
51	16
53	123
54	54
55	993
56	1027
57	9999
58	367
63	5
65	6
66	13
67	69
68	61
69	497
70	1468
71	5049
72	218
82	8
83	127
84	570
85	1610
86	126
96	5
97	67
98	468
99	332
100	4
104	9
112	352
113	800
114	58
140	53
141	340
142	23
155	2
184	23
