Mass Spectrum: Decane, 3,6-dimethyl-
Formula: C12 H26
CAS: 17312-53-7
Molecular weight: 170
Origin: D.HENNEBERG, MAX-PLANCK INSTITUTE, MULHEIM, WEST GERMANY
m/z	RELATIVE INTENSITY
25	6
26	57
27	820
28	107
29	1910
30	50
32	2
36	4
38	18
39	537
40	111
41	2772
42	591
43	8683
44	251
45	3
50	10
51	27
52	12
53	158
54	87
55	1167
56	1880
57	9999
58	418
59	7
63	7
65	137
66	7
67	70
68	26
69	564
70	860
71	6156
72	343
73	6
77	10
78	1
79	14
80	3
81	8
82	60
83	264
84	1663
85	3756
86	237
87	6
91	4
94	1
96	3
97	31
98	105
99	423
100	31
110	31
111	25
112	647
113	1053
114	94
115	1
125	5
126	11
127	29
128	1
140	135
141	576
142	66
154	12
155	109
156	12
168	10
169	1
170	126
171	13
