Mass Spectrum: Nonane, 5-butyl-
Formula: C13 H28
CAS: 17312-63-9
Molecular weight: 184
Origin: D.HENNEBERG, MAX-PLANCK INSTITUTE, MULHEIM, WEST GERMANY
m/z	RELATIVE INTENSITY
24	18
25	23
26	104
27	979
28	193
29	2015
30	27
39	556
40	95
41	3478
42	629
43	8940
50	4
51	9
52	15
53	204
54	140
55	1868
56	1240
57	9020
58	397
59	7
65	14
66	9
67	137
68	85
69	669
70	956
71	9999
72	573
73	4
75	2
76	4
77	21
79	30
81	33
82	218
83	598
84	582
85	5512
86	339
96	87
97	715
98	371
99	84
111	15
112	117
113	12
125	6
126	2848
127	1078
128	95
140	89
141	57
154	5
155	8
184	25
