Mass Spectrum: Phosphoramidothioic acid, O,O-diethyl ester
Formula: C4 H12 N O2 P S
CAS: 17321-48-1
Molecular weight: 169
m/z	RELATIVE INTENSITY
15	138
16	13
17	201
18	736
19	31
26	127
27	1052
28	387
29	1296
30	79
31	46
32	77
33	31
34	31
35	62
36	12
40	8
41	21
42	65
43	276
44	295
45	304
46	844
47	1119
48	1064
49	166
50	54
51	12
55	8
57	13
58	25
59	72
60	87
61	198
62	101
63	336
64	6027
65	593
66	17
75	8
76	49
77	119
78	105
79	304
80	7412
81	269
82	119
83	8
90	18
91	23
92	6827
93	263
94	34
95	317
96	4334
97	2290
98	270
99	108
106	8
107	36
108	3451
109	135
110	58
111	8
112	557
113	2231
114	1483
115	131
116	73
121	54
122	12
123	21
124	1168
125	1851
126	132
127	81
136	13
137	15
140	72
141	1491
142	706
144	38
153	12
154	26
165	9
168	57
169	9999
170	649
171	497
172	32
173	8
