Mass Spectrum: 2-Pyrenamine
Formula: C16 H11 N
CAS: 1732-23-6
Molecular weight: 217
Origin: Organic Synthesis Lab, MSU, Moscow.TRC 198q
m/z	RELATIVE INTENSITY
41	10
50	30
51	30
52	10
61	10
62	50
63	70
64	10
65	10
68	10
73	10
74	90
75	60
76	30
77	10
85	20
86	80
87	110
88	30
89	20
97	10
98	70
99	60
100	70
102	20
110	60
111	60
112	20
113	30
114	20
115	20
122	40
123	30
124	20
125	20
126	20
133	20
134	20
135	30
136	20
137	40
138	20
139	30
140	20
146	20
147	20
148	20
149	20
150	50
151	20
152	20
161	60
162	60
163	170
164	60
165	50
166	10
173	10
174	50
175	20
176	10
177	10
185	70
186	140
187	731
188	540
189	3453
190	791
191	70
192	10
197	10
198	100
199	130
200	941
201	220
202	40
211	10
212	60
213	40
214	230
215	110
217	9999
218	1892
219	180
