Mass Spectrum: 4-Octenoic acid, methyl ester
Formula: C9 H16 O2
CAS: 1732-00-9
Molecular weight: 156
Origin: J. SHAW, NATIONAL INST. OF HEALTH, BETHESDA, MD, USA
m/z	RELATIVE INTENSITY
15	2200
27	2400
28	1200
29	1800
39	2900
40	500
41	5900
42	1000
43	4900
44	200
45	400
51	300
52	200
53	1300
54	2800
55	7700
56	900
57	600
59	3600
65	400
66	200
67	4700
68	1000
69	600
71	600
72	300
74	9999
75	700
77	200
79	400
81	1900
82	6400
83	3200
85	3000
87	1100
88	200
95	700
96	4000
97	1000
101	300
113	400
114	400
124	3600
125	2100
127	400
156	1400
157	200
