Mass Spectrum: Heptanedioic acid, dimethyl ester
Formula: C9 H16 O4
CAS: 1732-08-7
Molecular weight: 188
Origin: NIST Mass Spectrometry Data Center
m/z	RELATIVE INTENSITY
14	20
15	711
16	10
26	80
27	721
28	390
29	801
30	80
31	280
32	10
33	50
34	20
35	30
37	10
38	50
39	1201
40	280
41	2813
42	1822
43	2983
44	200
45	811
46	20
47	30
48	671
49	621
51	80
52	40
53	460
54	440
55	6806
56	500
57	440
58	150
59	5565
60	170
61	40
62	10
63	220
65	110
66	40
67	480
68	1912
69	5135
70	490
71	290
72	210
73	2873
74	6796
75	300
76	30
77	20
78	20
79	230
80	80
81	250
82	320
83	4024
84	260
85	480
86	50
87	2282
88	330
89	20
94	10
95	140
96	1001
97	2803
98	270
99	160
100	1481
101	500
102	120
103	10
106	10
107	10
109	10
111	1822
112	150
113	540
114	931
115	9999
116	681
117	60
122	10
123	130
124	2472
125	4234
126	350
127	270
128	3573
129	561
130	50
139	200
140	20
141	80
142	10
145	50
146	70
155	30
156	841
157	3653
158	330
159	40
160	10
189	10
