Mass Spectrum: 1H-Cyclopropa[a]naphthalene, 1a,2,3,5,6,7,7a,7b-octahydro-1,1,7,7a-tetramethyl-, [1aR-(1a.alpha.,7.alpha.,7a.alpha.,7b.alpha.)]-
Formula: C15 H24
CAS: 17334-55-3
Molecular weight: 204
m/z	RELATIVE INTENSITY
18	110
26	60
27	681
29	751
39	991
40	170
41	3173
42	230
43	861
50	50
51	290
52	130
53	861
54	110
55	1631
56	100
57	160
63	110
64	90
65	641
66	200
67	1001
68	110
69	1551
70	120
71	90
75	80
77	1351
78	400
79	1621
80	260
81	1121
82	330
83	250
89	90
91	2793
92	440
93	2242
94	410
95	611
96	90
97	50
102	50
103	280
104	190
105	3053
106	621
107	2122
108	410
109	340
110	60
115	400
116	210
117	530
118	190
119	2462
120	530
121	731
122	410
123	130
127	120
128	220
129	220
130	120
131	350
132	120
133	1661
134	550
135	711
136	150
141	50
143	80
144	50
145	280
146	120
147	1551
148	571
149	110
161	9999
162	2122
163	200
175	340
176	90
189	1882
190	320
204	1271
205	250
