Mass Spectrum: Ethyldiphenylphosphine oxide
Formula: C14 H15 O P
CAS: 1733-57-9
Molecular weight: 230
Origin: NIST Mass Spectrometry Data Center
m/z	RELATIVE INTENSITY
16	20
17	10
18	100
26	70
27	480
28	110
29	270
30	10
37	10
38	50
39	270
40	20
47	2112
48	60
50	581
51	2022
52	180
53	30
55	10
56	30
57	80
62	40
63	120
64	20
65	130
68	30
69	140
70	20
71	10
73	20
74	40
75	140
77	2292
78	410
79	60
80	30
81	50
82	20
83	50
87	10
88	10
89	30
91	120
92	30
93	10
95	280
96	80
97	10
100	10
101	20
102	40
103	40
104	60
105	100
107	240
108	80
109	130
110	10
113	10
115	110
116	10
120	10
121	20
123	170
124	160
125	320
126	60
127	50
128	200
129	140
130	10
131	10
133	150
134	10
139	40
141	40
144	10
145	20
147	40
149	10
150	40
151	140
152	470
153	450
154	400
155	420
156	50
157	60
158	10
165	30
169	10
170	100
171	270
173	240
174	20
181	30
183	581
184	120
185	30
186	10
199	200
201	9999
202	6816
203	861
204	50
227	10
229	931
230	380
231	50
