Mass Spectrum: Propane, 2-methyl-2-(1-methylethoxy)-
Formula: C7 H16 O
CAS: 17348-59-3
Molecular weight: 116
Origin: D.HENNEBERG, MAX-PLANCK INSTITUTE, MULHEIM, WEST GERMANY
m/z	RELATIVE INTENSITY
25	9
26	91
27	875
28	504
29	1012
30	30
31	680
32	28
33	4
36	7
37	58
38	97
39	946
40	206
41	2750
42	395
43	1355
44	63
45	370
46	8
48	5
49	12
50	36
51	33
52	11
53	59
54	20
55	243
56	530
57	6309
58	415
59	9999
60	397
61	31
69	3
71	6
73	29
86	4
101	1458
102	101
103	6
