Mass Spectrum: Carbonochloridic acid, 2,2,2-trichloroethyl ester
Formula: C3 H2 Cl4 O2
CAS: 17341-93-4
Molecular weight: 210
Origin: Japan AIST/NIMC Database- Spectrum MS-NW-4743
m/z	RELATIVE INTENSITY
12	40
13	30
14	70
15	20
16	20
18	20
24	20
25	149
26	659
27	40
28	159
29	539
30	239
31	459
32	10
35	399
36	259
37	119
38	90
39	10
40	10
41	20
42	80
43	30
44	349
45	70
47	469
48	379
49	449
50	119
51	99
57	20
59	40
60	499
61	1139
62	199
63	6559
64	90
65	2109
66	30
69	10
70	279
71	179
72	40
73	10
74	10
76	20
77	60
78	10
79	20
81	50
82	399
83	209
84	259
85	129
86	50
87	20
89	10
93	9999
94	249
95	5249
96	749
97	1669
98	439
99	299
100	80
110	10
111	30
112	20
113	40
114	10
115	20
117	849
118	10
119	829
120	10
121	279
123	30
130	20
131	2929
132	90
133	2749
134	70
135	899
136	20
137	109
141	20
143	10
147	20
149	20
156	10
157	20
159	10
175	459
176	20
177	409
178	20
179	139
181	20
