Mass Spectrum: Cyclohexane-d12
Formula: C6 D12
CAS: 1735-17-7
Molecular weight: 96
Origin: NIST Mass Spectrometry Data Center, 1990.
m/z	RELATIVE INTENSITY
13	10
15	129
18	466
29	268
30	3685
32	1159
33	154
34	1510
35	106
38	141
40	487
42	3890
43	194
44	829
45	106
46	8327
47	485
48	2602
49	165
50	941
52	212
54	365
56	159
58	428
59	83
60	514
61	83
62	2718
63	83
64	9999
65	363
70	103
74	288
76	220
78	2378
79	163
94	308
96	5597
97	401
