Mass Spectrum: Phosphorodiamidous fluoride, tetramethyl-
Formula: C4 H12 F N2 P
CAS: 1735-82-6
Molecular weight: 138
Origin: A.Pleshkova, Nesmeyanov Inst.Org.Elem.Cpds, Moscow
m/z	RELATIVE INTENSITY
15	3433
16	210
27	260
28	1341
29	200
30	1621
40	260
41	400
42	4274
43	591
44	3173
45	260
50	350
51	611
65	520
69	480
76	260
78	761
79	10
80	170
93	701
94	9999
95	520
122	631
123	651
124	20
138	1972
139	110
140	20
