Mass Spectrum: Pyridine, 3-chloro-2,4,5,6-tetrafluoro-
Formula: C5 Cl F4 N
CAS: 1735-84-8
Molecular weight: 185
Origin: J.GUION PHYS. CHEM. LAB., FACULTY OF SCIENCE, NICE, FRANCE
m/z	RELATIVE INTENSITY
31	540
100	1660
116	680
140	1080
142	450
150	1570
154	410
185	9999
186	630
187	3240
