Mass Spectrum: Benzene, pentafluoro-2-propenyl-
Formula: C9 H5 F5
CAS: 1736-60-3
Molecular weight: 208
m/z	RELATIVE INTENSITY
31	2402
32	200
51	801
57	601
63	300
69	1401
70	100
74	701
75	1401
76	100
81	1301
82	100
86	500
93	2052
94	200
99	1651
100	200
111	400
112	701
117	1501
118	200
119	450
123	901
124	100
130	500
131	701
132	601
143	1301
144	100
150	500
155	801
161	2402
162	1401
163	1401
164	100
180	300
181	9999
182	1001
189	2202
190	200
208	7206
209	801
