Mass Spectrum: 3-(4-Hydroxyphenyl)propionitrile
Formula: C9 H9 N O
CAS: 17362-17-3
Molecular weight: 147
Origin: NIST Mass Spectrometry Data Center, 1994
m/z	RELATIVE INTENSITY
4	17
14	23
15	21
26	153
27	448
28	185
29	119
31	24
32	2
37	99
38	248
39	1033
40	290
41	171
42	44
43	48
44	18
45	20
50	430
51	873
52	435
53	586
54	55
55	221
59	41
60	15
61	81
62	244
63	490
64	189
65	405
66	104
67	29
68	15
73	31
74	102
75	89
76	15
77	2039
78	586
79	329
80	32
81	69
86	26
87	36
88	38
89	167
90	87
91	333
92	48
93	14
94	40
101	38
102	32
103	34
105	87
107	9999
108	728
109	45
116	44
117	53
118	60
119	41
120	51
128	17
145	19
147	1673
148	166
149	16
