Mass Spectrum: 3-Fluorophenylacetone
Formula: C9 H9 F O
CAS: 1737-19-5
Molecular weight: 152
Origin: NIST Mass Spectrometry Data Center, 1994
m/z	RELATIVE INTENSITY
12	5
13	19
14	95
15	520
16	3
17	2
18	9
26	39
27	102
29	27
31	82
33	33
37	34
38	94
39	324
40	22
41	24
42	22
43	9999
44	234
45	36
46	5
49	20
50	163
51	164
52	21
53	12
55	83
56	42
57	474
58	25
59	101
60	13
61	57
62	146
63	313
64	37
65	16
66	5
67	6
68	37
69	44
70	49
71	6
73	10
74	64
75	99
76	24
77	46
78	10
79	5
80	21
81	149
82	60
83	821
84	51
85	22
86	30
87	32
88	16
89	106
90	16
91	6
92	7
93	9
94	21
95	34
96	26
97	11
98	7
99	5
101	26
102	7
103	21
105	15
107	256
109	1355
110	221
111	13
120	8
121	9
123	10
133	17
136	9
152	675
153	75
154	6
