Mass Spectrum: N-Benzyl-p-anisidine
Formula: C14 H15 N O
CAS: 17377-95-6
Molecular weight: 213
Origin: NIST Mass Spectrometry Data Center, 1994
m/z	RELATIVE INTENSITY
12	18
15	600
17	215
18	614
26	50
30	43
37	65
38	336
39	1445
40	121
41	922
42	34
50	536
51	1096
52	1144
53	588
54	105
55	92
59	48
61	42
62	212
63	1029
64	833
65	2608
66	349
67	299
68	61
71	39
72	41
75	102
76	227
77	1002
78	449
79	448
80	374
81	102
84	137
87	28
88	33
89	472
90	28
91	9999
92	1205
93	214
94	28
95	1321
96	91
102	52
103	51
104	186
106	154
107	280
108	183
114	28
115	222
116	89
117	28
119	55
120	202
122	8995
123	761
124	52
126	20
127	32
128	40
134	336
135	91
136	621
137	67
139	68
140	42
141	134
142	33
143	30
151	24
152	58
153	45
154	38
166	81
167	322
168	351
169	91
180	87
181	30
196	505
197	175
198	776
199	120
210	114
211	337
212	659
213	5479
214	858
215	74
