Mass Spectrum: Pyridine, 3,5-dichloro-2,4,6-trifluoro-
Formula: C5 Cl2 F3 N
CAS: 1737-93-5
Molecular weight: 201
Origin: Japan AIST/NIMC Database- Spectrum MS-NW-8564
m/z	RELATIVE INTENSITY
12	30
24	20
31	2189
32	20
35	119
36	129
37	40
45	10
47	239
48	50
49	80
50	30
55	329
56	10
57	20
59	10
62	219
63	10
66	60
67	90
68	20
69	119
71	629
72	20
73	229
74	509
75	20
76	20
78	669
79	309
80	119
81	229
82	10
83	20
85	279
86	939
87	119
88	10
90	339
91	10
92	159
93	179
94	30
97	209
98	10
99	70
100	399
101	189
102	389
103	40
104	139
105	80
106	199
108	119
109	529
110	30
111	169
112	109
116	2959
117	139
118	969
119	40
121	859
122	40
123	289
124	10
125	199
127	129
128	30
129	20
130	10
131	109
132	209
133	10
134	129
135	20
136	20
137	40
139	20
140	179
141	10
142	60
147	99
149	30
154	10
156	749
157	30
158	479
159	20
160	80
166	2019
167	119
168	649
169	30
170	219
171	10
172	139
174	20
182	149
183	10
184	99
186	10
201	9999
202	589
203	6439
204	369
205	1029
206	50
