Mass Spectrum: Benzenemethanol, 2-methyl-, acetate
Formula: C10 H12 O2
CAS: 17373-93-2
Molecular weight: 164
Origin: NIST Mass Spectrometry Data Center
m/z	RELATIVE INTENSITY
14	10
15	80
26	10
27	110
28	10
29	40
31	10
37	10
38	50
39	410
40	40
41	90
42	60
43	1471
44	40
45	20
49	10
50	170
51	480
52	150
53	130
54	10
55	10
61	20
62	100
63	310
64	70
65	581
66	50
67	10
73	10
74	50
75	40
76	60
77	1181
78	1391
79	721
80	40
85	10
86	20
87	20
89	210
90	70
91	1001
92	110
93	350
94	30
101	10
102	140
103	1611
104	9999
105	3233
106	250
107	881
108	60
119	210
120	50
121	130
122	410
123	40
164	60
165	10
