Mass Spectrum: Methoxyacetonitrile
Formula: C3 H5 N O
CAS: 1738-36-9
Molecular weight: 71
Origin: NIST Mass Spectrometry Data Center, 1990.
m/z	RELATIVE INTENSITY
12	164
13	335
14	608
15	2048
16	62
17	30
18	33
24	41
25	116
26	394
27	455
28	2100
29	7612
30	483
31	264
32	34
38	641
39	851
40	2875
41	9999
42	3695
43	474
44	698
45	587
53	20
54	445
55	46
56	231
70	4018
71	1585
72	64
