Mass Spectrum: 2,3,5-Trimethyl-6-ethylpyrazine
Formula: C9 H14 N2
CAS: 17398-16-2
Molecular weight: 150
Origin: Philip Morris R&D
m/z	RELATIVE INTENSITY
36	17
37	42
38	137
39	1727
40	451
41	1104
42	2289
43	78
44	7
45	1
46	6
47	0
49	6
50	160
51	466
52	700
53	2478
54	2085
55	166
56	1270
57	53
58	1
59	3
60	6
61	23
62	21
63	70
64	79
65	283
66	274
67	1417
68	773
69	84
70	19
72	0
73	5
74	24
75	56
76	27
77	18
78	39
79	49
80	310
81	237
82	60
83	0
89	1
90	1
91	6
92	31
93	49
94	353
95	38
96	31
97	2
104	1
105	6
106	19
107	239
108	131
109	103
110	19
117	0
118	9
119	9
120	7
121	873
122	1844
123	288
124	16
131	0
132	5
133	23
134	37
135	819
136	71
146	0
147	61
148	22
149	9999
150	8286
151	837
