Mass Spectrum: Isophthalamide
Formula: C8 H8 N2 O2
CAS: 1740-57-4
Molecular weight: 164
Origin: Pu Leung, NIH, Bethesda, MD
m/z	RELATIVE INTENSITY
41	122
42	83
43	190
44	3360
45	144
47	55
48	31
49	433
50	2746
51	2586
52	771
53	219
54	77
55	41
56	19
57	33
59	20
60	35
61	101
62	156
63	290
65	3442
66	579
68	42
69	25
70	16
71	19
73	287
74	1261
75	1908
76	2409
77	1648
78	195
79	24
80	44
81	17
82	12
83	7
84	183
86	136
87	10
88	34
89	22
90	95
91	143
92	2891
93	351
94	26
95	12
97	8
99	29
100	21
101	30
102	250
103	1824
104	688
105	351
106	33
107	29
108	16
117	14
118	56
119	97
120	2156
121	332
122	30
124	4
128	14
130	77
135	15
146	111
147	27
148	9999
149	1257
150	109
151	4
162	38
163	20
164	9061
165	878
166	41
