Mass Spectrum: Dehydroabietic acid
Formula: C20 H28 O2
CAS: 1740-19-8
Molecular weight: 300
Origin: R RYHAGE MS-LAB KAROLINSKA INSTITUTET STOCKHOLM SWEDEN
m/z	RELATIVE INTENSITY
18	230
27	160
29	210
39	190
41	680
43	1000
44	110
45	180
53	160
55	440
56	100
57	150
65	120
67	200
69	280
71	120
77	280
78	120
79	190
81	300
83	140
85	110
87	140
91	670
92	150
93	160
95	160
103	100
105	330
107	110
109	110
115	810
116	250
117	910
118	130
119	180
121	190
123	100
127	310
128	980
129	1130
130	220
131	790
132	140
133	600
134	130
135	120
139	180
141	1640
142	650
143	1030
144	190
145	320
146	130
147	230
151	100
152	350
153	520
154	400
155	1160
156	370
157	700
158	140
159	780
160	120
165	420
166	210
167	530
168	240
169	700
170	240
171	640
172	150
173	390
175	120
178	160
179	190
181	270
182	120
183	780
184	220
185	550
186	330
187	200
195	320
196	200
197	2860
198	530
199	650
200	150
207	100
209	130
211	370
212	170
213	130
225	280
239	8730
240	1810
241	220
243	290
255	160
257	190
271	120
285	9999
286	2120
287	270
289	220
300	2590
301	600
