Mass Spectrum: 2'-(Trifluoromethyl)acetophenone
Formula: C9 H7 F3 O
CAS: 17408-14-9
Molecular weight: 188
Origin: Japan AIST/NIMC Database- Spectrum MS-NW-7410
m/z	RELATIVE INTENSITY
15	60
26	10
27	30
28	30
29	10
31	30
32	10
37	30
38	70
39	119
42	189
43	2429
44	70
45	10
49	30
50	339
51	199
52	20
53	10
56	10
57	119
60	10
61	50
62	99
63	159
64	10
65	10
68	30
69	179
70	20
72	10
73	40
74	229
75	579
76	179
77	99
79	10
80	30
81	80
83	30
85	20
86	30
87	40
88	40
89	40
90	20
91	40
92	10
93	30
94	80
95	669
96	99
98	10
99	169
100	60
101	70
102	10
103	20
104	20
105	10
106	10
107	90
108	20
109	70
113	10
114	20
115	20
118	20
119	129
120	20
121	10
122	10
123	20
124	10
125	449
126	289
127	90
128	10
129	20
132	10
133	20
137	10
138	20
139	20
140	30
141	20
143	60
144	90
145	4819
146	499
147	20
151	50
152	10
154	10
158	10
159	40
169	489
170	50
171	20
172	30
173	9999
174	889
175	60
188	599
189	60
