Mass Spectrum: Propane, 2-methyl-1-(propylthio)-
Formula: C7 H16 S
CAS: 1741-84-0
Molecular weight: 132
Origin: CARL DJERASSI DEPT OF CHEM STANFORD UNIV STANFORD CALIF 94305
m/z	RELATIVE INTENSITY
15	400
26	200
27	3900
28	400
29	3300
30	100
34	100
35	100
37	100
38	200
39	3100
40	400
41	9999
42	2100
43	8000
44	300
45	1600
46	1200
47	3900
48	700
49	700
50	100
51	100
53	300
54	200
55	2500
56	7600
57	8800
58	500
59	400
60	400
61	6200
62	200
63	300
69	200
71	100
73	200
74	600
75	1200
76	1900
77	1100
89	7900
90	1300
91	500
103	1200
117	400
132	3800
133	200
134	200
