Mass Spectrum: Hydrazine, trimethyl-
Formula: C3 H10 N2
CAS: 1741-01-1
Molecular weight: 74
Origin: ATLAS OF MASS SPECTRA OF ORGANIC COMPOUNDS, V. A. KOPTYUG, ED.
m/z	RELATIVE INTENSITY
27	280
28	360
29	340
30	3250
31	580
32	760
36	170
40	110
41	210
42	2650
43	1200
44	1690
45	230
46	260
57	310
58	160
59	9999
60	320
71	70
73	250
74	6150
75	410
