Mass Spectrum: Pentane, 1-(methylthio)-
Formula: C6 H14 S
CAS: 1741-83-9
Molecular weight: 118
Origin: Japan AIST/NIMC Database- Spectrum MS-NW-4010
m/z	RELATIVE INTENSITY
14	20
15	179
26	139
27	2009
28	419
29	1839
30	30
31	239
32	119
33	20
34	40
35	579
36	10
37	50
38	99
39	1259
40	219
41	3749
42	6649
43	3149
44	119
45	849
46	679
47	1399
48	3399
49	1429
50	219
51	119
52	20
53	209
54	99
55	4739
56	329
57	259
58	129
59	309
60	169
61	9999
62	1369
63	519
64	60
65	30
66	10
67	90
68	40
69	1199
70	6709
71	929
72	40
73	90
74	60
75	1259
76	389
77	80
78	10
85	20
87	40
89	709
90	50
91	40
102	10
103	1669
104	159
105	99
106	10
117	229
118	6079
119	509
120	299
121	20
