Mass Spectrum: 2-Fluoro-5-nitrobenzonitrile
Formula: C7 H3 F N2 O2
CAS: 17417-09-3
Molecular weight: 166
Origin: NIST Mass Spectrometry Data Center, 1994
m/z	RELATIVE INTENSITY
16	68
25	69
30	9999
33	181
36	115
37	695
38	646
39	267
44	54
46	613
48	102
49	500
50	1951
51	651
52	280
55	113
56	520
57	1074
58	93
60	81
61	629
62	521
63	407
64	228
68	1026
69	1476
70	273
72	67
73	347
74	496
75	2175
76	807
77	60
79	45
80	167
81	595
82	618
83	40
85	59
86	151
87	242
88	217
92	356
93	2235
94	850
95	67
99	985
100	6274
101	599
106	110
108	3196
109	261
118	111
120	8294
121	629
136	2398
137	205
150	325
166	7107
167	592
168	37
