Mass Spectrum: Butyric acid, 2-hydroxy-3-methyl-, methyl ester
Formula: C6 H12 O3
CAS: 17417-00-4
Molecular weight: 132
Origin: D.J.MANNING NATIONAL INSTIT. FOR RES. IN DAIRYING, READING, UK
m/z	RELATIVE INTENSITY
25	14
26	82
27	732
28	367
29	732
30	184
31	732
32	73
33	163
37	22
38	51
39	426
40	80
41	895
42	163
43	2038
44	203
45	344
46	14
47	20
48	4
49	8
50	18
51	18
52	10
53	67
54	31
55	2038
56	122
57	466
58	303
59	813
60	37
61	466
62	69
63	14
64	4
65	6
66	4
67	10
68	8
69	67
70	24
71	163
72	711
73	9999
74	446
75	344
76	24
77	8
78	6
79	8
80	4
81	10
82	16
83	55
84	20
85	163
86	14
87	10
88	6
89	385
90	4691
91	184
92	33
93	6
94	4
95	6
96	4
97	6
98	4
99	35
100	18
101	20
102	8
103	184
104	43
105	8
106	4
107	6
108	8
109	4
110	4
111	4
112	4
113	10
114	35
115	8
116	4
117	57
118	8
130	16
131	8
132	143
133	16
134	6
