Mass Spectrum: Phosphorin, 2,4,6-tris(1,1-dimethylethyl)-
Formula: C17 H29 P
CAS: 17420-29-0
Molecular weight: 264
Origin: D.HENNEBERG, MAX-PLANCK INSTITUTE, MULHEIM, WEST GERMANY
m/z	RELATIVE INTENSITY
26	209
27	314
28	127
29	1924
30	50
31	6
32	23
33	7
34	8
36	3
37	14
38	26
39	418
40	93
41	3408
42	155
43	419
44	33
45	88
46	8
47	18
48	10
49	15
50	53
51	140
52	41
53	330
54	35
55	639
56	81
57	8617
58	393
59	61
61	39
62	14
63	45
64	30
65	229
66	58
67	253
68	34
69	298
70	67
71	219
72	20
73	100
74	30
75	54
76	24
77	389
78	161
79	323
80	57
81	115
82	65
83	198
84	29
85	185
86	19
87	70
88	31
89	64
91	669
92	136
93	167
94	31
95	256
96	72
97	324
98	41
99	102
100	16
101	37
102	46
103	179
104	56
105	418
106	91
107	144
108	54
109	336
110	109
111	219
112	33
113	46
114	17
115	272
116	130
117	320
118	68
119	249
120	72
121	208
122	36
123	246
124	81
125	191
126	40
127	66
128	179
129	208
130	144
131	110
132	59
133	354
134	72
135	155
136	45
137	1238
138	152
139	117
140	32
141	67
142	74
143	120
144	97
145	147
146	87
147	293
148	76
149	225
150	137
151	520
152	244
153	75
154	21
155	42
156	45
157	48
158	34
159	88
160	46
161	144
162	73
163	176
164	65
165	725
166	562
167	93
168	15
169	11
170	15
171	46
172	17
173	38
174	28
175	74
176	37
177	224
178	75
179	160
180	54
181	26
183	5
184	11
185	21
186	26
187	40
188	24
189	58
190	25
191	136
192	62
193	3173
194	420
195	64
196	18
202	4
203	30
204	11
205	62
206	35
207	474
208	202
209	27
217	12
218	4
219	71
220	48
221	1247
222	472
223	53
232	6
233	66
234	134
235	166
238	11
239	11
241	9
242	10
243	18
245	16
246	10
247	50
248	96
249	9999
250	1713
251	141
252	15
253	4
255	11
257	6
261	8
263	147
264	6956
265	1251
266	104
267	3
