Mass Spectrum: 2,5-Cyclohexadien-1-one, 4-ethyl-3,4-dimethyl-
Formula: C10 H14 O
CAS: 17429-35-5
Molecular weight: 150
Origin: CARL DJERASSI DEPT OF CHEM STANFORD UNIV STANFORD CALIF 94305
m/z	RELATIVE INTENSITY
41	1818
50	505
51	1616
52	707
53	1515
55	202
63	505
65	1313
66	202
67	404
77	3737
78	707
79	2121
80	202
91	4747
92	606
93	1717
94	606
95	101
103	101
105	505
107	9999
108	909
109	101
121	2727
122	3636
123	202
135	1616
150	3232
151	202
