Mass Spectrum: Hydrazine, 1,2-dibutyl-
Formula: C8 H20 N2
CAS: 1744-71-4
Molecular weight: 144
Origin: ATLAS OF MASS SPECTRA OF ORGANIC COMPOUNDS, V. A. KOPTYUG, ED.
m/z	RELATIVE INTENSITY
27	870
28	1670
29	1790
30	3750
31	460
32	580
39	380
41	1540
42	290
43	1240
44	460
45	4160
46	90
55	240
56	180
57	1160
58	150
59	290
70	500
71	190
72	310
87	330
99	830
101	9999
102	750
113	110
115	70
142	130
144	3160
145	380
