Mass Spectrum: 2-Benzylquinoline
Formula: C16 H13 N
CAS: 1745-77-3
Molecular weight: 219
Origin: E.V.BROWN, DEP. CHEM., UNIV. KENTUCKY, LEXINGTON, KENTUCKY,U.
m/z	RELATIVE INTENSITY
91	500
203	800
204	300
216	1000
217	3400
218	9999
219	4400
220	700
