Mass Spectrum: Silane, dichlorodiethenyl-
Formula: C4 H6 Cl2 Si
CAS: 1745-72-8
Molecular weight: 152
Origin: Institute of Organic Chemistry, Novosibirsk, USSR 1988
m/z	RELATIVE INTENSITY
26	79
27	1119
28	399
39	569
53	429
54	9999
55	509
63	2039
64	179
65	709
88	329
89	489
90	419
91	179
92	109
98	819
99	2309
100	699
101	1519
102	119
103	299
116	5819
117	979
118	2129
119	309
123	69
124	109
125	3309
126	519
127	2139
128	299
129	419
151	19
