Mass Spectrum: Dodecane, 5-methyl-
Formula: C13 H28
CAS: 17453-93-9
Molecular weight: 184
Origin: D.HENNEBERG, MAX-PLANCK INSTITUTE, MULHEIM, WEST GERMANY
m/z	RELATIVE INTENSITY
26	59
27	854
28	26
29	1902
30	6
38	3
39	447
40	28
41	2403
42	747
43	9999
44	45
53	83
54	55
55	1217
56	1237
57	5063
58	162
67	41
69	484
70	338
71	3582
72	138
82	38
83	141
84	1778
85	4017
86	174
97	146
98	153
99	100
113	23
126	547
127	380
169	39
