Mass Spectrum: 1,4,7,10,13,16-Hexaoxacyclooctadecane
Formula: C12 H24 O6
CAS: 17455-13-9
Molecular weight: 264
Origin: NIST Mass Spectrometry Data Center, 1990.
m/z	RELATIVE INTENSITY
12	12
13	5
15	701
16	56
17	7
18	34
19	326
26	149
27	981
28	2813
29	2012
30	448
31	1483
32	30
33	13
39	42
41	594
42	1274
43	5286
44	3004
45	9999
46	247
47	28
51	9
54	19
55	69
56	169
57	877
58	1635
59	1629
60	124
61	103
62	10
63	7
67	16
68	17
69	101
70	376
71	666
72	977
73	2325
74	148
75	214
76	19
77	43
80	10
83	37
84	16
85	70
86	444
87	2023
88	1164
89	4151
90	194
91	41
97	12
99	72
100	77
101	573
102	136
103	190
104	46
105	69
107	19
112	9
113	29
114	56
115	117
116	54
117	291
118	51
119	46
121	12
127	6
129	8
131	192
133	951
134	70
135	17
145	24
146	9
147	8
148	8
157	18
159	11
161	15
162	7
163	7
175	36
177	174
178	19
189	12
221	8
