Mass Spectrum: Undecane, 5-ethyl-
Formula: C13 H28
CAS: 17453-94-0
Molecular weight: 184
Origin: D.HENNEBERG, MAX-PLANCK INSTITUTE, MULHEIM, WEST GERMANY
m/z	RELATIVE INTENSITY
25	6
26	54
27	981
28	414
29	2074
30	31
31	2
32	24
33	7
37	19
39	439
40	27
41	2714
42	550
43	6431
51	15
53	94
54	85
55	1233
56	1031
57	9999
58	424
59	3
65	7
67	98
68	49
69	567
70	610
71	3747
72	148
82	51
83	163
84	227
85	2146
86	100
87	6
96	2
97	148
98	682
99	578
100	17
111	49
112	36
113	142
125	11
126	314
127	110
140	7
154	350
155	419
156	23
