Mass Spectrum: 1-(4-Bromophenyl)imidazoline-2-thione
Formula: C9 H7 Br N2 S
CAS: 17452-23-2
Molecular weight: 254
Origin: NIST Mass Spectrometry Data Center, 1994
m/z	RELATIVE INTENSITY
18	116
26	147
27	115
28	658
32	167
37	193
38	403
39	373
40	304
41	229
44	169
45	634
46	123
50	1290
51	495
52	227
57	226
58	187
59	331
60	110
61	254
62	463
63	1022
64	406
65	237
69	177
70	193
71	277
72	1662
73	356
74	1037
75	1640
76	1437
77	360
78	101
80	92
81	107
82	136
83	61
84	189
87	2149
89	622
90	544
91	121
92	72
94	81
99	354
100	160
102	226
103	198
104	271
105	88
107	87
108	205
114	121
115	338
116	755
117	1068
118	160
119	279
120	339
121	213
122	119
129	142
130	68
131	156
133	158
134	210
142	202
143	126
146	201
147	434
148	351
149	116
155	741
156	135
157	774
158	85
173	147
174	2181
175	865
176	231
182	255
184	207
194	180
195	213
196	160
197	170
199	186
201	168
222	216
224	183
226	265
228	272
253	8318
254	7543
255	9999
256	7061
257	1134
258	334
