Mass Spectrum: 1-(4-Methoxyphenyl)imidazoline-2-thione
Formula: C10 H10 N2 O S
CAS: 17452-14-1
Molecular weight: 206
Origin: NIST Mass Spectrometry Data Center, 1994
m/z	RELATIVE INTENSITY
18	141
26	302
27	334
36	312
37	230
38	582
39	651
40	88
41	352
42	258
43	227
44	276
45	658
50	745
51	1050
52	703
53	367
54	129
55	173
56	88
57	333
58	124
59	298
61	145
62	383
63	1529
64	1264
65	375
66	178
68	109
69	337
70	257
71	235
72	1338
73	467
74	345
75	387
76	554
77	1546
78	755
79	316
80	207
81	266
82	136
83	157
84	289
87	115
89	163
90	262
91	334
92	815
93	258
94	92
95	278
96	205
98	98
99	267
102	208
103	554
104	784
105	648
106	208
107	277
108	868
109	383
111	145
117	245
118	168
119	272
120	453
121	330
122	266
123	209
124	125
130	160
131	299
132	949
133	780
134	471
135	279
136	470
137	180
139	199
146	536
147	648
148	181
150	172
151	339
159	223
161	139
162	467
163	965
164	653
165	306
173	144
174	608
175	333
178	236
190	1896
191	2542
192	380
193	198
205	8185
206	9999
207	1714
208	577
