Mass Spectrum: L-Phenylalanine, N,N-dimethyl-
Formula: C11 H15 N O2
CAS: 17469-89-5
Molecular weight: 193
Origin: CARL DJERASSI DEPT OF CHEM STANFORD UNIV STANFORD CALIF 94305
m/z	RELATIVE INTENSITY
41	200
42	1500
43	100
44	1200
50	100
51	300
56	700
58	200
63	100
65	300
70	100
74	300
77	500
78	200
79	100
88	200
89	100
91	1000
92	200
102	9999
103	800
104	400
105	300
117	100
130	100
131	100
132	300
133	500
134	200
144	100
146	400
147	600
148	2100
193	100
