Mass Spectrum: Monolinuron
Formula: C9 H11 Cl N2 O2
CAS: 1746-81-2
Molecular weight: 214
Origin: NIST Mass Spectrometry Data Center, 1998.
m/z	RELATIVE INTENSITY
15	90
26	10
27	40
28	230
29	160
30	160
31	80
32	10
33	180
35	10
36	10
37	80
38	170
39	250
40	50
41	40
42	40
43	20
44	60
45	660
46	2260
47	60
48	10
49	70
50	250
51	170
52	140
53	20
54	10
55	10
56	120
57	40
58	80
59	40
60	980
61	9999
62	570
63	960
64	430
65	150
66	20
67	10
71	10
72	50
73	530
74	170
75	710
76	180
77	50
78	30
79	10
84	20
85	60
86	20
87	50
88	110
89	140
90	800
91	400
92	70
93	10
97	30
98	80
99	1560
100	140
101	540
102	50
103	10
104	10
105	10
106	10
107	10
108	10
110	20
111	570
112	50
113	190
114	20
118	10
119	60
120	10
124	30
125	660
126	2390
127	580
128	790
129	120
130	10
140	20
141	10
142	10
147	20
148	120
149	10
153	810
154	370
155	290
156	120
157	10
165	10
166	30
167	10
168	10
214	1250
215	140
216	410
217	40
