Mass Spectrum: N-Benzyl-1-phenylethanamine #
Formula: C15 H17 N
CAS: 17480-69-2
Molecular weight: 211
Origin: NIST Mass Spectrometry Data Center, 1994
m/z	RELATIVE INTENSITY
15	15
26	15
27	241
28	12
30	128
37	12
38	70
39	658
40	48
41	110
42	330
44	29
50	299
51	976
52	246
53	97
54	24
56	18
61	12
62	59
63	311
64	104
65	1351
66	79
75	78
76	134
77	1453
78	473
79	800
80	52
82	13
84	15
87	16
89	321
91	9999
92	814
93	45
97	12
98	55
102	66
103	406
104	602
105	1514
106	584
107	42
115	17
116	36
117	57
118	97
119	22
120	212
121	20
130	27
131	14
132	72
133	14
134	336
135	34
152	31
165	55
166	26
167	37
178	13
193	21
194	74
196	4025
197	584
198	39
208	78
209	61
210	52
211	62
