Mass Spectrum: 3-Amino-4-methoxybenzamide
Formula: C8 H10 N2 O2
CAS: 17481-27-5
Molecular weight: 166
Origin: NIST Mass Spectrometry Data Center, 1990.
m/z	RELATIVE INTENSITY
15	313
16	114
17	92
18	431
26	95
27	236
28	721
29	179
30	131
37	140
38	493
39	580
40	179
41	447
42	233
43	184
44	874
45	104
49	108
50	557
51	1616
52	1966
53	1005
54	335
55	113
60	78
61	150
62	351
63	686
64	363
65	659
66	204
67	468
68	309
70	94
73	76
74	93
75	209
76	311
77	1010
78	1350
79	1299
80	834
81	380
82	241
83	186
90	316
91	208
92	437
93	421
94	469
95	2204
96	380
105	653
106	1497
107	1061
108	552
110	149
118	320
119	128
120	234
121	334
122	1162
123	2026
124	301
133	694
134	1317
135	332
137	118
148	608
150	2043
151	7280
152	702
153	64
166	9999
167	774
168	120
