Mass Spectrum: Cyclohexene, 1-iodo-
Formula: C6 H9 I
CAS: 17497-53-9
Molecular weight: 208
Origin: J.VOTH UNIV. OF CALIF, DAVIS, CALIFORNIA, 95616, USA
m/z	RELATIVE INTENSITY
12	47
13	46
14	120
15	501
16	19
17	7
18	26
25	72
26	876
27	4619
28	672
29	591
30	17
31	22
32	44
35	16
36	54
37	405
38	782
39	3906
40	535
41	4978
42	314
43	47
44	19
45	44
48	31
49	253
50	2499
51	3458
52	2146
53	518
54	753
55	1268
56	66
57	20
60	54
61	180
62	234
63	442
64	98
65	1094
66	1159
67	272
68	23
69	28
71	28
72	47
73	168
74	278
75	273
76	83
77	1502
78	494
79	2649
80	808
81	9999
82	1199
83	42
88	483
89	30
90	164
91	25
93	22
100	15
101	56
103	22
115	23
116	464
117	40
118	157
127	2809
128	582
129	49
139	26
140	15
141	51
152	72
153	46
164	15
165	51
167	103
168	15
180	104
196	20
207	18
208	8473
209	564
210	19
