Mass Spectrum: Thorium, tetrakis(2,4-pentanedionato-O,O')-, (SA-8-11''11''1'1'''1'1''')-
Formula: C20 H28 O8 Th
CAS: 17499-48-8
Molecular weight: 628
m/z	RELATIVE INTENSITY
43	115
85	308
215	769
257	385
265	385
305	192
339	308
348	1538
349	115
365	308
387	192
411	115
429	577
430	115
448	1154
449	231
529	9999
530	1154
531	115
628	308
