Mass Spectrum: Benzene, (2-methyl-1-methylenepropyl)-
Formula: C11 H14
CAS: 17498-71-4
Molecular weight: 146
Origin: D.HENNEBERG, MAX-PLANCK INSTITUTE, MULHEIM, WEST GERMANY
m/z	RELATIVE INTENSITY
26	57
28	56
29	94
31	7
32	7
34	3
37	19
38	85
39	840
40	121
41	656
42	61
43	149
44	6
45	8
49	12
50	428
51	1367
52	312
53	615
54	49
55	50
56	7
58	57
59	10
61	22
62	116
63	500
64	318
65	546
66	48
67	328
68	474
69	67
71	42
72	10
73	14
74	165
75	224
76	311
77	2246
78	520
79	144
80	14
81	6
82	8
83	6
85	11
86	26
87	54
88	21
89	194
90	49
91	3684
92	325
93	14
98	29
99	14
100	10
101	91
102	654
103	3344
104	578
105	650
106	60
107	7
109	5
110	6
111	6
112	3
113	22
114	31
115	1104
116	994
117	717
118	193
119	70
120	8
122	4
123	5
124	6
125	12
126	49
127	263
128	570
129	843
130	268
131	9999
132	1266
133	80
134	7
138	14
139	21
140	4
141	27
142	11
143	39
144	23
145	533
146	4330
147	512
148	42
