Mass Spectrum: N-(p-Methoxybenzylidene)-p-anisidine
Formula: C15 H15 N O2
CAS: 1749-08-2
Molecular weight: 241
Origin: Japan AIST/NIMC Database- Spectrum MS-IW-3298
m/z	RELATIVE INTENSITY
15	90
26	10
27	30
28	60
29	10
38	60
39	159
41	10
50	119
51	249
52	70
53	30
55	10
62	50
63	299
64	379
65	279
66	20
69	10
70	30
74	30
75	60
76	169
77	509
78	109
79	50
80	10
82	10
83	50
84	10
85	10
86	30
87	10
88	10
89	70
90	90
91	90
92	359
93	60
98	20
99	20
101	20
102	80
103	99
104	60
105	40
106	10
107	99
108	40
113	40
114	20
115	50
116	20
117	10
118	10
119	40
120	749
121	159
126	20
127	109
128	179
129	60
130	10
131	10
132	10
133	40
134	90
135	10
139	80
140	80
141	40
142	10
145	20
146	30
151	10
152	30
153	40
154	609
155	549
156	99
157	30
158	10
165	10
166	80
167	159
168	50
169	10
170	10
171	309
172	40
178	10
179	10
182	169
183	229
184	40
193	10
194	20
195	40
196	40
197	179
198	60
199	139
200	20
209	50
210	70
211	209
224	10
225	179
226	8339
227	1339
228	139
229	10
240	1239
241	9999
242	1699
243	179
244	10
