Mass Spectrum: p-Dimethylaminobenzylidene p-anisidine
Formula: C16 H18 N2 O
CAS: 1749-04-8
Molecular weight: 254
Origin: NIST Mass Spectrometry Data Center, 1994
m/z	RELATIVE INTENSITY
15	807
16	1
17	31
18	102
28	191
37	34
38	178
39	637
40	68
41	24
42	575
44	109
50	327
51	557
52	226
53	131
54	41
55	28
61	29
62	165
63	847
64	733
65	472
66	136
67	46
68	41
69	36
71	111
72	23
75	170
76	364
77	944
78	291
79	291
80	72
81	17
84	266
86	18
87	40
88	87
89	341
90	246
91	366
92	647
93	125
94	56
97	339
101	54
102	210
103	169
104	357
105	1314
107	124
108	27
111	103
112	45
113	131
114	97
115	244
116	186
117	170
118	300
119	1081
121	71
122	52
127	858
129	155
130	105
131	78
132	78
133	41
134	76
139	254
140	210
141	176
142	87
143	201
144	113
145	539
146	174
147	53
151	40
152	68
153	99
154	140
155	86
156	30
157	27
158	63
159	71
164	26
166	326
167	751
168	414
169	195
170	50
171	46
178	54
179	73
180	62
181	79
182	54
183	115
184	325
185	56
192	34
193	57
194	179
195	600
196	245
197	40
207	68
208	38
209	126
210	254
211	337
212	359
213	68
221	40
223	1160
224	282
225	71
237	188
239	9999
240	1659
241	144
251	39
253	1350
254	7879
255	1501
256	119
