Mass Spectrum: Zirconium acetylacetonate
Formula: C20 H28 O8 Zr
CAS: 17501-44-9
Molecular weight: 486
Origin: Japan AIST/NIMC Database- Spectrum MS-NW-5941
m/z	RELATIVE INTENSITY
12	20
13	30
14	159
15	859
16	20
24	10
25	50
26	189
27	709
28	159
29	279
30	10
31	209
36	20
37	109
38	179
39	759
40	149
41	619
42	399
43	6929
44	289
45	70
49	30
50	90
51	119
52	50
53	239
54	50
55	299
56	50
57	50
58	90
59	10
60	20
61	30
62	30
63	60
64	20
65	99
66	50
67	229
68	40
69	269
70	30
71	60
72	80
73	10
74	20
76	10
77	199
78	70
79	139
80	20
81	40
82	50
83	80
84	109
85	1779
86	99
87	20
89	10
91	119
92	30
93	60
94	20
95	40
96	60
97	30
98	40
99	20
100	709
101	50
102	20
103	40
104	20
105	169
106	50
107	70
108	30
109	30
110	10
111	10
112	10
113	10
114	10
115	20
116	20
117	20
118	10
119	50
120	20
121	70
122	109
123	679
124	239
125	269
126	40
127	259
128	40
129	159
130	40
131	30
132	30
133	40
134	20
135	50
136	30
137	30
138	20
139	159
140	30
141	369
142	90
143	149
144	479
145	279
146	189
147	149
148	30
149	579
150	70
151	80
152	30
153	50
154	20
155	30
156	10
157	40
158	20
159	30
160	10
161	30
162	70
163	949
164	259
165	469
166	139
167	399
168	60
169	159
170	50
171	60
172	30
173	50
174	20
175	60
176	80
177	60
178	60
179	90
180	60
181	219
182	60
183	109
184	30
185	109
186	429
187	1119
188	379
189	509
190	80
191	419
192	60
193	139
194	70
195	50
196	30
197	30
198	30
199	30
200	30
201	109
202	50
203	139
204	99
205	4429
206	1599
207	1819
208	299
209	1559
210	269
211	329
212	50
213	70
214	20
215	50
216	30
217	50
218	40
219	80
220	40
221	119
222	60
223	1609
224	489
225	659
226	80
227	829
228	139
229	249
230	60
231	169
232	50
233	90
234	30
235	50
236	20
237	30
238	10
239	40
240	30
241	70
242	40
243	249
244	119
245	969
246	309
247	459
248	119
249	419
250	80
251	269
252	99
253	109
254	50
255	90
256	40
257	50
258	40
259	60
260	30
261	80
262	50
263	339
264	109
265	219
266	60
267	179
268	50
269	789
270	299
271	329
272	90
273	289
274	70
275	99
276	80
277	60
278	50
279	40
280	40
281	20
282	30
283	60
284	40
285	309
286	159
287	1509
288	1169
289	859
290	349
291	579
292	339
293	159
294	70
295	50
296	30
297	10
298	10
299	20
300	30
301	119
302	50
303	80
304	60
305	3409
306	1159
307	1359
308	209
309	1239
310	159
311	279
312	60
313	50
314	20
315	30
316	20
317	30
318	20
319	10
320	10
323	20
325	20
326	20
327	30
328	10
329	109
330	50
331	50
332	20
333	60
334	20
335	20
336	10
337	10
339	10
341	10
342	10
343	20
344	209
345	169
346	119
347	269
348	149
349	139
350	40
351	80
352	20
353	20
356	20
357	10
358	20
359	20
360	20
361	10
362	10
363	10
365	10
367	10
369	10
370	10
371	20
372	20
373	20
374	10
375	20
376	20
377	20
378	10
379	10
381	10
382	10
383	10
384	20
385	20
386	159
387	9999
388	3879
389	3979
390	749
391	3369
392	599
393	669
394	129
395	30
396	10
399	40
400	40
401	40
402	20
403	20
404	10
405	10
443	20
444	10
445	10
