Mass Spectrum: 3,3',5,5'-Tetrakis(trifluoromethyl)benzophenone
Formula: C17 H6 F12 O
CAS: 175136-66-0
Molecular weight: 454
Origin: NIST Mass Spectrometry Data Center, 1994
m/z	RELATIVE INTENSITY
18	27
50	80
51	73
57	61
62	24
63	28
68	19
69	304
74	58
75	469
76	24
81	47
87	23
93	63
94	97
99	137
100	20
101	32
105	35
106	24
111	16
112	21
113	78
118	19
119	24
123	69
124	32
125	281
126	23
143	595
144	632
145	58
162	134
163	1170
164	89
174	22
193	179
194	382
195	43
213	3650
214	339
217	27
222	25
237	29
241	9999
242	1046
243	80
268	40
269	69
287	91
288	28
318	31
336	21
337	89
338	35
356	36
357	34
365	92
366	27
385	124
386	25
387	26
405	38
426	30
435	2106
436	397
437	46
454	2260
455	470
456	50
