Mass Spectrum: Propanesulfonylacetonitrile
Formula: C5 H9 N O2 S
CAS: 175137-61-8
Molecular weight: 147
Origin: NIST Mass Spectrometry Data Center, 1994
m/z	RELATIVE INTENSITY
12	37
13	131
14	121
15	494
16	18
17	16
18	31
19	5
25	26
26	423
27	4559
28	670
29	263
30	19
31	11
32	50
33	43
34	24
36	7
37	114
38	390
39	2515
40	1684
41	9999
42	1240
43	7538
44	296
45	187
46	64
47	43
48	457
49	62
50	36
51	14
52	16
53	12
54	112
55	194
56	15
57	41
58	32
60	26
61	10
62	13
63	61
64	181
65	195
66	21
67	24
68	17
69	15
70	28
71	20
73	16
74	9
75	7
78	9
79	18
80	7
81	21
82	43
83	10
88	33
89	10
104	17
107	26
148	12
