Mass Spectrum: 2-(n-Propylthio)nicotinic acid
Formula: C9 H11 N O2 S
CAS: 175135-22-5
Molecular weight: 197
Origin: NIST Mass Spectrometry Data Center
m/z	RELATIVE INTENSITY
14	200
15	510
16	130
18	140
19	70
26	741
27	4694
28	1361
29	831
31	210
33	80
36	110
37	390
38	1411
39	8277
40	861
41	4614
42	370
43	991
45	3753
46	881
47	791
48	110
49	260
50	1852
51	3223
52	1932
53	1011
54	931
55	190
56	180
57	641
58	721
59	430
60	130
61	190
63	270
64	611
65	390
66	1672
67	6446
68	540
69	1251
70	520
71	781
72	150
73	190
74	340
75	581
76	1151
77	1121
78	2402
79	4954
80	731
81	831
82	1962
83	2572
84	671
85	310
86	210
87	110
88	90
89	110
91	70
92	230
93	901
94	1001
95	360
96	140
97	170
98	460
100	60
102	40
104	70
105	500
106	671
107	200
108	300
109	2112
110	3213
111	5305
112	661
113	290
115	100
116	180
117	520
118	791
119	110
120	140
121	420
122	591
123	1161
124	1651
125	510
126	240
127	110
128	90
131	80
134	1732
135	310
136	1902
137	2682
138	5625
139	520
140	290
144	280
145	110
146	751
147	130
148	1722
149	350
150	1872
151	1561
152	771
153	330
154	631
155	2272
156	280
157	170
162	100
164	9999
165	1221
166	50
167	140
168	4154
169	7247
170	911
171	360
178	140
179	100
180	130
182	841
183	210
188	80
189	130
197	3803
198	490
199	180
