Mass Spectrum: 2-Chloro-4-fluorothiophenol
Formula: C6 H4 Cl F S
CAS: 175277-99-3
Molecular weight: 162
Origin: NIST Mass Spectrometry Data Center, 1994
m/z	RELATIVE INTENSITY
12	69
13	46
18	49
20	40
25	111
26	233
27	86
31	1687
32	277
33	707
34	63
35	327
36	357
37	1037
38	619
39	315
44	412
45	1728
46	65
47	225
48	125
49	447
50	1089
51	218
53	290
55	152
56	654
57	2431
58	434
59	56
60	308
61	1078
62	1010
63	2829
67	383
68	936
69	5066
70	337
71	321
72	174
73	498
74	813
75	422
76	409
77	38
78	38
79	422
80	415
81	2458
82	1300
83	3439
84	392
85	60
86	68
87	473
88	41
89	76
90	38
91	555
92	449
93	1663
94	596
95	363
96	78
97	137
98	28
99	279
100	723
101	99
102	282
103	136
104	104
105	228
106	397
107	661
108	137
109	324
110	43
111	129
113	36
115	83
117	1012
118	926
119	375
120	295
123	30
124	71
126	5707
127	9472
128	988
129	733
130	512
131	131
132	138
136	100
138	37
142	1279
143	153
144	530
145	38
161	1529
162	9999
163	1248
164	3660
165	272
166	143
