Mass Spectrum: Hydrazinecarbothioamide, 2-(1-methylethylidene)-
Formula: C4 H9 N3 S
CAS: 1752-30-3
Molecular weight: 131
Origin: NIST Mass Spectrometry Data Center, 1998.
m/z	RELATIVE INTENSITY
14	10
15	330
16	10
25	10
26	140
27	590
28	1330
29	530
30	1520
31	250
32	790
33	160
34	30
35	10
37	60
38	170
39	1360
40	450
41	1790
42	2860
43	3330
44	370
45	150
46	130
47	270
48	480
49	30
50	30
51	60
52	100
53	40
54	1150
55	1960
56	1740
57	5079
58	840
59	670
60	4150
61	200
62	250
67	10
68	10
69	20
70	10
71	510
72	920
73	100
74	550
75	980
76	70
77	40
81	10
82	10
83	10
85	40
87	10
88	20
89	1630
90	160
91	70
92	10
93	10
97	20
98	110
99	160
100	80
101	20
114	160
116	6879
117	370
118	320
119	10
131	9999
132	670
133	470
134	20
