Mass Spectrum: 1,3,6,8-Tetramethylanthracene
Formula: C18 H18
CAS: 17526-53-3
Molecular weight: 234
Origin: Organic Synthesis Lab, MSU, Moscow.TRC 1014
m/z	RELATIVE INTENSITY
39	69
41	29
51	59
63	69
75	49
76	109
77	39
82	39
83	39
87	49
88	119
89	308
94	49
95	119
96	109
100	69
101	298
102	358
103	119
107	59
108	129
109	168
110	39
113	49
114	29
115	79
116	49
117	706
126	19
128	29
139	69
150	59
151	79
152	168
153	49
163	99
164	39
165	258
166	49
175	39
176	148
177	69
178	278
179	138
180	29
187	69
188	49
189	657
190	198
191	328
192	198
193	138
194	29
200	109
201	109
202	1055
203	1085
204	417
205	197
206	79
207	39
213	129
214	59
215	427
216	258
217	487
218	368
219	2051
220	397
221	39
226	49
227	39
229	49
231	79
232	89
233	1184
234	9999
235	2430
236	228
