Mass Spectrum: Anthracene, tetradecahydro-, (4a.alpha.,8a.alpha.,9a.beta.,10a.alpha.)-
Formula: C14 H24
CAS: 1755-19-7
Molecular weight: 192
m/z	RELATIVE INTENSITY
53	950
54	810
55	2702
56	520
57	1601
67	5004
68	1501
69	1501
77	750
79	1901
80	810
81	4103
82	1501
83	590
91	520
93	1601
94	1401
95	3403
96	3202
97	1501
107	720
108	860
109	940
110	1301
111	790
121	2802
122	1501
123	970
135	7506
136	1201
149	640
150	2502
163	560
164	300
177	540
192	9999
193	1540
194	110
