Mass Spectrum: Pregnane-3,17,20-triol, (3.alpha.,5.beta.,20S)-, 2TMS derivative
Formula: C27 H52 O3 Si2
CAS: 17562-94-6
Molecular weight: 480
Origin: NIST Mass Spectrometry Data Center
m/z	RELATIVE INTENSITY
15	10
16	10
26	10
27	10
29	80
31	10
39	40
41	380
42	20
43	601
44	70
45	450
46	40
47	210
48	10
51	10
53	140
54	40
55	851
56	80
57	150
58	60
59	280
60	60
61	310
62	20
63	20
65	80
66	30
67	971
68	110
69	420
70	60
71	160
72	230
73	7877
74	781
75	6166
76	450
77	661
78	60
79	1271
80	180
81	1551
82	150
83	490
84	90
85	140
86	10
87	90
88	20
89	190
90	120
91	1511
92	260
93	1712
94	400
95	1521
96	170
97	410
98	50
99	90
100	10
101	350
102	70
103	290
104	70
105	1822
106	420
107	1922
108	751
109	1031
110	200
111	170
112	30
113	90
114	10
115	280
116	90
117	6736
118	1001
119	2712
120	470
121	1221
122	230
123	360
124	40
125	60
126	10
127	110
128	100
129	751
130	320
131	901
132	190
133	1231
134	280
135	1071
136	210
137	230
138	40
139	60
140	10
141	130
142	260
143	1281
144	330
145	1641
146	390
147	1561
148	340
149	561
150	130
151	220
152	30
153	40
154	30
155	330
156	500
157	1441
158	360
159	1371
160	360
161	1141
162	270
163	310
164	100
165	130
166	30
167	40
168	20
169	120
170	50
171	330
172	180
173	1141
174	340
175	420
176	310
177	230
178	40
179	60
180	20
181	50
182	30
183	130
184	40
185	330
186	120
187	360
188	80
189	220
190	60
191	190
192	40
193	30
194	10
195	70
196	30
197	90
198	30
199	651
200	190
201	561
202	160
203	160
204	50
205	30
207	10
208	10
209	40
210	10
211	80
212	40
213	420
214	210
215	1902
216	450
217	230
218	140
219	30
220	10
221	10
223	20
224	10
225	70
226	40
227	190
228	360
229	160
230	150
231	110
232	40
233	30
234	10
235	10
236	10
237	20
239	150
240	50
241	100
242	40
243	30
244	671
245	130
246	20
247	10
248	10
249	10
250	10
251	20
252	10
253	80
255	9999
256	2032
257	851
258	170
259	20
261	10
263	10
265	10
267	110
268	30
269	30
270	10
271	50
272	1772
273	3153
274	611
275	70
276	10
277	10
278	10
281	10
282	50
283	370
284	100
285	50
286	10
299	10
300	60
301	40
302	10
304	10
305	20
306	10
307	10
318	20
319	20
320	10
321	10
329	10
331	10
333	30
334	10
343	10
344	60
345	480
346	160
347	220
348	70
349	20
357	40
358	10
359	30
360	20
361	10
362	1531
363	971
364	300
365	50
366	10
370	10
371	10
372	30
373	30
374	70
375	30
376	10
389	10
390	110
391	40
392	10
419	10
420	10
421	10
434	160
435	120
436	40
437	20
447	300
448	120
449	50
450	10
462	50
463	20
464	120
465	40
467	10
479	10
480	40
481	20
482	10
