Mass Spectrum: N-(Chloromethyl)phthalimide
Formula: C9 H6 Cl N O2
CAS: 17564-64-6
Molecular weight: 195
Origin: Japan AIST/NIMC Database- Spectrum MS-NW-9877
m/z	RELATIVE INTENSITY
27	10
28	20
30	20
36	20
37	80
38	189
39	30
49	50
50	689
51	199
52	399
53	20
56	30
61	20
62	20
63	20
64	10
66	919
73	50
74	279
75	339
76	1159
77	699
78	60
79	30
80	99
90	10
102	70
103	80
104	1029
105	399
106	30
111	30
130	169
131	20
132	259
133	689
134	60
147	169
148	60
149	40
159	10
160	9999
161	1049
162	90
167	20
177	90
195	299
196	30
197	99
198	10
