Mass Spectrum: 11-Hydroxyetiocholanolone (3.alpha.,5.alpha.,11.beta.)-, 2TMS derivative
Formula: C25 H46 O3 Si2
CAS: 17562-92-4
Molecular weight: 450
Origin: M.HORNING
m/z	RELATIVE INTENSITY
41	1400
42	400
43	1200
44	496
45	1200
46	144
47	544
48	248
49	200
50	496
51	600
52	1096
53	496
54	200
55	1696
56	248
57	344
58	200
59	800
60	200
61	800
62	96
63	144
64	400
65	296
66	200
67	1600
68	248
69	696
70	248
71	200
72	296
73	9999
74	1248
75	7896
76	648
77	896
78	400
79	2744
80	400
81	1696
82	448
83	400
84	200
85	248
87	96
89	400
90	96
91	1800
92	544
93	1800
94	648
95	1144
96	200
97	496
98	144
99	200
100	96
101	648
102	96
103	544
104	200
105	1648
106	848
107	1448
108	696
109	800
110	200
111	248
112	96
113	200
115	296
116	344
117	744
118	448
119	1000
120	400
121	544
122	200
123	248
124	96
125	144
127	296
128	200
129	1000
130	296
131	896
132	296
133	848
134	496
135	400
136	144
137	144
139	144
140	96
141	1096
142	448
143	1248
144	496
145	1096
146	400
147	1200
148	400
149	496
150	144
151	144
152	96
153	144
154	96
156	9999
157	1896
158	696
159	848
160	296
161	344
162	200
163	96
165	200
166	144
167	344
168	696
169	1096
170	344
171	600
172	400
173	648
174	496
175	400
176	144
177	96
179	200
180	200
181	400
182	296
183	600
184	2896
185	1096
186	1400
187	944
188	400
189	200
190	96
191	96
193	296
194	200
195	296
196	296
197	400
198	344
199	3648
200	696
201	344
202	96
207	200
208	96
209	200
210	496
211	400
212	248
213	296
214	648
215	200
219	96
221	96
223	96
224	200
225	96
227	248
228	144
229	144
233	96
235	144
237	200
241	96
242	200
243	96
249	96
251	96
252	96
253	496
254	96
255	448
256	296
257	96
263	200
264	96
265	96
269	296
270	544
271	200
283	200
289	200
299	96
304	296
305	144
316	144
317	96
327	200
332	96
333	96
334	96
339	248
340	96
341	96
342	96
343	96
345	296
346	96
352	200
359	296
360	696
361	200
362	96
379	448
380	200
381	96
394	1296
395	448
396	200
406	96
407	296
408	96
417	248
418	96
422	296
423	144
432	144
435	296
436	96
450	2000
451	800
452	296
453	96
