Mass Spectrum: 1-Propene, 1,3,3-trimethoxy-
Formula: C6 H12 O3
CAS: 17576-35-1
Molecular weight: 132
m/z	RELATIVE INTENSITY
12	60
13	120
14	500
15	4354
16	140
17	370
18	1281
19	20
24	10
25	70
26	581
27	1872
28	1942
29	5565
30	691
31	6025
32	3233
33	520
34	10
35	10
36	80
37	60
38	180
39	70
40	170
41	1451
42	861
43	1331
44	1772
45	8247
46	220
47	1101
48	20
49	20
50	20
51	20
52	20
53	280
54	340
55	1421
56	280
57	881
58	601
59	1261
60	120
61	250
62	20
68	100
69	1261
70	80
71	621
72	60
73	40
74	70
75	3493
76	120
77	40
78	20
79	10
80	20
81	10
85	1521
86	270
87	520
88	410
89	20
90	10
91	40
92	30
93	10
94	10
99	30
100	20
101	9999
102	811
103	410
104	20
105	1471
106	80
107	30
108	30
109	10
115	30
116	10
117	470
118	30
119	10
130	200
131	140
132	1011
133	60
