Mass Spectrum: Cyclopentanone, 3-methyl-
Formula: C6 H10 O
CAS: 1757-42-2
Molecular weight: 98
Origin: Japan AIST/NIMC Database- Spectrum MS-NW-5634
m/z	RELATIVE INTENSITY
13	10
14	119
15	299
18	20
25	30
26	529
27	2809
28	4369
29	1579
30	30
31	60
32	40
33	20
34	40
35	20
36	10
37	189
38	409
39	3029
40	819
41	6389
42	9129
43	709
44	30
45	10
48	10
49	60
50	279
51	329
52	129
53	609
54	289
55	7139
56	4649
57	289
58	40
60	10
61	40
62	40
63	50
64	10
65	50
66	30
67	149
68	50
69	9999
70	1109
71	99
72	10
74	10
77	20
79	70
80	60
81	40
82	10
83	1079
84	70
85	10
95	10
96	20
97	119
98	7369
99	539
100	30
