Mass Spectrum: Ethanamine, 2-phenoxy-
Formula: C8 H11 N O
CAS: 1758-46-9
Molecular weight: 137
Origin: NIST Mass Spectrometry Data Center
m/z	RELATIVE INTENSITY
14	20
15	200
16	20
17	80
18	1211
19	10
25	10
26	130
27	631
28	1141
30	9999
31	160
32	40
37	150
38	450
39	1591
40	300
41	260
42	1161
43	1571
44	8668
45	190
50	641
51	1782
52	170
53	100
54	20
55	110
58	10
59	10
61	60
62	200
63	430
64	160
65	911
66	490
67	40
68	20
70	10
73	30
74	170
75	100
77	1732
78	520
79	260
80	40
91	200
92	40
93	140
94	821
95	80
105	10
106	60
107	150
108	571
109	50
118	10
119	30
120	20
135	20
137	981
138	100
