Mass Spectrum: 3,5-Octanedione, 6,6,7,7,8,8,8-heptafluoro-2,2-dimethyl-
Formula: C10 H11 F7 O2
CAS: 17587-22-3
Molecular weight: 296
Origin: Japan AIST/NIMC Database- Spectrum MS-NW-6389
m/z	RELATIVE INTENSITY
14	10
15	70
18	20
20	90
26	10
27	249
28	169
29	1329
30	30
31	60
32	10
36	20
38	30
39	419
40	80
41	2059
42	119
43	1019
44	149
45	60
47	10
50	20
51	50
52	10
53	80
54	10
55	169
56	299
57	9999
58	449
59	60
61	10
63	10
64	10
65	40
66	30
67	60
68	10
69	689
70	40
71	40
73	10
75	50
77	20
79	30
81	109
82	10
83	109
84	20
85	60
91	139
92	10
93	10
94	10
95	20
97	80
98	10
99	40
100	80
109	40
110	40
111	70
112	99
113	20
115	10
116	10
119	70
120	70
121	10
122	20
123	10
125	10
127	409
128	30
131	20
141	30
144	40
145	20
150	40
151	20
157	10
159	10
163	10
169	99
177	10
191	129
193	10
195	20
205	10
219	60
220	20
223	30
225	30
229	10
235	10
238	20
239	979
240	70
241	70
253	269
254	30
259	30
263	20
268	229
269	20
279	10
281	50
296	169
297	20
