Mass Spectrum: Benzene, 2,4-diethyl-1-methyl-
Formula: C11 H16
CAS: 1758-85-6
Molecular weight: 148
Origin: NIST Mass Spectrometry Data Center, 1990.
m/z	RELATIVE INTENSITY
15	267
27	678
28	67
29	385
38	105
39	1035
40	137
41	793
50	283
51	867
52	247
53	399
62	138
63	579
64	456
65	920
66	130
67	67
74	113
75	134
76	167
77	1478
78	547
79	630
89	263
91	3093
92	319
93	316
102	244
103	767
104	373
105	2489
106	253
115	1474
116	541
117	1527
118	738
119	7165
120	755
127	146
128	274
129	196
130	72
131	448
132	72
133	9999
134	1099
148	3969
149	476
