Mass Spectrum: Cyclopropanecarboxylic acid
Formula: C4 H6 O2
CAS: 1759-53-1
Molecular weight: 86
Origin: NIST Mass Spectrometry Data Center, 1998.
m/z	RELATIVE INTENSITY
14	20
15	50
25	30
26	560
27	1320
28	330
29	750
30	40
31	200
36	40
37	880
38	1600
39	9999
40	2630
41	8609
42	5379
43	1700
44	780
45	3470
46	20
47	40
50	30
53	300
54	30
55	1360
56	50
57	1440
58	4490
59	40
60	360
67	20
68	3380
69	1810
70	20
71	780
85	6609
86	440
87	30
