Mass Spectrum: Lactic Acid, 2TMS derivative
Formula: C9 H22 O3 Si2
CAS: 17596-96-2
Molecular weight: 234
Origin: O A MAMER, MCGILL UNIVERSITY, MONTREAL, CANADA
m/z	RELATIVE INTENSITY
15	138
27	154
28	298
29	202
31	106
43	812
44	417
45	1827
46	143
47	388
52	214
55	315
57	160
58	348
59	752
60	115
61	234
66	1223
67	134
72	349
73	9999
74	929
75	1426
76	110
87	152
88	653
101	221
102	193
103	117
117	6961
118	793
119	342
131	339
133	599
147	6911
148	1128
149	621
190	994
191	1266
192	297
193	120
219	547
220	120
221	64
