Mass Spectrum: N-(2-Aminoethyl)-3-aminopropyltrimethoxysilane
Formula: C8 H22 N2 O3 Si
CAS: 1760-24-3
Molecular weight: 222
Origin: Japan AIST/NIMC Database- Spectrum MS-NW-1355
m/z	RELATIVE INTENSITY
12	20
13	20
14	90
15	639
16	20
17	70
18	299
26	20
27	119
28	639
29	1339
30	1119
31	2879
32	2029
33	40
39	99
40	20
41	289
42	299
43	569
44	1909
45	109
46	30
47	90
53	20
54	50
55	109
56	279
57	139
58	50
59	669
60	139
61	529
62	40
63	40
64	10
65	50
66	20
67	40
68	50
69	70
70	159
71	99
72	20
73	809
74	169
75	99
76	99
77	159
78	20
79	40
80	20
81	40
82	40
83	80
84	60
85	119
86	30
87	70
88	80
89	40
90	209
91	1489
92	129
93	70
94	20
95	30
96	30
97	40
98	30
99	99
100	189
101	109
102	90
103	119
104	129
105	80
106	139
107	129
108	40
109	80
110	20
111	20
112	30
113	70
114	90
115	90
116	119
117	119
118	279
119	90
120	119
121	1569
122	159
123	90
124	10
125	40
126	10
127	90
128	119
129	70
130	3069
131	459
132	209
133	80
134	40
135	40
136	139
137	80
138	20
139	10
140	20
142	60
143	10
144	40
145	30
146	159
147	109
148	299
149	129
150	30
151	10
155	30
157	159
158	179
159	229
160	9999
161	1279
162	489
163	50
164	10
171	10
172	20
173	10
174	40
175	30
176	20
178	10
180	30
181	10
189	10
190	20
191	10
192	2749
193	389
194	139
195	10
206	10
