Mass Spectrum: 2-Methoxybenzyl isothiocyanate
Formula: C9 H9 N O S
CAS: 17608-09-2
Molecular weight: 179
Origin: NIST Mass Spectrometry Data Center, 1994
m/z	RELATIVE INTENSITY
4	29
14	55
15	501
26	122
27	263
28	257
29	141
32	157
37	134
38	347
39	1132
40	120
41	177
43	35
44	109
45	244
46	37
50	839
51	1847
52	900
53	227
54	46
55	46
58	247
59	93
60	32
61	123
62	314
63	843
64	332
65	2116
66	161
69	76
70	86
71	72
72	509
73	68
74	223
75	231
76	307
77	1423
78	1404
79	135
82	47
84	29
85	20
86	115
87	54
88	20
89	517
90	20
91	9999
92	842
93	1409
94	129
96	48
102	39
103	59
104	150
105	134
106	51
107	49
108	101
109	117
116	51
119	200
121	9488
122	796
123	53
132	79
134	32
135	31
136	99
137	24
146	51
147	68
151	28
164	100
179	1506
180	166
181	75
