Mass Spectrum: Fucosterol
Formula: C29 H48 O
CAS: 17605-67-3
Molecular weight: 412
Origin: DR GLENN PATTERSON
m/z	RELATIVE INTENSITY
39	400
41	3700
43	1800
53	600
55	8499
56	500
57	800
67	2000
68	600
69	4800
70	400
77	700
79	2000
80	400
81	3900
82	1000
83	1900
91	2100
92	500
93	2200
94	600
95	3200
96	400
97	1300
105	2200
106	600
107	2300
108	600
109	1400
117	800
118	500
119	1700
120	1000
121	1400
122	400
123	900
129	500
131	1200
132	500
133	1600
134	600
135	1000
137	500
143	900
144	500
145	1900
146	600
147	1200
149	500
157	700
158	1000
159	1600
160	600
161	1200
163	500
171	700
173	800
174	400
175	700
176	500
185	600
187	600
189	500
197	400
199	700
201	400
202	400
203	500
211	1000
213	1700
214	500
215	400
227	700
228	800
229	2800
230	700
231	1200
232	500
246	500
253	500
255	700
271	1000
272	600
281	3100
282	800
296	1700
297	800
298	400
299	2200
300	800
312	900
313	600
314	9999
315	2300
316	400
379	400
394	300
397	400
412	900
413	300
