Mass Spectrum: 5(4H)-Oxazolone, 2-phenyl-4-(phenylmethylene)-, (Z)-
Formula: C16 H11 N O2
CAS: 17606-70-1
Molecular weight: 249
Origin: A.A.Kutin, Moscow, Russia
m/z	RELATIVE INTENSITY
33	41
37	20
38	59
39	182
40	72
41	8
43	13
44	12
45	1
50	310
51	906
52	80
53	11
61	15
62	64
63	157
64	43
65	35
66	7
72	1
74	77
75	101
77	3976
78	192
79	8
86	6
87	16
88	34
89	218
90	46
91	21
98	1
99	1
100	3
102	104
105	9999
106	683
107	43
108	3
111	5
113	2
114	15
116	126
117	16
118	1
121	1
122	4
125	112
137	1
139	18
140	2
141	4
151	2
159	1
163	1
164	2
165	12
176	3
179	1
190	4
191	4
192	3
193	1
203	5
204	5
205	2
220	4
221	3
222	1
247	24
249	2436
250	404
251	45
252	2
