Mass Spectrum: 2,4,6-Octatrienal
Formula: C8 H10 O
CAS: 17609-31-3
Molecular weight: 122
Origin: James Little,Eastman Chem.Corp.,Kingsport,TN
m/z	RELATIVE INTENSITY
39	3202
40	420
41	1161
50	480
51	2312
52	890
53	1090
55	200
63	620
64	120
65	1991
66	490
67	250
69	300
77	9999
78	1761
79	7626
80	610
89	210
91	7696
92	620
93	7696
94	800
95	150
104	510
105	330
107	2302
108	180
119	110
120	60
121	220
122	4033
123	350
124	30
