Mass Spectrum: 2-(4-Chlorophenethyl) isothiocyanate
Formula: C9 H8 Cl N S
CAS: 17608-10-5
Molecular weight: 197
Origin: NIST Mass Spectrometry Data Center, 1994
m/z	RELATIVE INTENSITY
26	105
27	518
28	25
32	146
35	26
36	37
37	121
38	258
39	794
40	145
41	42
44	183
45	397
46	60
47	38
49	133
50	811
51	1084
52	185
53	59
57	22
58	171
59	136
60	70
61	164
62	387
63	1189
64	223
65	158
66	24
67	20
69	37
70	85
72	1248
73	396
74	470
75	944
76	283
77	1429
78	245
79	26
80	27
83	15
84	53
85	126
86	102
87	105
88	15
89	1839
90	485
91	96
97	58
98	64
99	606
100	72
101	446
102	425
103	1132
104	228
111	81
112	80
113	37
114	34
116	25
121	25
122	22
123	56
124	22
125	9999
126	897
127	3338
128	264
134	37
136	24
137	52
138	109
139	319
140	55
141	99
162	38
164	19
165	61
197	2666
198	318
199	1013
200	108
201	47
