Mass Spectrum: 9,19-Cyclolanost-24-en-3-ol, (3.beta.)-, TMS derivative
Formula: C33 H58 O Si
CAS: 17608-55-8
Molecular weight: 498
Origin: BAY 0375
m/z	RELATIVE INTENSITY
53	400
55	4404
56	300
57	901
59	200
67	2302
68	400
69	9999
70	601
71	300
73	7006
74	601
75	3003
76	200
77	801
78	300
79	2002
80	300
81	3803
82	801
83	1301
91	2102
92	400
93	3103
94	601
95	4604
96	801
97	500
101	200
103	200
105	2502
106	601
107	3303
108	701
109	3603
110	400
111	300
115	200
117	901
118	300
119	2002
120	801
121	2702
122	1301
123	1501
129	1401
130	300
131	1001
132	400
133	1902
134	1401
135	200
136	701
141	200
143	601
144	400
145	1301
146	400
147	2002
148	1001
149	1802
150	300
155	200
157	701
158	200
159	1401
160	500
161	1401
162	400
163	701
171	400
173	1401
174	400
175	1702
176	300
177	701
185	300
187	1001
188	300
189	801
190	200
191	500
199	200
201	901
202	801
203	1501
204	601
205	801
206	300
209	200
213	200
215	500
217	400
227	300
229	500
231	601
241	200
243	300
244	200
255	200
257	300
271	601
286	601
295	200
297	300
326	200
339	2102
340	601
365	2002
366	601
393	2702
394	801
395	200
408	2602
409	801
410	200
483	300
498	100
