Mass Spectrum: Undecane, 5,6-dimethyl-
Formula: C13 H28
CAS: 17615-91-7
Molecular weight: 184
Origin: D.HENNEBERG, MAX-PLANCK INSTITUTE, MULHEIM, WEST GERMANY
m/z	RELATIVE INTENSITY
21	6
22	5
24	2
25	2
26	42
27	787
28	128
29	1711
30	7
35	15
37	56
39	319
40	30
41	2352
42	866
43	7856
44	78
48	3
50	21
53	131
54	127
55	1279
56	2849
57	9999
58	382
67	35
68	97
69	1198
70	1112
71	1892
72	65
83	137
84	2256
85	1730
86	92
97	36
98	1886
99	360
100	3
112	59
113	196
114	9
126	21
127	179
141	4
155	12
184	32
