Mass Spectrum: 2-(2-Hydroxybenzylideneamino)phenol
Formula: C13 H11 N O2
CAS: 1761-56-4
Molecular weight: 213
Origin: NIST Mass Spectrometry Data Center, 1994
m/z	RELATIVE INTENSITY
14	16
15	130
16	111
17	18
18	58
19	87
26	422
27	970
28	801
29	335
32	128
36	72
37	268
38	831
39	3546
40	276
41	356
42	73
43	244
44	99
50	1187
51	3311
52	1277
53	1144
54	256
55	328
57	248
61	186
62	466
63	1444
64	972
65	3536
66	815
67	196
69	91
70	203
73	101
74	267
75	416
76	623
77	2096
78	1057
79	445
80	332
81	174
82	87
83	144
84	732
85	104
89	246
90	195
91	651
92	859
93	1967
94	1149
95	192
98	403
102	881
103	267
104	398
105	426
106	192
107	478
108	170
115	304
116	150
117	93
118	176
119	93
120	9999
121	953
122	131
126	127
127	331
128	547
129	343
130	285
131	125
132	110
138	504
139	626
140	399
141	150
154	502
155	287
156	358
157	114
166	521
167	398
168	457
169	150
170	161
182	173
183	419
184	1245
185	459
194	124
195	211
196	985
197	287
212	8524
213	9287
214	1267
215	86
