Mass Spectrum: 2H-1,4-Benzodiazepin-2-one, 1,3-dihydro-7-chloro-5-(o-fluorophenyl)-3-hydroxy-
Formula: C15 H10 Cl F N2 O2
CAS: 17617-60-6
Molecular weight: 304
Origin: Patti Price, Georgia Bureau of Investigation, Decatur, Georgia
m/z	RELATIVE INTENSITY
43	10
45	70
50	1010
51	530
52	180
57	340
61	270
62	320
63	470
64	100
67	20
68	230
69	550
70	330
71	80
73	340
74	1411
75	5575
76	780
77	220
81	170
83	60
84	530
85	380
86	440
87	390
88	230
89	60
90	30
93	280
94	930
95	2802
96	570
97	220
98	410
99	720
100	1721
101	610
102	1561
103	60
105	130
106	200
107	130
109	140
110	1351
111	780
112	740
114	60
117	80
118	210
119	200
120	170
121	350
122	2952
123	720
124	270
125	160
126	140
127	120
129	260
130	90
131	190
132	140
133	100
134	70
136	1281
137	1161
138	400
139	420
142	80
143	140
144	590
145	310
146	110
147	130
148	70
149	390
150	330
151	140
153	40
155	120
156	110
157	140
158	90
162	70
163	870
164	120
165	320
167	210
168	820
169	1050
170	610
171	170
175	550
176	1090
177	300
178	80
181	150
182	90
192	10
193	200
194	590
195	1981
196	730
197	130
201	160
202	1090
203	920
204	420
205	80
206	70
207	20
208	20
210	260
211	190
213	50
217	130
219	90
220	180
221	510
222	840
223	9999
224	1531
229	30
230	50
231	150
232	400
233	110
234	140
236	10
237	260
238	690
239	1050
241	350
242	100
244	20
251	3222
252	610
253	70
256	240
257	6706
258	8507
259	3473
260	2652
261	260
267	210
271	10
285	3513
286	8067
287	2352
288	2312
289	450
