Mass Spectrum: Benzaldehyde, 5-bromo-2-hydroxy-
Formula: C7 H5 Br O2
CAS: 1761-61-1
Molecular weight: 200
Origin: Japan AIST/NIMC Database- Spectrum MS-NW-3594
m/z	RELATIVE INTENSITY
12	20
13	10
14	30
15	20
17	10
18	40
24	10
25	70
26	149
27	159
28	60
29	649
30	20
31	90
32	70
36	119
37	679
38	1069
39	2439
40	99
41	50
42	99
43	40
44	30
45	40
46	649
48	50
49	239
50	719
51	359
52	40
53	1249
54	80
55	189
56	10
60	179
61	679
62	1169
63	2669
64	1229
65	3139
66	369
67	99
68	20
69	30
70	10
71	20
72	60
73	199
74	619
75	1039
76	169
77	60
78	10
79	80
80	60
81	80
82	50
84	10
85	30
86	199
87	179
89	10
90	80
91	149
92	579
93	479
94	40
95	20
99	50
100	70
101	80
103	50
104	10
105	20
106	20
107	20
109	10
115	10
116	50
117	299
118	50
119	289
120	60
121	60
122	20
128	10
129	10
130	20
131	20
133	10
141	10
142	40
143	959
144	119
145	979
146	99
147	10
149	10
153	10
154	1259
155	129
156	1209
157	109
170	99
171	1019
172	469
173	1069
174	379
175	30
182	879
183	80
184	869
185	80
198	109
199	4789
200	9999
201	5449
202	9829
203	769
204	70
