Mass Spectrum: Didesethylflurazepam
Formula: C17 H15 Cl F N3 O
CAS: 17617-59-3
Molecular weight: 331
Origin: R.E.Ardrey ET AL.Pharmaceutical Mass Spectra,L.,1985
m/z	RELATIVE INTENSITY
26	300
27	1401
29	500
30	9999
31	150
37	701
39	701
40	901
41	601
42	1101
43	901
44	1201
50	500
51	701
52	400
53	701
54	1101
55	400
56	100
57	400
61	100
62	400
63	801
64	300
65	200
67	100
68	200
69	200
70	200
73	300
74	400
75	2102
76	601
77	400
78	200
79	100
81	500
82	200
83	500
84	100
85	200
86	200
87	300
88	300
89	1601
90	601
91	500
92	400
93	100
94	400
95	1301
96	200
97	200
98	200
99	400
100	400
101	400
102	1001
103	300
104	100
105	500
106	100
107	400
108	300
109	2402
110	400
111	901
112	400
113	300
114	200
115	200
116	400
117	1301
118	300
119	200
120	200
121	701
122	701
123	1301
124	601
125	1001
126	300
127	400
128	200
129	300
130	300
131	200
132	200
133	300
134	300
135	300
136	500
137	1401
138	801
139	701
140	300
141	100
142	100
143	100
144	200
145	100
146	100
148	400
149	400
150	601
151	500
152	1101
153	300
154	400
155	300
156	500
157	500
158	200
161	100
162	200
163	701
164	801
165	601
166	601
167	200
168	300
169	400
170	400
171	100
175	300
176	300
177	500
178	200
179	200
180	300
181	901
182	801
183	2803
184	701
185	100
188	200
189	200
190	500
191	601
192	200
193	300
194	200
195	500
196	300
197	200
198	200
199	200
201	100
202	200
203	100
204	200
205	200
206	200
207	400
208	701
209	601
210	701
211	4404
212	701
213	100
214	200
215	100
216	200
217	500
218	200
219	300
220	100
221	200
222	300
223	601
224	300
225	100
226	100
229	100
230	100
231	100
232	300
233	100
234	200
235	100
236	200
237	300
238	300
239	300
240	100
242	100
244	300
245	2602
246	6806
247	1802
248	2202
249	601
250	901
251	200
252	200
253	500
254	300
255	1301
256	500
257	901
258	500
259	2302
260	801
261	901
262	701
263	300
264	200
265	100
267	100
269	200
270	200
271	601
272	400
273	3503
274	3003
275	1702
276	1001
277	300
278	300
279	100
283	300
284	400
285	400
286	300
287	500
288	300
289	1501
290	300
291	500
292	300
293	100
294	300
295	100
296	200
297	200
298	400
299	400
300	200
301	601
302	2903
303	701
304	1001
305	200
308	100
310	300
311	200
312	1601
313	8007
314	1902
315	2302
316	500
326	200
327	100
328	100
329	100
330	100
