Mass Spectrum: 1,5-Cyclooctadiene, (E,E)-
Formula: C8 H12
CAS: 17612-50-9
Molecular weight: 108
m/z	RELATIVE INTENSITY
39	3904
40	500
41	200
42	500
43	601
50	701
51	1201
52	601
53	1702
54	9999
55	901
56	100
57	300
65	801
66	2502
67	6306
68	400
69	300
77	1601
78	901
79	4604
80	3803
81	300
91	1001
92	200
93	1802
94	200
108	1201
109	200
