Mass Spectrum: 2-Cyclohexen-1-one, 4-ethyl-3,4-dimethyl-
Formula: C10 H16 O
CAS: 17622-46-7
Molecular weight: 152
Origin: CARL DJERASSI DEPT OF CHEM STANFORD UNIV STANFORD CALIF 94305
m/z	RELATIVE INTENSITY
41	3900
42	200
43	700
50	200
51	900
52	400
53	2000
54	200
55	2700
63	200
65	700
66	300
67	3200
68	200
69	300
77	1200
78	200
79	1600
80	300
81	2000
82	600
91	600
93	600
94	200
95	9999
96	1000
107	200
109	4800
110	5500
111	400
122	200
123	3000
124	2300
125	100
137	300
152	1900
153	100
