Mass Spectrum: 4-Ethyl-1,3-thiazole
Formula: C5 H7 N S
CAS: 17626-72-1
Molecular weight: 113
Origin: ASES Database, Dalian Institute, P.R. China
m/z	RELATIVE INTENSITY
39	4203
45	5214
58	4223
59	3082
60	190
61	100
71	9999
72	400
73	2011
74	200
86	2412
87	200
88	200
98	6936
99	390
100	390
112	6946
113	7516
114	800
115	390
