Mass Spectrum: 2-Propylthiazole
Formula: C6 H9 N S
CAS: 17626-75-4
Molecular weight: 127
Origin: W.Jennings, T.Shibamoto
m/z	RELATIVE INTENSITY
27	270
29	390
39	70
41	681
43	270
45	390
54	791
55	70
57	270
58	5795
59	1591
60	270
71	70
77	70
85	70
86	190
98	2392
99	9999
100	991
101	791
112	3093
113	190
114	70
126	921
127	591
