Mass Spectrum: 2-Butenoic acid, 3-methyl-, hexyl ester
Formula: C11 H20 O2
CAS: 17627-41-7
Molecular weight: 184
Origin: V.G.Zaikin, TIPS RAS, Moscow, Russia
m/z	RELATIVE INTENSITY
25	30
26	470
27	4634
28	480
29	5055
30	180
31	120
35	30
36	180
37	190
38	691
39	4844
40	781
41	3994
42	1391
43	4214
44	470
45	190
49	110
50	460
51	550
52	290
53	1712
54	711
55	5015
56	951
57	591
58	90
59	330
63	60
64	30
65	90
66	70
67	480
68	90
69	480
71	90
72	60
77	60
79	40
81	110
82	1852
83	9999
84	811
85	981
87	30
95	80
99	120
100	4914
101	2993
102	260
127	30
184	420
185	80
