Mass Spectrum: 2,3,5,6-Pyridinetetracarbonitrile
Formula: C9 H N5
CAS: 17638-20-9
Molecular weight: 179
m/z	RELATIVE INTENSITY
49	370
50	165
51	823
52	7530
53	658
54	247
63	2057
64	946
65	494
75	1687
76	1769
77	6501
78	823
100	4115
101	946
102	82
126	782
127	3991
128	123
152	823
153	535
179	9999
180	2592
