Mass Spectrum: 2-Methyl-1,3-oxathiolane
Formula: C4 H8 O S
CAS: 17642-74-9
Molecular weight: 104
m/z	RELATIVE INTENSITY
12	170
13	220
14	861
15	2372
16	280
17	70
24	120
25	530
26	3323
27	5025
28	7897
29	3974
30	120
31	230
32	540
33	350
34	791
35	941
36	100
37	60
38	140
39	150
40	70
41	991
42	631
43	3523
44	2122
45	5935
46	831
47	641
48	100
49	40
50	20
51	10
52	10
53	10
54	10
55	20
56	40
57	300
58	1191
59	5075
60	9999
61	3833
62	550
63	160
64	30
65	10
66	10
67	10
68	10
69	20
70	10
71	330
72	20
73	100
74	350
75	20
76	1682
77	60
78	150
79	10
84	10
85	40
86	60
87	30
88	10
89	1481
90	70
91	80
102	10
103	120
104	4454
105	260
106	220
107	10
