Mass Spectrum: Propanoic acid, 2,2-dichloro-, butyl ester
Formula: C7 H12 Cl2 O2
CAS: 17640-07-2
Molecular weight: 198
m/z	RELATIVE INTENSITY
14	20
15	90
17	10
18	70
25	10
26	200
27	1211
28	460
29	4194
30	110
31	130
32	30
35	20
36	80
37	20
38	50
39	430
40	70
41	4384
42	240
43	480
44	50
45	80
47	20
48	20
49	20
50	220
51	230
53	80
54	40
55	771
56	1441
57	9999
58	450
59	70
60	30
61	510
62	490
63	260
64	170
65	30
70	10
71	50
73	80
75	10
76	30
77	20
78	10
79	30
81	10
82	20
83	60
84	20
85	40
87	10
89	90
90	350
91	150
92	130
93	40
96	20
97	1101
98	40
99	711
100	20
101	120
106	30
107	170
108	70
109	70
110	40
111	20
112	10
113	20
117	10
118	10
119	10
121	10
125	100
126	30
127	90
128	20
129	30
133	10
135	10
143	40
145	30
155	30
157	20
162	40
163	40
164	30
165	20
169	40
171	20
183	20
185	20
198	40
200	30
202	10
