Mass Spectrum: Methyl trichloropropenoate
Formula: C4 H3 Cl3 O2
CAS: 17640-12-9
Molecular weight: 188
Origin: ASES Database, Dalian Institute, P.R. China
m/z	RELATIVE INTENSITY
47	1131
49	380
59	6185
60	310
61	630
87	2942
89	1141
94	3453
96	2362
98	300
103	680
117	150
129	3202
130	140
131	3062
132	150
133	1211
153	6115
154	150
155	4233
156	140
157	9999
158	530
159	8958
160	150
161	2972
188	2001
190	1981
192	760
