Mass Spectrum: 4,5-Isoxazoledicarboxylic acid, 4,5-dihydro-3-phenyl-, dimethyl ester, cis-
Formula: C13 H13 N O5
CAS: 17669-30-6
Molecular weight: 263
m/z	RELATIVE INTENSITY
29	500
31	1100
39	600
51	2200
59	3100
76	900
77	5099
89	900
91	1800
103	1500
104	600
105	800
113	1600
115	600
116	1200
117	1200
118	900
119	1100
134	1800
144	8499
146	600
160	1400
172	2300
176	9999
177	1400
178	2100
204	2700
231	500
263	6199
264	1100
