Mass Spectrum: 2-Methyl-1-hepten-3-yne
Formula: C8 H12
CAS: 17669-40-8
Molecular weight: 108
Origin: ASES Database, Dalian Institute, P.R. China
m/z	RELATIVE INTENSITY
26	190
27	1701
28	200
29	700
36	290
37	190
38	380
39	1701
40	700
41	1401
42	200
43	600
50	800
51	1811
52	880
53	1781
54	190
55	390
58	190
62	400
63	990
64	400
65	1701
66	1601
67	800
68	200
77	9999
78	1391
79	4634
80	1411
91	4924
92	600
93	4814
94	390
105	300
107	500
108	7716
109	690
