Mass Spectrum: 1-Octen-3-yne
Formula: C8 H12
CAS: 17679-92-4
Molecular weight: 108
Origin: D.HENNEBERG, MAX-PLANCK INSTITUTE, MULHEIM, WEST GERMANY
m/z	RELATIVE INTENSITY
21	11
22	9
23	58
24	39
25	26
26	338
27	5269
28	548
29	1120
30	50
31	35
32	36
33	38
34	43
35	47
36	17
37	334
38	934
39	8294
40	2534
41	6977
42	445
43	4051
44	142
45	21
46	12
47	19
48	22
49	135
50	1136
51	2242
52	1640
53	1558
54	581
55	636
56	894
57	48
58	53
59	27
60	39
61	248
62	645
63	1738
64	839
65	6278
66	7328
67	2056
68	203
69	69
71	8
72	5
73	50
74	241
75	478
76	148
77	9680
78	1733
79	9999
80	1659
81	396
82	18
85	8
86	32
87	39
88	9
89	236
90	57
91	4229
92	424
93	7188
94	559
95	20
102	23
103	136
104	97
105	220
106	101
107	433
108	4085
109	344
110	6
