Mass Spectrum: Cyclopenta[c]pyran-1(3H)-one, hexahydro-4,7-dimethyl-, (4.alpha.,4a.alpha.,7.alpha.,7a.alpha.)-
Formula: C10 H16 O2
CAS: 17672-96-7
Molecular weight: 168
Origin: G.R.WALLER OKLAHOMA STATE UNIVERSITY, OKLAHOMA, USA
m/z	RELATIVE INTENSITY
30	45
31	75
37	15
38	90
39	2063
40	376
41	4156
42	451
43	572
45	90
50	90
51	316
52	180
53	1310
54	647
55	2123
56	1355
57	602
58	632
59	90
62	15
63	60
65	376
66	542
67	6174
68	1957
69	3177
70	180
72	15
73	30
74	30
75	30
76	30
77	527
78	150
79	993
80	662
81	9999
82	2274
83	346
84	60
85	45
86	1385
87	165
91	271
92	15
93	466
94	180
95	2700
96	436
97	60
98	421
99	60
100	617
101	45
102	15
103	15
105	45
106	15
107	481
108	662
109	1189
110	602
111	858
112	75
113	5120
114	783
115	30
120	30
121	75
122	135
123	843
124	150
125	828
126	2665
127	1340
128	105
135	271
136	15
138	225
139	436
140	225
141	30
149	15
150	30
151	195
153	3554
154	346
156	30
167	286
168	1506
169	195
