Mass Spectrum: 1,3,5-Heptatriene, (E,E)-
Formula: C7 H10
CAS: 17679-93-5
Molecular weight: 94
Origin: D.HENNEBERG, MAX-PLANCK INSTITUTE, MULHEIM, WEST GERMANY
m/z	RELATIVE INTENSITY
24	3
25	12
26	189
27	1544
28	208
29	291
30	8
37	132
38	352
39	2786
40	579
41	1078
42	146
43	131
44	59
45	220
46	275
47	201
48	6
49	46
50	429
51	960
52	540
53	1047
54	401
55	211
56	13
57	10
59	12
60	13
61	89
62	194
63	406
64	112
65	1051
66	680
67	327
68	36
69	6
70	5
71	4
73	31
74	69
75	201
76	46
77	5451
78	952
79	9999
80	673
81	24
84	9
85	26
86	35
87	25
88	4
89	89
90	27
91	1857
92	271
93	1195
94	5108
95	392
96	17
