Mass Spectrum: Furyl hydroxymethyl ketone
Formula: C6 H6 O3
CAS: 17678-19-2
Molecular weight: 126
Origin: NIST Mass Spectrometry Data Center
m/z	RELATIVE INTENSITY
29	190
31	350
37	230
38	430
39	1581
40	100
49	50
50	110
66	80
67	530
68	230
69	60
95	9999
96	921
97	90
110	40
126	2102
127	120
