Mass Spectrum: 1-Hexanol, 4-methyl-, (S)-
Formula: C7 H16 O
CAS: 1767-46-0
Molecular weight: 116
Origin: Japan AIST/NIMC Database- Spectrum MS-IW- 891
m/z	RELATIVE INTENSITY
15	40
17	10
18	20
26	30
27	609
28	219
29	1969
30	60
31	989
32	10
38	10
39	499
40	99
41	6659
42	2759
43	2019
44	149
45	619
46	10
50	10
51	30
52	10
53	169
54	99
55	3579
56	3869
57	3519
58	199
59	199
60	229
61	10
65	20
66	10
67	279
68	409
69	9789
70	9999
71	709
72	20
73	10
79	10
81	40
82	20
83	859
84	60
85	30
86	10
87	209
88	10
96	10
97	129
98	429
99	50
115	20
