Mass Spectrum: Tricyclohexylmethanol
Formula: C19 H34 O
CAS: 17687-74-0
Molecular weight: 278
Origin: Japan AIST/NIMC Database- Spectrum MS-NW-8078
m/z	RELATIVE INTENSITY
17	10
18	30
27	60
28	30
29	159
31	10
39	90
40	10
41	819
42	40
43	159
45	20
51	10
53	109
54	60
55	1829
56	90
57	129
65	40
66	20
67	739
68	70
69	219
70	20
71	30
77	90
78	20
79	209
80	50
81	1779
82	199
83	1839
84	129
85	10
91	109
92	20
93	159
94	70
95	4499
96	429
97	229
98	20
99	569
100	40
105	40
107	80
108	20
109	459
110	119
111	469
112	40
113	479
114	40
117	10
119	20
121	439
122	50
123	20
133	20
134	10
135	379
136	40
137	10
139	20
147	10
149	10
161	10
163	30
164	70
165	90
166	10
175	10
176	139
177	1779
178	489
179	50
194	199
195	9999
196	1429
197	119
260	199
261	50
