Mass Spectrum: 2H-Pyran, 4-chlorotetrahydro-
Formula: C5 H9 Cl O
CAS: 1768-64-5
Molecular weight: 120
Origin: Chuck Anderson, Aldrich Chemical Co.
m/z	RELATIVE INTENSITY
14	44
15	168
16	16
18	15
25	31
26	551
27	3545
28	1443
29	4181
30	227
31	409
32	10
35	25
36	64
37	128
38	264
39	2954
40	238
41	2113
42	181
43	727
44	602
45	267
47	18
48	19
49	426
50	318
51	562
52	147
53	1465
54	3636
55	9999
56	1374
57	514
58	34
60	18
61	113
62	1283
63	204
64	414
65	80
66	16
67	369
68	14
69	255
70	8
71	573
72	30
73	26
75	573
76	40
77	190
79	1931
80	31
81	684
82	17
83	210
84	1329
85	511
86	26
88	4
89	64
90	1261
91	68
92	406
93	16
94	10
102	127
104	45
118	26
119	494
120	1681
121	247
122	548
123	25
