Mass Spectrum: N,N-Dimethylcyclopropanecarboxamide
Formula: C6 H11 N O
CAS: 17696-23-0
Molecular weight: 113
Origin: NIST Mass Spectrometry Data Center, 1994
m/z	RELATIVE INTENSITY
4	6
12	27
13	36
14	151
15	1006
16	43
17	6
18	405
26	424
27	2946
28	2285
29	3213
30	808
31	45
37	111
39	3771
40	786
41	7554
42	2158
43	373
44	2208
45	86
51	47
52	90
53	125
54	257
55	909
56	1257
57	47
58	6715
59	269
65	23
66	46
67	107
68	23
69	9999
70	1024
71	310
72	2424
73	190
74	21
80	38
81	79
82	76
83	70
84	553
85	179
86	65
87	89
95	28
96	68
98	1222
99	300
100	282
101	22
108	22
110	18
112	567
113	393
114	31
