Mass Spectrum: Methanesulfinic acid
Formula: C H4 O2 S
CAS: 17696-73-0
Molecular weight: 80
m/z	RELATIVE INTENSITY
31	801
32	1021
33	801
34	1471
36	480
44	1121
45	2002
46	941
47	1471
48	2192
49	400
50	320
62	861
63	3253
64	3683
65	9999
66	400
67	540
80	4934
81	320
82	480
