Mass Spectrum: 4(1H)-Quinazolinone, 2-methyl-
Formula: C9 H8 N2 O
CAS: 1769-24-0
Molecular weight: 160
Origin: Japan AIST/NIMC Database- Spectrum MS-IW- 726
m/z	RELATIVE INTENSITY
15	50
26	10
27	20
28	80
37	40
38	70
39	149
40	30
41	90
42	569
43	119
44	20
49	10
50	239
51	90
52	60
53	20
58	40
61	20
62	70
63	319
64	349
65	90
66	339
72	20
73	10
74	80
75	99
76	289
77	269
78	30
80	199
87	10
88	20
89	50
90	629
91	289
92	1039
93	80
102	109
103	20
104	80
105	80
115	30
116	60
117	419
118	1559
119	1309
120	969
121	70
129	10
130	20
131	549
132	579
133	90
142	10
143	319
144	40
145	649
146	60
159	809
160	9999
161	1099
162	70
