Mass Spectrum: 1,4-Dioxaspiro[4.5]decane
Formula: C8 H14 O2
CAS: 177-10-6
Molecular weight: 142
Origin: Japan AIST/NIMC Database- Spectrum MS-NW-7541
m/z	RELATIVE INTENSITY
14	20
15	179
16	10
17	10
18	60
19	20
26	109
27	819
28	379
29	299
30	30
31	40
37	20
38	50
39	799
40	159
41	1419
42	1319
43	639
44	50
45	119
50	40
51	90
52	60
53	219
54	229
55	2309
56	189
57	50
58	10
63	20
65	40
66	30
67	279
68	50
69	199
70	149
71	70
73	30
77	50
78	10
79	119
80	50
81	209
82	20
83	109
84	259
85	20
86	2049
87	99
88	10
90	10
95	10
97	199
98	139
99	9999
100	759
101	70
111	119
112	169
113	1059
114	80
115	10
127	10
141	40
142	769
143	70
