Mass Spectrum: N-(8-Bromooctyl)phthalimide
Formula: C16 H20 Br N O2
CAS: 17702-83-9
Molecular weight: 337
Origin: NIST Mass Spectrometry Data Center, 1994
m/z	RELATIVE INTENSITY
15	44
18	37
26	80
27	816
28	372
29	729
30	61
32	8
39	740
41	1976
42	440
43	212
44	26
50	525
51	366
52	80
53	247
54	208
55	990
56	269
57	47
63	44
64	30
65	75
66	59
67	226
68	113
69	313
70	118
74	183
75	437
76	1472
77	1656
78	192
79	73
80	45
81	77
82	46
83	43
84	24
89	48
90	75
91	43
92	28
93	35
95	48
96	34
102	406
103	237
104	1462
105	1043
106	117
107	123
109	127
110	95
111	29
115	24
117	411
118	66
122	19
124	112
130	1812
131	191
132	385
133	1102
134	173
135	24
144	18
145	36
146	96
147	226
148	1337
149	172
150	38
160	9999
161	5225
162	705
163	107
169	21
172	31
174	958
175	535
176	76
184	29
185	15
186	72
187	15
188	438
189	91
190	19
202	392
203	102
204	43
206	32
216	82
230	413
231	71
240	29
258	900
259	163
260	25
308	132
309	40
310	130
311	35
322	25
337	4386
338	950
339	4274
340	745
341	90
