Mass Spectrum: Pentane, 2-isothiocyanato-2,4,4-trimethyl-
Formula: C9 H17 N S
CAS: 17701-76-7
Molecular weight: 171
Origin: NIST Mass Spectrometry Data Center, 1994
m/z	RELATIVE INTENSITY
12	9
15	903
16	10
25	4
27	1679
28	385
29	2335
30	54
32	163
33	24
34	12
37	48
39	2707
41	5873
42	378
43	1000
44	83
45	96
46	19
47	18
48	5
50	85
51	179
52	116
53	429
54	5
55	1748
56	5
57	9999
58	888
59	1170
60	239
61	52
62	21
63	29
64	16
65	86
66	50
67	126
68	86
69	254
70	81
71	193
72	656
73	32
74	61
75	7
76	8
77	58
78	26
79	82
80	24
81	52
82	23
83	129
84	133
85	39
86	60
87	9
91	10
92	13
93	8
95	10
97	379
98	64
100	4213
101	245
102	180
103	8
108	3
113	1773
114	170
115	45
116	17
156	29
171	272
172	31
173	14
