Mass Spectrum: Ethanol, 2-(di-2-propenylamino)-
Formula: C8 H15 N O
CAS: 17719-79-8
Molecular weight: 141
Origin: NIST Mass Spectrometry Data Center, 1994
m/z	RELATIVE INTENSITY
4	7
14	24
15	240
18	33
19	81
26	95
27	537
28	662
29	354
30	440
31	404
32	26
37	36
39	2051
41	7287
42	2310
43	417
44	322
45	487
51	30
52	45
53	254
54	330
55	650
56	407
57	45
58	278
65	64
66	49
67	200
68	1362
69	220
70	679
71	48
72	64
74	33
77	42
79	767
80	182
81	987
82	234
83	25
84	65
91	15
93	21
94	78
95	44
96	37
97	10
98	41
99	13
100	72
108	90
110	9999
111	812
112	205
113	10
114	321
115	24
141	301
142	31
