Mass Spectrum: 2-Methoxyphenothiazine
Formula: C13 H11 N O S
CAS: 1771-18-2
Molecular weight: 229
Origin: D. SHARPLES, DEP. PHARM., UNIV. MANCHESTER,
m/z	RELATIVE INTENSITY
115	850
154	670
167	450
185	1130
186	5670
187	880
197	410
198	360
199	400
214	4290
215	670
228	840
229	9999
230	1590
