Mass Spectrum: 10H-Phenothiazine, 3-methoxy-
Formula: C13 H11 N O S
CAS: 1771-19-3
Molecular weight: 229
Origin: NIST Mass Spectrometry Data Center, 1994
m/z	RELATIVE INTENSITY
15	1003
18	6
26	29
27	61
29	105
30	19
31	21
37	48
38	126
39	316
40	3
41	18
42	11
45	329
46	11
47	16
50	260
51	296
52	142
53	43
54	14
57	32
58	100
59	12
61	55
62	226
63	446
64	118
65	146
66	31
67	16
68	12
69	554
70	138
71	66
72	19
74	141
75	180
76	171
77	313
78	97
79	116
80	91
81	54
82	178
83	74
84	36
85	58
87	56
88	59
89	170
90	62
91	39
92	36
93	359
94	72
95	116
96	55
97	17
99	131
101	86
102	75
103	36
104	17
105	12
106	27
107	43
108	163
109	169
110	38
111	19
112	12
113	78
114	12
115	940
116	158
117	64
118	17
119	21
120	54
121	35
122	43
123	17
125	53
126	137
127	253
128	341
129	52
132	30
133	67
134	71
135	44
136	25
137	11
138	19
139	72
140	331
141	312
142	161
143	16
144	16
145	43
146	72
147	19
148	14
151	27
152	165
153	428
154	677
155	87
156	14
158	172
159	170
160	81
161	17
164	32
166	148
167	193
168	130
169	58
170	61
171	65
172	22
173	16
180	12
182	312
183	186
184	384
185	1620
186	7052
187	976
188	363
189	38
196	145
197	415
198	217
199	163
200	69
201	16
210	10
212	21
214	3907
215	575
216	214
217	25
226	8
229	9999
230	1531
231	534
232	66
233	9
