Mass Spectrum: Benzenepentanamine
Formula: C11 H17 N
CAS: 17734-21-3
Molecular weight: 163
m/z	RELATIVE INTENSITY
30	9999
45	800
59	1000
65	600
72	500
77	500
91	2000
104	900
117	600
163	2000
