Mass Spectrum: Benzaldehyde, 2-methyl-, (2,4-dinitrophenyl)hydrazone
Formula: C14 H12 N4 O4
CAS: 1773-44-0
Molecular weight: 300
m/z	RELATIVE INTENSITY
51	701
52	500
53	100
61	100
62	300
63	1001
64	601
65	1501
66	200
74	200
75	500
76	500
77	801
78	1301
79	801
80	100
88	200
89	1101
90	1501
91	3803
92	701
93	701
94	300
102	200
103	1001
104	500
105	400
106	200
107	200
115	200
116	1001
117	5205
118	3003
119	1201
120	200
121	2002
122	300
127	200
128	200
129	100
130	200
131	200
132	1001
133	200
134	500
135	100
137	100
139	100
149	200
150	200
151	200
152	1201
153	300
154	200
163	200
164	400
165	200
166	300
167	200
168	200
176	200
177	300
178	1201
179	500
180	701
181	200
182	100
190	100
191	200
192	601
193	300
194	200
195	200
196	100
205	500
206	801
207	601
208	300
209	300
219	1001
220	300
221	200
223	200
235	200
236	100
237	100
238	200
239	200
240	100
251	100
252	400
253	300
254	100
255	100
265	500
266	300
267	400
270	100
281	100
283	100
284	100
285	400
286	100
299	300
300	9999
301	2002
302	200
