Mass Spectrum: 2H-1,3-Oxazine, tetrahydro-2-phenyl-
Formula: C10 H13 N O
CAS: 17762-72-0
Molecular weight: 163
Origin: P. Vainiotalo, Dep. Chem., Univ. Joensuu, Joensuu, Finland
m/z	RELATIVE INTENSITY
15	240
26	240
27	880
29	690
30	770
31	1480
37	70
38	180
39	920
40	170
41	930
42	390
43	320
44	230
49	100
50	560
51	1500
52	410
53	90
54	190
55	110
56	250
57	140
58	460
59	220
62	150
63	490
64	190
65	800
66	70
68	50
70	120
74	120
75	160
76	430
77	2480
78	820
79	450
84	120
85	80
86	1270
87	90
89	740
90	700
91	7090
92	720
102	50
103	640
104	3510
105	2600
106	1240
107	190
115	90
116	100
117	760
118	9999
119	8390
120	810
128	80
130	130
131	50
132	1260
133	2080
134	250
143	70
144	220
145	200
146	60
162	960
163	220
164	110
