Mass Spectrum: 1-Adamantanemethylamine
Formula: C11 H19 N
CAS: 17768-41-1
Molecular weight: 165
Origin: Chuck Anderson, Aldrich Chemical Co.
m/z	RELATIVE INTENSITY
18	14
27	245
28	267
29	212
30	2172
31	34
39	377
40	66
41	580
42	66
43	122
44	14
51	100
52	54
53	249
54	95
55	331
56	120
57	52
63	15
65	212
66	93
67	803
68	94
69	245
70	83
77	900
78	256
79	3065
80	396
81	773
82	86
91	796
92	336
93	2023
94	226
95	45
103	32
104	6
105	241
106	132
107	1011
108	107
115	14
117	23
119	80
120	34
133	64
134	39
135	9999
136	1049
137	55
148	483
149	55
150	54
164	172
165	1964
166	238
