Mass Spectrum: Arsenotrithious acid, triphenyl ester
Formula: C18 H15 As S3
CAS: 1776-70-1
Molecular weight: 402
Origin: O7-77-4B
m/z	RELATIVE INTENSITY
51	1587
63	317
65	1587
66	913
69	833
77	1825
78	317
82	278
84	357
92	278
107	3730
109	2420
110	2420
111	278
151	317
154	278
183	7817
184	2103
185	1190
186	1984
187	317
215	714
218	1190
293	9999
294	1587
295	1111
402	1984
403	516
404	357
