Mass Spectrum: Bis(2-chlorophenyl)phosphorochloridate
Formula: C12 H8 Cl3 O3 P
CAS: 17776-78-2
Molecular weight: 336
Origin: NIST Mass Spectrometry Data Center
m/z	RELATIVE INTENSITY
16	20
17	20
18	50
26	80
27	110
28	120
29	50
35	60
36	120
37	290
38	981
39	1251
40	50
41	60
42	30
43	40
47	1291
49	310
50	1031
51	530
52	140
53	220
54	30
55	80
56	40
57	40
59	10
60	40
61	260
62	641
63	2662
64	871
65	130
66	40
67	20
68	20
69	40
70	20
73	2462
74	721
75	3073
76	390
77	60
79	70
80	140
81	40
82	60
83	70
84	140
85	300
86	70
87	110
88	20
89	40
92	641
93	70
95	30
96	10
97	90
99	4404
100	320
101	1521
102	90
103	60
107	50
108	20
109	100
111	2092
112	200
113	701
114	70
115	40
117	50
127	1812
128	380
129	530
130	110
135	20
137	10
139	1591
140	140
141	20
143	20
145	20
146	40
148	20
149	30
151	10
153	20
155	1141
156	80
167	120
168	671
169	110
170	20
173	170
174	500
175	130
176	180
183	190
184	90
185	30
189	50
190	120
191	140
192	50
193	190
194	20
195	90
197	10
201	40
202	380
203	200
204	140
205	60
209	641
210	70
211	450
212	30
213	80
218	20
219	20
225	30
227	20
229	20
236	20
237	30
238	20
239	20
265	100
266	60
267	40
268	30
283	30
285	30
297	10
298	10
299	20
301	9999
302	1501
303	6566
304	911
305	1281
306	140
307	20
336	2082
337	330
338	2042
339	340
340	681
341	90
342	80
