Mass Spectrum: 1,1,1,5,5,5-Hexafluoroacetylacetone iron(III) salt
Formula: C15 H3 F18 Fe O6
CAS: 17786-67-3
Molecular weight: 677
Origin: Japan AIST/NIMC Database- Spectrum MS-NW-2978
m/z	RELATIVE INTENSITY
28	40
31	99
44	30
47	90
50	60
51	40
55	10
56	109
57	10
59	10
61	10
63	99
64	10
67	10
68	20
69	9999
70	309
71	159
72	50
73	20
74	20
75	789
76	20
78	10
79	20
83	30
84	10
85	10
87	10
88	40
89	30
90	10
91	339
92	10
93	20
94	10
95	10
97	60
100	10
102	20
103	10
106	10
113	10
114	10
116	139
117	10
118	10
119	1079
120	70
121	30
122	20
125	20
137	30
138	10
139	1049
140	50
141	10
143	30
144	30
145	20
161	40
163	70
165	20
166	239
167	10
169	1759
170	99
171	10
181	30
182	10
191	10
193	10
194	40
201	50
203	30
207	10
208	60
211	299
212	30
213	4519
214	309
215	40
216	169
217	10
230	169
231	20
232	379
233	20
234	10
235	179
261	30
263	439
264	30
266	60
269	50
270	10
280	20
282	299
283	30
331	10
339	10
351	50
369	10
370	20
377	70
399	40
400	10
401	579
402	70
403	10
404	60
408	10
418	30
420	459
421	60
422	10
441	10
451	10
468	70
469	10
470	949
471	129
472	20
473	10
608	50
609	10
677	60
