Mass Spectrum: 1,3-Dioxolane, 2-(3-bromophenyl)-
Formula: C9 H9 Br O2
CAS: 17789-14-9
Molecular weight: 228
Origin: Chuck Anderson, Aldrich Chemical Co.
m/z	RELATIVE INTENSITY
14	22
15	113
16	13
19	63
29	621
30	68
31	9
36	16
37	175
38	463
39	1139
40	60
41	42
42	120
43	751
44	207
45	4041
46	95
47	18
48	13
49	134
50	1878
51	1398
52	119
53	71
55	12
59	109
60	43
61	140
62	553
63	1411
64	141
65	255
66	32
71	13
73	9999
74	1178
75	1670
76	1891
77	2473
78	336
79	70
81	37
82	18
83	13
84	21
85	70
86	157
87	182
88	182
89	3315
90	641
91	1398
92	169
93	41
94	16
95	11
99	17
100	15
101	14
102	34
103	81
104	492
105	2292
106	183
107	52
114	125
115	127
116	18
117	93
118	63
119	1321
120	114
121	38
122	10
128	31
129	65
130	16
131	62
141	16
143	32
145	20
147	12
148	207
149	3574
150	307
151	52
153	28
154	13
155	1256
156	1657
157	1347
158	1528
159	123
167	17
168	30
169	592
170	72
171	547
172	51
183	3030
184	262
185	2745
186	252
187	35
197	281
198	59
199	284
200	77
201	19
202	32
227	6994
228	2732
229	6579
230	2422
231	249
232	25
