Mass Spectrum: Pregnenolone acetate
Formula: C23 H34 O3
CAS: 1778-02-5
Molecular weight: 358
Origin: LAC, NIDDK, NIH, Bethesda, MD 20892
m/z	RELATIVE INTENSITY
41	811
43	9999
44	146
45	107
47	24
49	137
51	81
53	339
55	823
57	90
58	16
59	18
61	45
65	125
67	695
68	73
69	240
71	501
72	6
73	9
77	420
78	132
79	1042
81	1163
83	124
84	166
85	539
86	61
88	11
91	1084
92	175
93	618
94	172
95	575
96	13
97	103
98	7
99	35
103	87
105	1217
106	450
107	1287
108	359
109	262
111	53
113	24
115	151
116	82
117	402
118	145
119	423
120	332
121	938
122	184
123	117
124	15
125	80
127	40
128	98
129	174
130	100
131	463
132	85
133	673
134	147
135	263
136	24
137	77
138	21
139	26
141	114
142	92
143	427
144	168
145	669
146	191
147	820
148	192
149	212
150	17
151	61
152	15
153	28
154	13
155	54
156	41
157	199
158	240
159	749
160	330
161	476
162	96
163	58
164	5
165	19
166	5
167	24
168	12
169	104
170	45
171	167
172	70
173	164
174	54
175	111
176	45
177	243
178	12
179	50
181	30
183	83
184	31
185	187
186	53
187	96
188	17
189	114
190	49
191	51
192	21
193	25
194	4
195	53
196	15
197	86
198	34
199	89
200	34
201	51
202	16
203	28
204	24
205	27
206	4
207	12
209	76
210	21
211	74
212	11
213	653
214	141
215	105
216	22
217	17
223	36
224	15
225	59
226	17
227	71
228	77
229	23
230	15
231	6
237	13
238	8
239	57
240	66
241	69
242	24
243	15
244	21
246	9
251	36
252	17
253	74
254	23
255	265
256	124
257	41
258	11
265	118
266	26
267	11
269	40
270	16
271	4
275	4
279	10
280	36
281	55
283	642
284	148
285	43
295	55
296	52
298	3154
299	760
300	179
301	31
302	11
312	3
314	16
315	12
341	20
342	14
358	47
359	14
