Mass Spectrum: 1,3-Dioxane, 4,5-dimethyl-
Formula: C6 H12 O2
CAS: 1779-22-2
Molecular weight: 116
m/z	RELATIVE INTENSITY
18	60
26	440
27	2592
29	3073
30	390
31	1591
39	2152
40	681
41	4434
42	9999
43	4134
44	671
45	8197
53	230
54	90
55	561
56	1191
57	440
58	110
59	90
67	40
68	40
69	1001
70	130
71	821
72	70
73	130
75	821
83	10
84	10
85	70
86	2622
87	310
101	120
115	440
116	260
