Mass Spectrum: Butanoic acid, 3-oxo-, propyl ester
Formula: C7 H12 O3
CAS: 1779-60-8
Molecular weight: 144
Origin: Japan AIST/NIMC Database- Spectrum MS-NW-3051
m/z	RELATIVE INTENSITY
13	10
14	70
15	439
18	20
19	10
25	20
26	159
27	1029
28	179
29	299
30	40
31	1429
32	20
33	10
36	10
37	30
38	60
39	369
40	70
41	979
42	849
43	9999
44	239
45	50
53	20
55	60
56	80
57	109
58	429
59	279
60	1679
61	1559
62	40
69	589
70	20
71	10
72	10
73	269
74	30
75	20
84	969
85	3149
86	149
87	269
88	10
100	10
101	30
102	1069
103	1549
104	70
105	10
115	80
116	40
129	60
144	179
145	20
