Mass Spectrum: 1,3,6-Trioxocane
Formula: C5 H10 O3
CAS: 1779-19-7
Molecular weight: 118
Origin: NIST Mass Spectrometry Data Center, 1990.
m/z	RELATIVE INTENSITY
14	216
15	1164
16	101
18	73
19	163
26	566
27	1940
28	9999
29	4045
30	2197
31	2664
32	103
41	95
42	352
43	2009
44	2628
45	1977
57	1635
58	3873
59	229
60	70
73	140
87	362
88	3186
89	128
118	88
