Mass Spectrum: Benomyl
Formula: C14 H18 N4 O3
CAS: 17804-35-2
Molecular weight: 290
Origin: DT-122-8
m/z	RELATIVE INTENSITY
17	1351
24	856
25	1666
27	518
28	338
36	338
38	1396
39	405
40	4639
41	968
42	4054
43	270
50	450
51	1576
52	946
53	563
54	135
55	653
56	1982
57	270
58	360
59	1036
62	135
63	743
64	631
65	540
66	135
69	158
70	540
71	360
72	180
75	135
76	360
77	1351
78	1779
79	315
80	338
82	135
83	135
90	1982
91	608
92	540
93	225
98	811
99	135
103	338
104	1486
105	4391
106	540
117	135
118	1982
119	1757
120	203
125	113
129	450
130	338
131	1351
132	2567
133	1126
134	225
146	2545
147	338
158	450
159	9909
160	1689
161	158
177	113
190	113
191	9999
192	1126
193	113
198	135
199	248
200	338
201	248
202	450
204	135
