Mass Spectrum: Thietane, 2-methyl-
Formula: C4 H8 S
CAS: 17837-41-1
Molecular weight: 88
Origin: GAZ DE FRANCE DETN., BP 33, 93-LA PLAINE SAINT-DENIS, FRANCE
m/z	RELATIVE INTENSITY
15	172
25	86
26	805
27	2989
37	172
38	230
39	1724
41	1552
42	977
43	276
45	4254
46	6093
47	2587
48	385
49	201
50	207
51	218
52	61
53	500
54	1437
55	2299
56	230
57	310
58	805
59	2069
60	8736
61	477
62	402
63	25
64	29
69	155
70	46
71	236
72	63
73	1552
74	82
75	86
76	80
81	38
82	34
83	48
84	33
85	169
86	27
87	247
88	9999
89	546
90	442
91	32
