Mass Spectrum: Methanimidamide, N,N-dimethyl-N'-phenyl-
Formula: C9 H12 N2
CAS: 1783-25-1
Molecular weight: 148
Origin: NIST Mass Spectrometry Data Center, 1994
m/z	RELATIVE INTENSITY
12	17
13	43
14	206
15	2766
16	26
17	3
18	677
26	207
27	634
28	1699
29	157
30	2266
37	252
38	551
39	1262
40	433
41	733
42	4971
43	683
44	9999
45	1804
46	66
50	1874
51	4709
52	674
53	121
54	99
55	88
56	117
57	802
61	135
62	218
63	553
64	457
65	554
66	149
67	68
68	26
69	64
71	68
73	468
74	710
75	475
76	916
77	9094
78	1138
79	909
80	74
81	25
83	58
87	25
88	37
89	32
90	113
91	570
92	230
93	85
104	3730
105	847
106	5191
107	461
116	76
117	102
118	292
119	175
120	1144
121	110
131	404
132	601
133	3069
134	324
145	116
147	4533
148	6862
149	687
150	33
