Mass Spectrum: 1-Pentanamine, N-ethyl-
Formula: C7 H17 N
CAS: 17839-26-8
Molecular weight: 115
Origin: CARL DJERASSI DEPT OF CHEM STANFORD UNIV STANFORD CALIF 94305
m/z	RELATIVE INTENSITY
29	600
30	3200
39	100
41	400
42	200
43	600
44	800
45	100
56	300
57	100
58	9999
59	300
71	100
100	100
114	100
115	400
