Mass Spectrum: Benzoic acid, 4-cyano-, phenyl ester
Formula: C14 H9 N O2
CAS: 17847-33-5
Molecular weight: 223
Origin: Zaikin V.G., TIPS RAS, Moscow, Russia
m/z	RELATIVE INTENSITY
28	10
38	30
39	190
50	110
51	220
52	30
63	60
64	30
65	210
66	30
74	50
75	310
76	200
77	60
93	30
94	70
101	50
102	2292
103	200
130	9999
131	751
132	40
147	50
223	1001
224	160
