Mass Spectrum: Pregnane-3,17,20-triol, (3.alpha.,5.beta.,20S)-, 3TMS derivative
Formula: C30 H60 O3 Si3
CAS: 17846-09-2
Molecular weight: 552
Origin: STER PREG TMSI L SE30 01 2806 E M.HORN
m/z	RELATIVE INTENSITY
41	1200
42	400
43	2750
44	600
45	500
47	200
50	168
51	168
52	168
53	168
54	100
55	1300
56	200
57	450
58	400
59	400
61	218
64	100
67	750
68	250
69	500
70	118
71	200
72	150
73	8750
74	750
75	3550
76	300
77	500
78	650
79	750
80	106
81	1200
82	156
83	400
84	100
85	175
89	100
91	850
92	156
93	1150
94	206
95	1000
96	350
97	218
99	100
101	206
102	100
103	250
104	100
105	956
106	206
107	1106
108	200
109	450
111	106
112	106
113	118
114	118
115	218
116	150
117	2000
118	300
119	700
120	150
121	550
122	100
123	150
127	150
129	450
130	150
131	600
132	156
133	1006
134	156
135	500
137	100
141	150
142	100
143	750
144	200
145	756
146	200
147	2600
148	406
149	575
150	100
151	118
155	275
156	350
157	400
158	118
159	637
160	150
161	650
162	118
163	150
169	350
170	100
171	150
173	500
174	106
175	206
177	100
181	100
182	100
183	100
185	150
187	200
189	100
191	450
192	100
193	118
197	156
199	250
200	100
201	300
207	1400
208	306
209	206
210	500
211	100
213	250
214	100
215	1150
216	250
217	250
218	218
219	100
221	150
228	106
229	200
231	318
232	118
239	100
245	618
246	168
253	100
254	150
255	9999
256	2000
257	250
266	100
281	450
282	150
283	450
345	1200
346	375
347	200
355	106
435	5500
436	1950
437	700
438	150
462	100
537	106
538	75
552	118
553	50
