Mass Spectrum: Benzene, 1-ethyl-2,4,5-trimethyl-
Formula: C11 H16
CAS: 17851-27-3
Molecular weight: 148
Origin: T.A.BLAZER DU PONT, GIBBSTOWN, N.J., USA
m/z	RELATIVE INTENSITY
15	358
16	34
26	70
27	491
28	133
29	114
38	70
39	730
40	60
41	530
44	61
50	149
51	471
52	156
53	293
55	102
59	82
62	82
63	250
64	215
65	404
66	79
67	66
71	77
72	82
73	80
74	70
75	61
77	591
78	192
79	264
89	70
91	967
92	172
93	115
102	124
103	348
104	188
105	1322
106	197
107	66
115	750
116	359
117	735
118	289
119	2133
120	670
121	89
127	84
128	201
129	165
130	75
131	429
132	224
133	9999
134	1583
135	111
147	250
148	3040
149	370
