Mass Spectrum: 3,6,9,12,15-Pentaoxanonadecan-1-ol
Formula: C14 H30 O6
CAS: 1786-94-3
Molecular weight: 294
Origin: NIST Mass Spectrometry Data Center, 2007
m/z	RELATIVE INTENSITY
14	10
15	70
16	10
19	100
26	40
27	380
28	621
29	1371
30	130
31	450
32	20
33	10
39	120
40	30
41	1501
42	290
43	1281
44	1221
45	9999
46	240
47	30
51	10
53	30
54	10
55	400
56	951
57	3883
58	971
59	1571
60	100
61	90
62	10
63	20
67	10
68	10
69	80
70	180
71	300
72	1171
73	1101
74	90
75	781
76	50
77	150
78	10
80	10
81	10
82	30
83	120
84	20
85	791
86	200
87	1992
88	991
89	4724
90	270
91	40
98	80
99	100
100	581
101	1912
102	290
103	991
104	90
105	50
107	60
113	10
114	20
115	200
116	80
117	430
118	40
119	220
120	10
121	220
122	10
128	10
129	50
130	20
131	470
132	70
133	1001
134	70
135	20
143	10
144	60
145	310
146	30
147	110
148	10
149	10
151	40
159	20
160	10
161	70
162	10
163	120
164	100
165	10
175	80
176	10
177	50
179	50
188	10
189	20
205	20
207	50
251	20
