Mass Spectrum: Pyrogallol, 3TMS derivative
Formula: C15 H30 O3 Si3
CAS: 17864-23-2
Molecular weight: 342
Origin: Tox21 Consortium/NIST Mass Spectrometry Data Center, 2012
m/z	RELATIVE INTENSITY
28	10
29	20
31	10
39	10
42	10
43	140
44	130
45	1421
46	90
47	60
51	20
52	10
53	20
55	40
56	10
57	60
58	70
59	190
60	20
61	30
63	20
64	10
65	10
67	10
69	20
70	20
71	40
73	9999
74	851
75	500
76	30
77	160
78	40
79	60
80	10
81	10
82	10
83	120
84	10
85	40
87	20
89	40
90	10
91	170
92	20
93	300
94	20
95	40
96	10
97	30
98	10
99	20
101	10
102	10
103	140
104	30
105	150
106	20
107	40
108	10
109	50
110	10
111	10
112	10
113	10
115	90
116	20
117	60
118	20
119	310
120	40
121	60
122	10
123	30
127	10
129	20
131	150
132	20
133	1201
134	170
135	190
136	30
137	140
138	20
139	10
141	10
143	60
144	10
145	30
147	470
148	80
149	130
150	20
151	60
152	20
153	60
154	10
155	10
157	50
158	10
159	10
161	30
162	10
163	40
164	20
165	30
166	20
167	30
168	10
169	10
171	10
175	10
177	40
178	10
179	260
180	40
181	60
182	20
183	20
189	20
190	10
191	60
192	10
193	130
194	30
195	70
196	90
197	40
198	10
205	20
207	40
208	10
209	70
210	20
211	480
212	100
213	40
214	10
221	10
223	20
225	20
233	10
235	10
237	60
239	6196
240	1321
241	550
242	80
243	20
251	30
252	10
253	40
254	180
255	40
256	20
267	50
268	10
269	40
270	10
311	10
312	10
327	470
328	140
329	60
330	20
342	3343
343	1041
344	500
345	110
346	30
