Mass Spectrum: Isoquinolium,2-methoxy-1-(methoxycarbonyl)-2-oxoethylide
Formula: C14 H13 N O4
CAS: 17870-65-4
Molecular weight: 259
Origin: ASES Database, Dalian Institute, P.R. China
m/z	RELATIVE INTENSITY
50	530
51	830
59	890
62	480
63	900
64	280
65	240
74	340
75	510
76	430
77	570
87	250
88	410
89	370
102	1271
103	950
113	580
114	1171
115	2702
116	430
127	150
128	3082
129	4744
130	950
131	110
140	1601
141	650
142	800
143	9999
144	1911
145	200
154	80
156	110
158	100
169	150
170	1261
171	160
172	100
196	100
198	1020
199	120
200	300
201	5004
202	670
216	90
228	4123
229	610
258	80
259	3923
260	660
