Mass Spectrum: 6-tert-Butyl-4-methylcoumarin
Formula: C14 H16 O2
CAS: 17874-32-7
Molecular weight: 216
Origin: NIST Mass Spectrometry Data Center, 1994
m/z	RELATIVE INTENSITY
14	42
15	543
16	16
17	9
18	48
26	32
27	567
28	338
29	186
32	6
37	28
38	170
39	1791
40	199
41	1342
42	129
43	309
50	317
51	1019
52	289
53	345
54	43
55	233
56	26
57	222
61	37
62	234
63	684
64	333
65	540
66	107
67	411
68	27
69	80
71	64
72	569
74	38
75	250
76	246
77	1100
78	445
79	346
80	52
84	44
87	250
88	61
89	241
90	89
91	660
92	78
93	58
94	30
98	38
99	28
101	135
102	305
103	395
104	105
105	517
106	50
107	70
113	41
115	1167
116	249
117	359
118	57
119	49
126	80
127	434
128	905
129	521
130	220
131	596
132	228
133	147
134	15
139	48
140	17
141	121
142	86
143	101
144	15
145	1177
146	145
147	22
152	23
153	24
154	19
155	78
156	17
157	358
158	211
159	79
160	19
161	1145
162	123
163	14
169	12
171	176
173	1870
174	263
175	34
183	14
185	30
186	16
187	30
201	9999
202	1485
203	147
216	1767
217	284
218	23
