Mass Spectrum: 4-Bromophenol, TMS derivative
Formula: C9 H13 Br O Si
CAS: 17878-44-3
Molecular weight: 244
Origin: NIST Mass Spectrometry Data Center
m/z	RELATIVE INTENSITY
14	10
15	70
26	20
27	90
28	80
29	210
30	20
31	50
37	50
38	210
39	250
40	20
41	40
42	170
43	1221
44	370
45	1702
46	140
47	290
48	30
49	20
50	721
51	270
52	50
53	370
54	80
55	290
56	50
57	150
58	320
59	320
60	190
61	340
62	380
63	1191
64	530
65	310
66	120
67	210
68	50
69	130
70	70
71	80
72	150
73	4614
74	901
75	1762
76	1061
77	661
78	170
79	370
80	40
81	140
82	30
83	160
84	20
85	200
86	30
87	30
88	30
89	581
90	581
91	1591
92	290
93	240
94	50
95	150
96	80
97	30
98	10
99	70
100	190
101	150
103	120
104	60
105	360
106	80
107	400
108	70
109	370
110	30
111	90
112	10
114	1401
115	1451
117	210
118	30
119	250
120	140
121	971
122	180
123	400
124	60
125	330
126	20
127	20
128	10
129	50
130	20
131	110
132	30
133	180
134	110
135	3433
136	550
137	3533
138	290
139	3453
140	250
141	180
142	10
143	510
144	40
145	510
146	40
147	380
148	230
149	4884
150	6075
151	1021
152	260
153	20
154	40
155	941
156	100
157	921
158	80
159	50
160	10
161	90
162	20
163	70
164	150
165	70
166	20
167	20
168	10
169	220
170	30
171	450
172	50
173	310
174	30
175	50
176	10
177	10
183	10
185	10
186	10
187	10
188	10
189	10
198	30
199	300
200	60
201	370
202	40
203	60
204	10
211	10
212	10
213	140
214	30
215	140
216	20
217	10
225	10
226	10
227	50
229	9999
230	1451
231	9989
232	1371
233	410
234	40
241	10
244	7297
245	1131
246	7477
247	1191
248	350
249	30
