Mass Spectrum: Propylene glycol, 2TMS derivative
Formula: C9 H24 O2 Si2
CAS: 17887-27-3
Molecular weight: 220
Origin: NIST Mass Spectrometry Data Center
m/z	RELATIVE INTENSITY
15	10
27	20
28	10
29	70
30	10
31	30
39	40
40	10
41	110
42	40
43	280
44	140
45	781
46	50
47	230
48	10
51	30
52	60
53	20
54	10
55	60
56	20
57	80
58	200
59	631
60	80
61	180
62	10
63	10
66	1001
69	10
70	30
71	50
72	180
73	6566
74	611
75	861
76	50
77	60
81	410
83	10
85	50
86	10
87	90
88	40
89	60
90	10
91	10
94	10
95	70
99	30
101	220
102	60
103	180
104	20
105	70
106	10
107	10
113	20
115	250
116	120
117	9999
118	1131
119	470
120	30
129	30
130	30
131	430
132	70
133	671
134	90
135	50
145	10
147	6306
148	1011
149	550
150	60
151	10
161	10
176	10
177	10
189	20
205	310
206	60
207	30
219	10
