Mass Spectrum: 4-Nitrophenyl-.beta.-phenylpropionate
Formula: C15 H13 N O4
CAS: 17895-71-5
Molecular weight: 271
Origin: Zaikin V.G., TIPS RAS, Moscow, Russia
m/z	RELATIVE INTENSITY
27	50
28	20
39	60
51	100
55	30
63	60
64	40
65	360
76	30
77	550
78	200
79	530
80	30
89	40
90	40
91	7717
92	611
93	70
102	30
103	490
104	450
105	9469
106	851
107	20
109	110
123	200
131	250
132	130
133	9999
134	971
135	90
271	460
272	60
