Mass Spectrum: L-Histidine, N,1-bis(trimethylsilyl)-, trimethylsilyl ester
Formula: C15 H33 N3 O2 Si3
CAS: 17908-25-7
Molecular weight: 371
Origin: O A MAMER, MCGILL UNIVERSITY, MONTREAL, CANADA
m/z	RELATIVE INTENSITY
15	147
18	48
26	50
27	104
28	380
29	83
32	57
39	37
42	34
43	125
44	21
45	1135
46	96
47	53
54	65
55	68
56	51
57	92
58	149
59	277
60	51
61	57
70	57
72	202
73	6786
74	790
76	59
82	521
83	201
84	184
85	81
86	59
98	74
100	388
101	72
103	37
111	35
112	83
126	114
130	87
131	76
132	34
133	15
139	48
153	530
154	9999
155	1828
156	485
157	59
166	142
167	65
181	39
182	1381
183	236
184	74
218	693
219	145
220	65
226	148
227	46
238	197
239	57
254	2121
255	498
256	226
257	103
266	70
284	85
328	70
356	237
357	88
358	38
371	62
