Mass Spectrum: 2,6,9,11-Dodecatetraenal, 2,6,10-trimethyl-, (E,E,E)-
Formula: C15 H22 O
CAS: 17909-77-2
Molecular weight: 218
m/z	RELATIVE INTENSITY
41	4704
42	200
43	2702
44	100
51	500
52	200
53	1902
54	400
55	7807
56	500
57	400
64	801
65	300
66	1201
67	400
68	1201
69	300
70	400
77	2803
78	701
79	4704
80	2002
81	2803
82	701
83	300
84	1001
91	3403
92	1001
93	9999
94	1301
95	801
96	200
97	200
105	2202
106	601
107	3803
108	500
109	300
119	3703
120	801
121	1001
133	400
134	6806
135	300
136	200
137	500
145	400
146	100
147	300
160	200
161	300
162	200
175	200
176	100
185	200
203	200
218	200
