Mass Spectrum: 2,5-bis(Trimethylsilyl)thiophene
Formula: C10 H20 S Si2
CAS: 17906-71-7
Molecular weight: 228
Origin: V.G.Zaikin, TIPS, Russian Acad. Sci.
m/z	RELATIVE INTENSITY
73	2962
74	230
75	210
83	1020
85	380
99	1361
115	310
163	310
183	270
197	240
199	230
213	9999
214	2041
215	1461
228	1501
229	330
230	200
231	30
232	10
