Mass Spectrum: Methyltris(trimethylsiloxy)silane
Formula: C10 H30 O3 Si4
CAS: 17928-28-8
Molecular weight: 310
Origin: NIST Mass Spectrometry Data Center, 1998.
m/z	RELATIVE INTENSITY
29	10
31	10
43	40
44	30
45	370
46	20
47	20
52	10
55	10
57	20
58	20
59	290
60	20
61	30
66	40
70	10
71	20
73	5369
74	490
75	270
76	10
80	10
81	10
83	10
85	50
86	10
87	60
88	30
89	20
95	10
96	10
99	10
101	10
102	10
103	70
104	10
105	40
109	10
110	10
113	10
115	80
116	20
117	110
118	20
119	150
120	20
121	10
124	50
125	10
129	20
131	160
132	40
133	400
134	50
135	40
140	50
143	20
145	40
146	10
147	230
148	40
149	40
150	10
159	30
160	10
161	50
162	10
163	100
164	20
165	60
166	10
167	10
173	10
174	10
175	70
176	50
177	220
178	50
179	50
180	10
187	10
189	280
190	70
191	1000
192	200
193	340
194	60
195	30
201	10
203	60
204	20
205	90
206	10
207	9999
208	2560
209	1510
210	220
211	60
212	10
219	10
221	10
233	20
235	10
247	170
248	50
249	50
250	10
251	10
263	120
264	40
265	130
266	30
267	20
279	410
280	120
281	70
282	10
295	3090
296	960
297	580
298	130
299	40
300	10
