Mass Spectrum: cis-1,2-Cyclohexanediol
Formula: C6 H12 O2
CAS: 1792-81-0
Molecular weight: 116
Origin: Japan AIST/NIMC Database- Spectrum MS-IW-4746
m/z	RELATIVE INTENSITY
14	20
15	169
16	10
17	20
18	70
26	159
27	1639
28	659
29	1839
30	139
31	1139
32	20
33	10
37	40
38	109
39	1609
40	339
41	3939
42	3989
43	2269
44	3489
45	609
46	20
47	149
49	10
50	99
51	159
52	70
53	399
54	1349
55	2949
56	1589
57	8289
58	479
59	60
60	249
61	30
62	20
63	30
65	99
66	60
67	779
68	489
69	2939
70	9999
71	739
72	249
73	249
74	279
75	30
76	10
77	139
78	99
79	449
80	1329
81	469
82	80
83	4009
84	239
85	169
86	129
87	40
88	60
94	10
95	20
96	30
97	1109
98	5249
99	659
100	40
101	10
114	20
115	50
116	2139
117	149
118	10
