Mass Spectrum: N,N'-di-n-Butylurea
Formula: C9 H20 N2 O
CAS: 1792-17-2
Molecular weight: 172
Origin: NIST Mass Spectrometry Data Center, 1994
m/z	RELATIVE INTENSITY
4	10
14	4
15	70
18	135
27	939
28	931
29	1835
30	9999
31	268
32	27
39	576
41	1763
42	385
43	647
44	3515
45	130
53	91
54	82
55	334
56	628
57	1182
58	348
59	47
60	87
61	89
69	26
70	89
72	642
73	550
74	1332
75	51
85	101
86	60
87	717
88	307
100	906
101	914
102	71
115	59
116	48
117	106
129	873
130	781
131	50
143	384
144	47
157	258
172	1870
173	243
