Mass Spectrum: Silanol, trimethyl-, triester with arsenic acid
Formula: C9 H27 As O4 Si3
CAS: 17921-76-5
Molecular weight: 358
Origin: W.T.RAINEY OAK RIDGE NATIONAL LABORATORY,OAK RIDGE,TN.USA
m/z	RELATIVE INTENSITY
52	299
72	149
73	2666
74	266
75	3333
76	249
77	316
79	666
93	1049
95	349
103	233
105	766
117	166
121	299
133	283
135	433
147	1699
148	249
149	283
151	166
191	199
193	3582
194	649
195	899
207	2083
208	433
209	716
211	699
269	999
270	166
271	216
299	1749
300	399
301	216
314	383
343	9999
344	2333
345	1333
346	316
358	3499
359	866
360	483
