Mass Spectrum: 2-Carbomethoxyphenyl isocyanate
Formula: C9 H7 N O3
CAS: 1793-07-3
Molecular weight: 177
Origin: NIST Mass Spectrometry Data Center, 1994
m/z	RELATIVE INTENSITY
11	6
12	22
14	130
15	1000
16	10
18	27
25	35
26	138
28	197
29	433
30	132
37	559
38	660
39	1202
40	96
41	23
42	17
44	116
45	125
49	108
50	449
51	341
52	190
53	127
54	20
55	14
56	7
59	204
60	44
61	272
62	506
63	1225
64	957
65	104
66	55
67	14
68	9
70	8
73	91
74	161
75	146
76	140
77	112
78	257
79	30
80	7
85	7
86	29
87	75
88	163
89	7
90	4124
91	470
92	143
93	23
94	9
99	11
102	26
103	17
104	75
105	101
106	43
116	19
118	639
119	270
120	33
122	6
132	22
133	28
134	28
135	13
146	9999
147	890
148	74
149	5
161	16
162	39
177	3907
178	401
179	19
