Mass Spectrum: Heptylamine, TMS derivative
Formula: C10 H25 N Si
CAS: 17940-17-9
Molecular weight: 187
Origin: NIST Mass Spectrometry Data Center, 2010
m/z	RELATIVE INTENSITY
27	60
28	20
29	110
30	30
31	20
39	40
40	10
41	140
42	30
43	190
44	110
45	230
46	30
47	10
53	10
54	10
55	120
56	50
57	50
58	120
59	440
60	70
61	20
67	10
68	10
69	20
70	40
71	40
72	160
73	2813
74	500
75	120
76	20
81	10
82	10
83	10
84	30
85	50
86	250
87	110
88	561
89	90
90	40
95	10
96	10
97	20
98	60
99	50
100	140
102	9999
103	1011
104	380
105	20
112	20
113	10
114	140
115	30
116	60
117	20
126	10
128	60
129	10
130	10
142	10
144	50
145	10
157	20
158	100
159	10
170	30
172	2362
173	360
174	100
175	10
186	120
187	641
188	110
189	30
