Mass Spectrum: Cyclohexane, 1,3,5-trimethyl-, (1.alpha.,3.alpha.,5.alpha.)-
Formula: C9 H18
CAS: 1795-27-3
Molecular weight: 126
m/z	RELATIVE INTENSITY
12	10
13	10
14	60
15	721
16	20
25	10
26	130
27	2522
28	370
29	1892
30	40
31	10
37	30
38	120
39	2732
40	470
41	5105
42	1621
43	1381
44	50
45	10
46	10
47	10
48	10
49	10
50	90
51	270
52	120
53	771
54	190
55	6666
56	1461
57	661
58	30
61	10
62	20
63	70
64	10
65	170
66	60
67	510
68	230
69	9699
70	1021
71	110
72	10
74	10
75	10
76	10
77	160
78	40
79	120
80	20
81	160
82	100
83	490
84	240
85	30
89	10
91	70
92	10
93	20
94	10
95	150
96	30
97	180
98	20
103	10
104	10
105	10
107	10
109	90
110	90
111	9999
112	891
113	40
125	120
126	2362
127	230
128	10
