Mass Spectrum: Cyclohexane, tetradecyl-
Formula: C20 H40
CAS: 1795-18-2
Molecular weight: 280
Origin: Japan AIST/NIMC Database- Spectrum MS-NW-5265
m/z	RELATIVE INTENSITY
26	10
27	249
28	60
29	699
30	10
32	10
36	10
39	179
40	40
41	1859
42	319
43	1749
44	60
51	10
52	10
53	99
54	299
55	3449
56	599
57	1209
58	50
65	20
66	30
67	1099
68	349
69	1049
70	399
71	479
72	20
77	30
78	10
79	50
80	20
81	229
82	7989
83	9999
84	849
85	299
86	20
91	10
93	10
95	70
96	229
97	859
98	199
99	70
107	10
108	10
109	30
110	70
111	329
112	129
113	40
123	10
124	40
125	179
126	90
127	30
138	30
139	109
140	60
141	20
152	20
153	50
154	40
155	10
166	10
167	30
168	60
169	10
180	10
181	20
182	10
195	10
196	129
197	60
198	10
224	10
252	20
280	239
281	50
