Mass Spectrum: Ethyltributoxysilane
Formula: C14 H32 O3 Si
CAS: 17957-38-9
Molecular weight: 276
Origin: Institute of Organic Chemistry, Novosibirsk, USSR 1988
m/z	RELATIVE INTENSITY
41	3149
42	2789
43	2349
44	208
45	85
56	308
57	5709
58	489
79	2089
80	99
91	2849
92	249
93	829
121	99
122	19
135	133
136	13
147	112
148	15
149	50
161	216
162	36
163	18
177	52
178	8
191	989
192	149
203	3209
204	539
205	299
233	3119
234	549
235	169
247	9999
248	1779
249	549
