Mass Spectrum: Dodecylcyclohexane
Formula: C18 H36
CAS: 1795-17-1
Molecular weight: 252
Origin: Japan AIST/NIMC Database- Spectrum MS-IW-2648
m/z	RELATIVE INTENSITY
26	10
27	199
28	20
29	569
30	10
39	199
40	40
41	1809
42	309
43	1539
44	50
51	10
53	129
54	329
55	3869
56	639
57	1059
58	40
65	30
66	30
67	1269
68	359
69	1079
70	429
71	439
72	20
77	30
79	60
80	20
81	259
82	8689
83	9999
84	899
85	239
86	10
91	10
93	10
95	60
96	229
97	809
98	199
99	50
109	30
110	60
111	319
112	119
113	30
124	30
125	169
126	80
127	20
138	20
139	109
140	90
141	10
152	10
153	30
154	20
167	20
168	179
169	70
181	10
182	10
195	10
224	20
252	409
253	80
