Mass Spectrum: Cyclohexane, octyl-
Formula: C14 H28
CAS: 1795-15-9
Molecular weight: 196
Origin: Japan AIST/NIMC Database- Spectrum MS-IW-1910
m/z	RELATIVE INTENSITY
26	10
27	329
28	70
29	659
30	10
36	10
39	349
40	60
41	2059
42	339
43	1169
44	40
51	20
52	10
53	199
54	409
55	4719
56	779
57	779
58	30
65	40
66	40
67	1499
68	379
69	1109
70	579
71	319
72	10
77	40
78	10
79	70
80	20
81	279
82	8199
83	9999
84	1039
85	139
91	20
92	10
93	10
95	50
96	149
97	659
98	149
99	20
109	20
110	30
111	179
112	319
113	60
124	10
125	80
126	40
127	10
138	10
139	60
140	30
141	10
153	20
154	10
156	10
168	30
196	859
197	129
198	10
