Mass Spectrum: Pentane, 1-ethoxy-
Formula: C7 H16 O
CAS: 17952-11-3
Molecular weight: 116
Origin: CARL DJERASSI DEPT OF CHEM STANFORD UNIV STANFORD CALIF 94305
m/z	RELATIVE INTENSITY
29	5247
30	297
31	9405
32	198
33	99
38	99
39	1386
40	297
41	3267
42	2574
43	3465
44	396
45	792
47	1386
50	99
51	99
53	198
54	99
55	1485
56	297
57	297
58	99
59	9999
60	396
61	99
69	495
70	3465
71	1386
72	99
73	297
116	297
