Mass Spectrum: Thiophene, 3-ethyl-
Formula: C6 H8 S
CAS: 1795-01-3
Molecular weight: 112
Origin: Japan AIST/NIMC Database- Spectrum MS-NW-6623
m/z	RELATIVE INTENSITY
15	40
18	30
25	10
26	70
27	349
28	90
29	40
32	30
33	10
34	10
36	10
37	90
38	179
39	759
40	60
41	169
43	10
44	60
45	1499
46	60
47	99
49	50
50	209
51	289
52	90
53	599
54	40
55	80
56	20
57	159
58	309
59	99
60	30
61	50
62	80
63	119
64	20
65	199
66	80
67	199
68	20
69	289
70	99
71	179
72	20
73	10
74	20
75	10
76	10
77	369
78	149
79	70
80	10
81	99
82	109
83	60
84	379
85	249
86	30
87	10
91	40
92	30
93	30
95	60
96	50
97	9999
98	649
99	469
100	30
108	20
109	119
110	90
111	839
112	4649
113	399
114	249
115	20
