Mass Spectrum: 2-Butenedioic acid, (E)-, 2TMS derivative
Formula: C10 H20 O4 Si2
CAS: 17962-03-7
Molecular weight: 260
Origin: O A MAMER, MCGILL UNIVERSITY, MONTREAL, CANADA
m/z	RELATIVE INTENSITY
15	323
18	75
26	191
27	136
28	508
29	276
31	128
39	135
40	146
41	76
42	109
43	984
44	478
45	2736
46	194
47	901
51	124
52	88
53	706
54	351
55	278
57	163
58	634
59	600
60	159
61	563
66	210
67	151
68	259
69	302
70	81
71	101
72	296
73	9884
74	984
75	4014
76	291
77	159
82	144
83	899
84	511
85	213
89	80
97	101
98	163
99	134
103	87
113	156
115	923
116	98
117	177
119	76
126	149
127	244
128	129
131	155
133	813
134	123
135	92
142	87
143	1726
144	218
145	98
147	5794
148	920
149	781
150	102
155	390
156	90
157	249
170	105
171	167
191	45
201	91
208	37
215	127
217	214
230	78
245	9999
246	2060
247	945
248	133
