Mass Spectrum: 9H-Purin-6-ol, 2TMS derivative
Formula: C11 H20 N4 O Si2
CAS: 17962-89-9
Molecular weight: 280
Origin: NIST Mass Spectrometry Data Center
m/z	RELATIVE INTENSITY
15	10
27	10
28	20
29	50
30	10
31	10
39	10
41	10
42	40
43	450
44	180
45	1081
46	80
47	70
51	10
52	10
53	40
54	90
55	140
56	110
57	160
58	390
59	190
60	40
61	50
63	10
64	20
65	30
66	90
67	20
68	50
69	80
70	210
71	100
72	280
73	5165
74	500
75	400
76	30
77	20
78	20
79	20
80	30
81	30
82	20
83	40
84	801
85	250
86	140
87	30
88	10
89	10
90	20
91	20
92	30
93	40
94	30
95	120
96	70
97	60
98	130
99	150
100	290
101	50
102	30
103	20
104	10
105	10
106	10
107	20
108	20
109	30
110	130
111	250
113	40
114	20
115	30
116	20
117	50
118	10
119	40
120	10
121	10
122	30
123	150
124	110
125	601
127	20
128	50
129	20
130	40
131	150
132	50
133	70
134	20
135	10
136	30
137	30
138	100
139	90
140	30
141	30
142	30
143	20
144	20
147	470
148	100
149	50
150	70
151	40
152	130
153	90
154	30
155	30
156	30
157	30
158	180
159	50
160	20
161	10
162	10
163	30
164	30
165	120
166	410
167	70
168	40
169	30
170	50
171	60
172	290
173	110
174	30
175	20
176	10
177	70
178	20
179	40
180	170
181	250
182	60
183	30
184	20
185	10
191	110
192	130
193	520
194	90
195	40
196	20
197	50
198	10
199	10
205	30
206	911
207	470
208	180
209	40
210	20
211	40
212	20
213	10
220	10
221	20
222	90
223	90
224	50
225	20
226	10
235	80
236	30
237	60
238	230
239	100
240	30
241	10
249	180
250	40
251	40
252	30
253	20
263	30
265	9999
266	2612
267	1051
268	160
269	30
277	10
279	360
280	4584
281	1121
282	440
283	60
284	10
