Mass Spectrum: Triallylethoxysilane
Formula: C11 H20 O Si
CAS: 17962-20-8
Molecular weight: 196
Origin: Institute of Organic Chemistry, Novosibirsk, USSR 1988
m/z	RELATIVE INTENSITY
41	1289
42	299
43	1269
44	379
45	7819
46	509
47	1129
61	799
62	109
63	589
69	4289
70	519
71	909
72	79
73	6969
74	689
75	609
83	4229
84	469
85	3279
86	289
95	919
96	69
97	629
98	119
99	2139
100	279
101	509
109	1589
110	199
111	1379
112	179
113	4419
114	699
115	679
123	289
127	9999
128	1369
129	609
141	619
142	909
143	89
151	619
155	8979
156	1529
157	609
196	339
