Mass Spectrum: Benzeneacetic acid, 2-propenyl ester
Formula: C11 H12 O2
CAS: 1797-74-6
Molecular weight: 176
Origin: W.Jennings, T.Shibamoto
m/z	RELATIVE INTENSITY
28	150
39	390
41	6246
42	230
43	90
47	90
57	90
65	891
69	400
73	230
79	110
81	110
90	220
91	9999
92	2432
93	350
118	230
119	300
121	110
176	1702
177	190
