Mass Spectrum: 3,5-Dimethylphenol, TMS derivative
Formula: C11 H18 O Si
CAS: 17994-05-7
Molecular weight: 194
Origin: John Halket,Royal Holloway, University of London, UK
m/z	RELATIVE INTENSITY
15	10
26	10
27	120
29	60
31	30
38	20
39	270
40	30
41	120
42	30
43	330
45	751
46	50
47	170
48	10
49	10
50	70
51	260
52	100
53	260
54	30
55	100
56	10
57	60
58	80
59	430
60	60
61	150
62	60
63	190
64	50
65	300
66	60
67	170
68	250
69	100
70	20
71	50
72	40
73	1021
74	270
75	1121
76	140
77	1171
78	340
79	561
80	60
81	250
82	1391
84	20
85	80
86	10
87	30
88	60
89	430
91	701
92	80
93	110
94	10
95	90
96	20
97	90
98	20
99	50
100	10
101	20
102	80
103	510
104	190
105	3393
106	320
107	60
108	10
109	130
110	20
111	30
115	130
116	30
117	140
118	40
119	621
120	80
121	180
122	30
123	100
124	10
125	10
128	10
129	10
130	10
131	40
132	10
133	70
134	20
135	140
136	20
137	50
138	10
143	10
145	100
146	20
147	90
148	70
149	1031
150	160
151	150
152	20
153	10
157	10
159	70
160	20
161	150
162	70
163	1031
164	290
165	90
166	10
175	80
176	20
177	480
179	9999
180	2072
181	621
182	60
191	10
192	20
194	5465
195	1021
196	290
197	30
