Mass Spectrum: 1,5,7,11-Tetrathiaspiro[5.5]undecane
Formula: C7 H12 S4
CAS: 180-97-2
Molecular weight: 224
Origin: J. DAMICO MONSANTO COMPANY, NITRO, W. VIRGINIA, USA
m/z	RELATIVE INTENSITY
32	2644
37	1239
38	1818
39	991
40	1404
41	8347
42	2975
44	2396
45	7190
46	9999
47	1735
58	991
59	991
64	1487
71	1322
74	2231
76	3801
106	5619
119	991
150	1900
224	1735
