Mass Spectrum: 10-Phenyldecanoic acid
Formula: C16 H24 O2
CAS: 18017-73-7
Molecular weight: 248
Origin: NIST Mass Spectrometry Data Center
m/z	RELATIVE INTENSITY
18	30
27	480
29	450
30	20
39	791
40	130
41	1852
42	390
43	661
44	60
45	470
46	30
50	80
51	350
52	120
53	210
55	1521
56	160
57	200
58	30
60	761
61	40
63	160
65	1111
66	90
67	220
68	110
69	691
70	70
71	60
73	470
75	30
77	571
78	641
79	410
80	100
81	140
82	70
83	190
84	100
85	40
87	80
89	170
91	9999
92	7807
93	691
94	140
95	100
96	80
97	330
98	380
99	50
101	60
102	60
103	280
104	1351
105	1401
106	250
107	80
108	70
109	40
110	20
111	90
112	90
113	20
115	210
116	110
117	390
118	140
119	350
120	110
121	180
122	60
123	10
124	10
125	20
126	40
127	20
128	50
129	100
130	120
131	140
132	80
133	631
134	350
135	40
139	120
140	10
142	10
143	30
144	80
145	50
146	10
147	130
148	90
157	20
158	30
161	30
169	30
170	30
174	20
186	30
187	40
188	30
202	20
212	30
230	430
231	80
248	861
249	150
