Mass Spectrum: Benzenamine, 2,3,4,5,6-pentafluoro-N,N-dimethyl-
Formula: C8 H6 F5 N
CAS: 1801-14-5
Molecular weight: 211
Origin: J.M. MILLER,BROCK UNIVERSITY,ONTARIO,CANADA
m/z	RELATIVE INTENSITY
69	60
93	50
99	130
105	30
106	50
117	180
118	30
119	90
120	20
124	50
125	20
126	140
127	30
143	40
144	40
145	40
149	180
150	70
155	150
156	80
163	420
164	90
167	420
168	200
174	300
175	50
176	160
177	120
181	680
182	420
183	90
189	30
190	30
191	50
192	110
193	60
194	1780
195	1030
196	350
197	50
208	510
209	150
210	9999
211	8700
212	730
