Mass Spectrum: 2,3'-Bipyridine, 1',3,4,4',5,5',6,6'-octahydro-
Formula: C10 H16 N2
CAS: 18017-50-0
Molecular weight: 164
m/z	RELATIVE INTENSITY
106	965
107	1930
108	3456
109	1228
120	526
121	1088
122	1140
134	526
135	1877
136	1228
163	9999
164	9367
165	1053
