Mass Spectrum: Silane, ethenyltris(1-methylethoxy)-
Formula: C11 H24 O3 Si
CAS: 18023-33-1
Molecular weight: 232
Origin: RADIAN CORP
m/z	RELATIVE INTENSITY
15	30
27	290
29	30
39	210
40	20
41	620
42	90
43	1070
44	20
45	960
46	40
47	120
54	30
55	50
59	100
61	110
62	460
63	3570
64	200
65	130
69	40
71	140
72	440
73	1450
74	110
75	50
76	80
77	190
79	3460
80	530
81	190
85	10
86	40
87	540
88	190
89	9540
90	790
91	460
97	70
98	60
99	110
100	10
101	240
102	50
103	220
104	50
105	180
107	200
111	10
113	140
114	40
115	1160
116	140
117	1510
118	140
119	190
121	850
122	60
123	10
127	10
129	300
130	60
131	4640
132	520
133	860
134	60
135	30
141	50
143	40
145	60
147	390
148	40
149	30
157	80
159	4940
160	630
161	320
163	280
167	20
173	4540
174	640
175	2760
176	340
177	130
189	260
190	10
203	20
205	190
217	9999
218	1600
219	510
220	40
232	170
