Mass Spectrum: 2-Octanol, TMS derivative
Formula: C11 H26 O Si
CAS: 18023-52-4
Molecular weight: 202
Origin: NIST Mass Spectrometry Data Center
m/z	RELATIVE INTENSITY
15	10
26	10
27	170
28	50
29	340
30	10
31	10
39	150
40	30
41	510
42	100
43	480
44	100
45	520
46	40
47	290
48	20
49	10
51	20
52	10
53	60
54	20
55	370
56	80
57	100
58	130
59	320
60	90
61	480
62	30
63	20
65	10
66	10
67	40
68	20
69	160
70	120
71	70
72	220
73	5535
74	631
75	4734
76	370
77	190
78	10
79	10
81	20
82	10
83	60
84	30
85	70
86	50
87	140
88	20
89	50
90	10
91	60
92	10
95	10
97	150
98	20
99	170
100	20
101	470
102	110
103	370
104	40
105	10
109	10
111	20
112	30
113	40
114	10
115	190
117	9999
118	1932
119	731
120	40
125	10
127	20
129	330
130	50
131	20
143	110
144	10
145	10
171	20
187	2112
188	340
189	100
190	10
201	80
202	20
