Mass Spectrum: 2,5-Diphenyltetrazole
Formula: C13 H10 N4
CAS: 18039-45-7
Molecular weight: 222
Origin: Humboldt-Universitat zu Berlin, Department of Chemistry, Analytical Group
m/z	RELATIVE INTENSITY
14	30
15	90
16	41
17	201
18	627
26	148
27	424
28	212
29	64
31	64
32	49
37	263
38	728
39	1481
40	276
41	862
42	32
43	32
44	26
49	51
50	987
51	1554
52	700
53	68
54	17
55	26
56	17
57	26
61	118
62	308
63	1562
64	3613
65	773
66	45
69	15
70	15
71	17
73	21
74	135
75	233
76	899
77	691
78	56
83	15
85	24
86	41
87	56
88	62
89	60
91	9999
92	717
93	28
97	68
99	15
100	17
102	36
103	678
104	257
105	32
112	13
115	15
139	17
140	17
163	15
164	17
165	75
166	43
167	184
168	32
179	11
192	9
193	154
194	2162
195	336
196	26
222	6
