Mass Spectrum: 1-Cyclohexene-1-carboxaldehyde, 4-(1-methylethenyl)-, (S)-
Formula: C10 H14 O
CAS: 18031-40-8
Molecular weight: 150
Origin: Japan AIST/NIMC Database- Spectrum MS-NW-7554
m/z	RELATIVE INTENSITY
14	20
15	109
17	10
18	30
26	129
27	2309
28	229
29	1059
30	30
31	90
32	10
37	60
38	209
39	3379
40	979
41	3349
42	469
43	699
44	70
45	30
46	10
49	20
50	439
51	1239
52	569
53	3409
54	489
55	1289
56	119
57	129
58	149
59	199
60	70
61	70
62	129
63	389
64	99
65	959
66	849
67	5839
68	9999
69	839
70	99
71	90
72	40
73	30
74	99
75	109
76	80
77	2659
78	709
79	5979
80	1289
81	1229
82	359
83	219
84	80
85	20
86	30
87	30
88	10
89	109
90	99
91	2519
92	969
93	3099
94	1169
95	1519
96	239
97	60
98	30
99	10
101	30
102	80
103	329
104	179
105	1419
106	1689
107	3879
108	2099
109	979
110	119
111	40
112	20
113	10
114	10
115	259
116	90
117	929
118	119
119	639
120	149
121	2069
122	2389
123	309
124	60
125	20
126	10
127	10
128	20
129	30
130	10
131	169
132	519
133	529
134	169
135	2329
136	289
137	70
138	10
143	10
145	179
146	179
147	80
148	349
149	229
150	1979
151	249
152	40
153	20
