Mass Spectrum: Tumerone
Formula: C15 H22 O
CAS: 180315-67-7
Molecular weight: 218
Origin: NIST Mass Spectrometry Data Center
m/z	RELATIVE INTENSITY
26	10
27	290
28	50
29	550
30	10
31	10
37	10
38	40
39	891
40	120
41	621
42	110
43	470
44	10
45	20
50	60
51	310
52	120
53	581
54	100
55	2302
56	160
57	70
58	10
59	20
62	20
63	100
64	30
65	571
66	100
67	200
68	20
69	150
70	30
71	30
74	10
75	10
76	10
77	2512
78	490
79	530
80	70
81	130
83	8548
84	470
85	1431
86	80
87	10
89	30
90	10
91	2632
92	651
93	1792
94	150
96	10
98	100
99	581
100	50
103	150
104	70
105	9999
106	911
107	80
111	3053
112	230
113	10
119	3633
120	6065
121	721
122	40
123	10
125	80
126	701
127	60
128	20
129	20
134	150
135	20
142	20
143	50
144	40
147	90
149	10
156	20
157	210
158	30
161	100
162	190
170	10
171	10
175	10
185	140
186	20
200	380
203	240
204	60
218	420
219	70
