Mass Spectrum: 3,4-Dichlorobenzyl alcohol
Formula: C7 H6 Cl2 O
CAS: 1805-32-9
Molecular weight: 176
Origin: Japan AIST/NIMC Database- Spectrum MS-NW-7525
m/z	RELATIVE INTENSITY
14	10
17	10
18	50
25	20
26	80
27	219
28	90
29	799
30	80
31	799
35	80
36	199
37	399
38	579
39	459
40	40
41	10
42	30
43	289
44	159
45	10
47	80
48	60
49	279
50	1319
51	1639
52	1269
53	139
54	90
55	219
56	349
57	109
58	10
59	20
60	159
61	509
62	549
63	639
64	60
65	30
66	20
67	10
68	10
69	50
70	389
71	149
72	189
73	819
74	1449
75	2779
76	429
77	9999
78	959
79	70
80	20
81	10
82	10
83	50
84	489
85	569
86	339
87	369
88	199
89	469
90	50
91	30
92	20
93	10
94	20
95	30
96	80
97	219
98	40
99	179
100	20
101	50
102	10
103	30
104	30
105	199
106	20
107	90
108	99
109	829
110	339
111	6329
112	1219
113	5799
114	669
115	1289
116	109
117	10
118	10
119	40
120	30
121	40
122	20
123	1029
124	279
125	379
126	99
127	20
128	10
129	10
130	10
131	10
132	10
133	159
134	20
135	109
136	20
137	20
138	30
139	1209
140	529
141	9669
142	909
143	3109
144	279
145	669
146	299
147	2369
148	339
149	1389
150	129
151	229
152	20
153	10
156	10
157	30
158	80
159	1339
160	169
161	869
162	80
163	169
164	10
172	10
173	399
174	90
175	1519
176	6599
177	1389
178	4359
179	499
180	749
181	70
182	10
