Mass Spectrum: Disiloxane, 1,1,3,3-tetramethyl-1,3-bis(4-methylphenyl)-
Formula: C18 H26 O Si2
CAS: 18055-70-4
Molecular weight: 314
Origin: ASES Database, Dalian Institute, P.R. China
m/z	RELATIVE INTENSITY
73	680
96	400
97	100
142	490
143	100
149	5454
150	890
151	390
207	7436
208	1481
209	900
223	390
225	1080
226	700
283	790
299	9999
300	3082
301	1101
314	800
315	390
316	90
