Mass Spectrum: Silane, trimethyl-1-naphthalenyl-
Formula: C13 H16 Si
CAS: 18052-80-7
Molecular weight: 200
Origin: M.GIELIN FREE UNIV. OF BRUSSELS, BRUSSELS, BELGIUM
m/z	RELATIVE INTENSITY
25	7
26	35
27	65
28	335
29	80
31	30
32	20
34	7
36	14
37	30
38	35
39	93
40	80
41	43
42	110
43	1800
44	85
45	140
46	14
47	7
50	43
51	110
52	20
53	210
54	30
55	58
56	14
57	70
58	75
59	85
60	14
61	7
62	30
63	100
64	58
65	30
66	35
67	43
68	7
69	30
70	14
71	20
72	43
73	270
74	70
75	90
76	70
77	140
78	80
79	80
80	57
81	7
82	7
83	43
84	20
85	57
86	43
87	35
88	14
89	43
90	20
91	65
92	80
93	720
94	150
97	7
98	20
99	90
100	90
101	65
102	90
103	130
104	35
105	120
106	14
107	14
113	20
114	14
115	390
116	50
117	65
118	14
119	43
120	7
121	7
122	7
125	14
126	120
127	190
128	870
129	470
130	70
131	240
132	43
133	36
134	7
135	20
137	7
138	7
139	140
140	40
141	630
142	190
143	170
144	36
145	140
146	30
147	14
148	4
149	30
150	14
151	20
152	100
153	240
154	150
155	980
156	250
157	190
158	30
159	110
160	14
161	4
162	4
163	7
164	7
165	50
166	65
167	860
168	290
169	690
170	130
171	140
177	7
178	7
179	20
180	20
181	290
182	100
183	720
184	150
185	9999
186	2650
187	700
188	70
189	7
196	14
197	7
198	7
199	7
200	3600
201	790
202	210
203	30
