Mass Spectrum: 2,6-Difluorobenzamide
Formula: C7 H5 F2 N O
CAS: 18063-03-1
Molecular weight: 157
Origin: NIST Mass Spectrometry Data Center
m/z	RELATIVE INTENSITY
15	10
16	170
17	50
28	10
31	450
33	60
37	410
38	110
39	140
43	90
44	1331
50	530
51	180
52	90
56	180
57	380
61	370
62	611
63	2712
64	250
68	460
69	240
70	170
73	140
74	480
75	360
81	290
82	100
87	160
88	310
92	240
93	510
94	360
100	130
101	200
108	130
112	430
113	4104
114	851
128	100
139	400
141	9999
142	821
157	5375
158	440
