Mass Spectrum: Ethyl 3,4-dimethoxyphenyl acetate
Formula: C12 H16 O4
CAS: 18066-68-7
Molecular weight: 224
Origin: NIST Mass Spectrometry Data Center
m/z	RELATIVE INTENSITY
15	671
16	10
18	10
19	10
26	120
27	701
28	220
29	1712
30	80
31	20
32	10
37	20
38	120
39	811
40	50
41	40
42	40
43	120
44	10
45	70
46	10
50	200
51	591
52	170
53	160
54	20
55	50
57	10
61	10
62	80
63	270
64	210
65	781
66	130
67	70
68	20
69	20
74	20
75	150
77	550
78	621
79	340
80	150
81	30
82	10
89	280
90	400
91	360
92	150
93	80
94	80
95	30
105	571
106	581
107	1161
108	420
109	80
110	10
111	10
117	10
118	80
119	40
120	30
121	70
122	80
123	10
124	10
133	20
135	380
136	140
137	320
138	40
139	30
149	70
151	9999
152	1021
153	80
163	30
167	20
178	20
195	20
196	40
209	30
224	2372
225	290
226	40
