Mass Spectrum: 2-Hydroxy-3-methylbutyric acid, 2TBDMS derivative
Formula: C17 H38 O3 Si2
CAS: 180784-67-2
Molecular weight: 346
Origin: J.M. Halket, Trace Anal. Unit (TAU), London, UK
m/z	RELATIVE INTENSITY
39	520
41	2880
42	190
43	1070
44	170
45	1400
46	90
47	570
48	30
49	10
51	10
52	30
53	90
54	10
55	650
56	640
57	3000
58	650
59	1680
60	200
61	290
62	10
66	140
67	50
69	670
70	60
71	80
73	9999
74	900
75	2900
76	190
77	140
81	40
82	30
83	160
84	10
85	230
86	30
87	60
88	30
89	30
97	80
98	10
99	180
100	60
101	80
102	50
103	160
104	20
105	50
113	70
115	710
116	110
117	320
118	50
119	160
120	20
129	100
131	500
133	1630
134	230
135	160
136	20
143	200
144	30
145	50
147	7320
148	1150
149	1000
150	120
151	60
157	90
158	10
159	50
160	20
161	40
171	20
173	30
175	90
176	10
177	10
185	10
187	670
188	130
189	1260
190	250
191	120
192	20
203	30
217	130
218	30
219	10
231	70
232	20
233	10
245	30
246	10
259	10
261	1200
262	270
263	110
264	10
273	20
275	10
289	1370
290	330
291	130
292	20
303	10
331	30
