Mass Spectrum: 2-Naphthol, TMS derivative
Formula: C13 H16 O Si
CAS: 18081-08-8
Molecular weight: 216
Origin: Zaikin V.G., TIPS RAS, Moscow, Russia
m/z	RELATIVE INTENSITY
28	10
43	40
45	230
73	581
74	30
75	260
77	110
85	30
86	40
87	70
101	851
115	290
126	150
127	711
128	110
131	30
139	40
141	731
142	100
143	50
145	1511
146	210
147	50
155	40
171	110
173	470
174	60
181	20
183	80
185	1001
186	150
187	40
196	90
199	140
200	90
201	9999
202	1762
203	460
215	40
216	9879
217	1822
218	480
219	40
