Mass Spectrum: 2-Methyl-n-1-tridecene
Formula: C14 H28
CAS: 18094-01-4
Molecular weight: 196
Origin: NIST Mass Spectrometry Data Center, 1990.
m/z	RELATIVE INTENSITY
27	1392
28	898
29	2701
32	109
39	1454
40	468
41	5677
42	957
43	2961
44	136
51	71
52	65
53	607
54	524
55	4156
56	9999
57	4683
58	184
65	94
66	77
67	711
68	607
69	3689
70	1675
71	497
79	115
81	252
82	397
83	1222
84	755
85	293
95	99
96	230
97	954
98	309
110	124
111	599
112	250
125	168
126	72
140	292
168	200
181	106
196	374
