Mass Spectrum: Spiro[5.6]dodecane
Formula: C12 H22
CAS: 181-15-7
Molecular weight: 166
Origin: TEXAS A&M UNIVERSITY, COLLEGE STATION, TEXAS, USA
m/z	RELATIVE INTENSITY
26	91
27	818
28	318
29	955
38	91
39	1727
40	409
41	5000
42	545
43	682
50	136
51	364
52	273
53	1318
54	1682
55	5455
56	727
57	273
63	91
65	500
66	409
67	7273
68	2182
69	1773
70	227
77	591
78	227
79	955
80	500
81	7727
82	5000
83	1455
84	273
85	91
91	318
92	91
93	318
94	273
95	3636
96	9999
97	2182
98	182
107	136
108	273
109	5000
110	1636
111	455
122	91
123	1273
124	682
125	91
137	273
138	591
139	91
151	91
166	6364
167	818
168	91
