Mass Spectrum: Hexanedioic acid, 2TMS derivative
Formula: C12 H26 O4 Si2
CAS: 18105-31-2
Molecular weight: 290
Origin: O A MAMER, MCGILL UNIVERSITY, MONTREHexanedioi
m/z	RELATIVE INTENSITY
15	268
18	130
26	99
27	308
28	502
29	279
31	92
39	186
41	444
42	175
43	691
44	471
45	1953
46	152
47	931
53	126
55	4122
56	571
57	206
58	377
59	583
60	173
61	720
67	386
68	123
69	718
72	428
73	9999
74	1061
75	6812
76	525
77	364
81	107
83	1695
84	132
85	129
86	236
89	101
99	372
101	131
111	6214
112	453
113	112
115	119
116	357
117	1163
118	146
119	96
129	941
130	395
131	237
132	191
133	404
141	2168
142	358
143	239
147	3795
148	626
149	760
150	112
157	297
158	145
159	1131
160	164
172	1379
173	259
185	537
186	100
200	149
201	140
204	388
205	96
217	614
218	172
219	77
231	135
247	145
275	1987
276	467
277	213
