Mass Spectrum: Bromazepam
Formula: C14 H10 Br N3 O
CAS: 1812-30-2
Molecular weight: 315
Origin: N.W. Davies, Centr. Sci. Lab., Univ. Tasmania, Hobart, Australia
m/z	RELATIVE INTENSITY
26	580
27	1140
38	760
39	2100
41	1110
42	450
43	930
44	420
45	650
50	2370
51	5130
52	3660
53	890
55	400
57	530
61	650
62	1560
63	3420
64	2160
65	1140
67	290
69	450
70	250
74	1520
75	2480
76	2720
77	5560
78	5710
79	5580
80	510
82	180
83	400
86	620
87	580
88	800
89	1030
90	3700
91	910
92	470
98	400
99	490
100	510
101	450
102	1090
103	1470
104	3500
105	1380
114	470
116	780
117	470
118	420
125	420
126	620
127	1140
128	600
129	600
130	420
140	560
143	400
149	200
151	450
152	1200
153	1110
154	1380
155	400
158	250
164	290
165	310
166	530
167	510
168	250
170	260
171	180
178	330
179	3750
180	1380
181	1340
182	470
184	560
192	330
193	450
194	400
206	1470
207	2030
208	4200
209	1090
210	330
211	560
235	490
236	9150
237	1520
239	650
247	220
259	1700
260	1030
261	1720
262	580
272	310
274	310
286	5670
287	2700
288	6940
289	3170
290	850
315	9620
316	3990
317	9999
318	1340
