Mass Spectrum: Acetic acid, trifluoro-, 4-methylphenyl ester
Formula: C9 H7 F3 O2
CAS: 1813-29-2
Molecular weight: 204
Origin: M J. SAXBY
m/z	RELATIVE INTENSITY
29	256
39	1026
44	1282
47	513
50	1282
51	2051
52	1282
53	1282
62	256
63	769
65	1026
69	6154
77	5128
78	1795
79	4615
89	256
90	3077
91	4103
97	256
99	513
107	5897
108	769
109	769
113	513
127	256
135	128
140	256
141	513
157	513
175	2821
176	769
204	9999
205	1026
