Mass Spectrum: Pyrazine, 2-(n-propyl)-
Formula: C7 H10 N2
CAS: 18138-03-9
Molecular weight: 122
m/z	RELATIVE INTENSITY
26	130
27	380
28	250
29	100
38	80
39	1581
40	450
41	751
42	200
43	100
50	100
51	200
52	851
53	701
54	150
63	30
64	100
65	100
66	500
67	831
68	250
69	130
70	150
79	180
80	200
81	30
93	500
94	9999
95	601
96	50
106	130
107	2252
108	200
119	100
121	981
122	2002
123	250
