Mass Spectrum: Allyl alcohol, TMS derivative
Formula: C6 H14 O Si
CAS: 18146-00-4
Molecular weight: 130
Origin: NIST Mass Spectrometry Data Center
m/z	RELATIVE INTENSITY
15	50
26	40
27	160
28	50
29	150
30	10
31	50
37	20
38	40
39	400
40	40
41	380
42	120
43	601
44	170
45	1071
46	80
47	300
48	10
49	10
50	30
52	10
53	90
54	30
55	230
56	60
57	380
58	340
59	2953
60	290
61	621
62	40
63	20
65	10
66	10
67	20
69	30
70	30
71	130
72	120
73	2512
74	270
75	1191
76	90
77	30
83	50
85	3994
86	410
87	821
88	110
89	50
97	90
98	20
99	851
100	90
101	180
102	20
103	100
104	10
111	20
113	140
115	9999
116	1271
117	470
118	30
129	60
130	1982
131	240
132	80
133	10
