Mass Spectrum: Ethyl 3-bromo-4,6-dimethyl-2H-pyran-5-carboxylate
Formula: C10 H11 Br O4
CAS: 18152-79-9
Molecular weight: 274
Origin: NIST Mass Spectrometry Data Center, 1994
m/z	RELATIVE INTENSITY
12	18
13	23
14	149
15	1124
16	34
17	20
18	36
19	22
25	35
26	307
27	1702
28	477
29	2481
30	273
32	2
36	38
37	193
38	445
39	1772
40	420
41	270
42	2
43	9999
44	261
46	15
49	243
50	1287
51	2547
52	632
53	456
54	72
55	195
61	107
62	176
63	298
64	177
65	992
66	859
67	924
68	96
69	262
73	4
75	74
76	44
77	279
78	158
79	310
80	95
81	106
82	201
83	495
84	33
91	37
92	92
93	454
94	147
95	147
96	46
97	93
104	18
105	64
106	34
107	380
108	36
109	155
110	338
111	466
112	36
115	30
116	40
117	100
118	134
119	86
120	105
121	231
122	490
123	267
124	39
125	104
129	66
130	130
131	899
132	127
133	868
134	52
135	16
137	122
138	115
139	345
140	43
143	36
144	68
145	82
146	85
147	147
148	16
149	326
150	56
151	32
158	29
159	98
160	36
161	126
163	49
165	35
167	4297
168	411
169	60
171	32
172	156
173	189
174	186
175	267
176	443
177	134
178	418
179	22
186	356
187	131
188	334
189	257
190	44
191	171
192	31
193	17
194	17
195	5380
196	630
197	81
200	533
201	378
202	565
203	567
204	180
205	219
206	107
217	706
218	541
219	684
220	568
221	47
228	429
229	1308
230	538
231	1170
232	169
233	60
234	48
246	669
247	115
248	678
249	66
274	1418
275	159
276	1400
277	157
278	7
