Mass Spectrum: Imidazole, TMS derivative
Formula: C6 H12 N2 Si
CAS: 18156-74-6
Molecular weight: 140
Origin: ORVAL A. MAMER, ROYAL VICTORIA HOSPITAL, MONTREAL, CANADA
m/z	RELATIVE INTENSITY
15	228
26	150
27	203
28	224
29	1060
30	115
31	235
39	47
40	148
42	492
43	3152
44	743
45	1468
46	162
49	123
53	356
54	437
55	716
56	425
57	488
58	521
59	226
63	324
69	237
70	1158
71	284
72	358
73	9999
74	872
82	237
83	138
84	389
95	150
97	170
98	5972
99	663
100	261
112	131
125	4210
126	528
127	190
140	5833
141	835
142	278
