Mass Spectrum: 2,6-Octadiene, (E,E)-
Formula: C8 H14
CAS: 18152-31-3
Molecular weight: 110
Origin: D.HENNEBERG, MAX-PLANCK INSTITUTE, MULHEIM, WEST GERMANY
m/z	RELATIVE INTENSITY
25	9
26	68
27	1089
28	663
29	1830
30	38
35	8
38	69
39	1341
40	104
41	749
42	55
43	19
44	82
45	6
47	3
49	7
50	81
51	203
52	80
53	687
54	727
55	9999
56	749
57	19
62	14
63	35
64	6
65	98
66	82
67	415
68	473
69	99
74	5
75	6
77	134
78	27
79	152
80	113
81	1610
82	203
83	3
91	124
92	7
93	49
94	9
95	844
96	53
103	5
104	4
105	4
106	12
107	4
108	7
109	6
110	257
111	13
