Mass Spectrum: Phenol, o-(.alpha.,.alpha.-dimethylbenzyl)-
Formula: C15 H16 O
CAS: 18168-40-6
Molecular weight: 212
Origin: T.SPANDE, LBC, NIDDK, NIH, Bethesda, MD 20892
m/z	RELATIVE INTENSITY
41	728
43	150
50	276
51	950
52	278
53	234
54	49
55	353
58	146
60	43
61	116
62	142
63	455
64	281
65	830
66	175
70	163
73	712
74	217
75	344
76	925
77	1471
78	375
79	328
80	43
81	232
82	611
83	491
84	98
87	126
88	362
89	768
90	246
91	5772
92	650
93	36
94	177
96	247
97	372
98	464
99	72
101	215
102	262
103	2124
104	365
105	143
106	215
107	677
108	91
110	34
112	40
114	63
115	763
116	188
117	120
119	5976
120	647
122	28
123	44
124	71
125	105
126	85
127	138
128	95
130	28
131	88
132	42
133	216
134	508
135	542
136	125
138	39
139	158
140	45
141	182
142	72
147	52
148	28
150	45
151	284
152	662
153	319
154	146
155	86
164	97
165	394
166	146
167	187
169	48
170	70
171	115
175	67
176	265
177	313
178	849
179	403
181	502
182	240
183	114
185	34
187	33
190	40
191	51
195	396
197	9999
198	1475
199	149
209	84
210	60
212	5959
213	906
214	125
