Mass Spectrum: Isobutyltrichlorosilane
Formula: C4 H9 Cl3 Si
CAS: 18169-57-8
Molecular weight: 190
Origin: Japan AIST/NIMC Database- Spectrum MS-IW-6980
m/z	RELATIVE INTENSITY
15	60
26	40
27	749
28	99
29	429
30	10
35	10
36	80
37	20
38	99
39	1109
40	169
41	2139
42	409
43	5499
44	189
49	99
50	40
51	80
52	20
53	119
54	40
55	369
56	439
57	389
58	10
63	879
64	60
65	339
66	30
67	20
69	10
70	20
71	10
73	10
76	20
77	40
78	30
79	30
80	10
92	10
98	239
99	249
100	179
101	179
102	40
103	90
104	10
105	30
111	10
112	229
113	449
114	179
115	299
116	50
117	109
118	40
119	30
120	10
123	40
125	129
126	50
127	80
128	30
129	20
133	5579
134	289
135	5579
136	289
137	1969
138	209
139	3189
140	369
141	2059
142	199
143	389
144	30
145	10
147	10
149	10
152	10
153	139
154	279
155	239
156	199
157	109
158	40
159	20
161	20
163	20
174	109
175	9999
176	959
177	9969
178	869
179	3429
180	279
181	439
182	30
183	10
189	189
190	70
191	199
192	70
193	70
194	20
195	10
