Mass Spectrum: trans-1,2-Bis(trimethylsilyl)ethylene
Formula: C8 H20 Si2
CAS: 18178-59-1
Molecular weight: 172
Origin: Institute of Organic Chemistry, Novosibirsk, USSR 1988
m/z	RELATIVE INTENSITY
45	479
58	99
59	319
73	9999
74	779
75	389
83	419
84	209
98	299
99	1589
100	199
101	79
157	2829
158	499
159	189
172	1519
173	329
174	109
