Mass Spectrum: 2-Ethoxypentane
Formula: C7 H16 O
CAS: 1817-89-6
Molecular weight: 116
Origin: NIST Mass Spectrometry Data Center, 1994
m/z	RELATIVE INTENSITY
13	18
14	93
15	556
16	35
17	11
18	8
19	166
26	257
27	2282
28	370
29	2367
30	119
31	481
37	21
39	956
40	184
41	1385
42	703
43	2434
44	21
45	9999
46	237
47	37
50	22
51	39
53	92
55	1494
56	69
57	74
58	47
59	164
65	12
67	25
69	54
70	105
71	314
72	12
73	6092
74	264
75	25
87	52
101	368
102	29
116	60
