Mass Spectrum: 4-Phenyl-3-butyn-2-one
Formula: C10 H8 O
CAS: 1817-57-8
Molecular weight: 144
Origin: NIST Mass Spectrometry Data Center, 1990.
m/z	RELATIVE INTENSITY
14	84
15	284
18	27
26	80
27	145
28	22
32	22
36	28
37	170
38	210
39	427
41	33
42	108
43	354
44	19
49	190
50	723
51	1251
52	162
53	53
57	117
58	119
61	274
62	451
63	608
64	352
66	21
72	29
73	235
74	1125
75	2016
76	413
77	373
78	35
84	23
85	87
86	137
87	127
88	71
89	166
90	40
97	59
98	272
99	101
100	125
101	921
102	349
103	36
113	49
114	61
115	505
116	90
126	35
129	9999
130	980
131	56
144	1686
145	192
