Mass Spectrum: Benzene, 1-(1-methylethyl)-4-nitro-
Formula: C9 H11 N O2
CAS: 1817-47-6
Molecular weight: 165
m/z	RELATIVE INTENSITY
38	200
39	1600
40	300
41	2500
42	300
43	700
50	700
51	1700
52	500
53	600
55	300
56	100
57	200
62	200
63	700
64	300
65	1100
66	300
67	200
74	200
75	500
76	500
77	3200
78	2000
79	600
80	200
89	500
90	400
91	3900
92	3100
93	400
101	100
102	500
103	2400
104	3500
105	500
106	200
107	500
115	500
116	100
117	500
118	600
119	1500
120	2400
121	300
133	200
134	100
135	200
136	200
148	800
149	300
150	9999
151	1400
152	200
164	100
165	4000
166	500
