Mass Spectrum: 3-Buten-2-one, 4-(4-iodophenyl)-
Formula: C10 H9 I O
CAS: 18175-21-8
Molecular weight: 272
Origin: ASES Database, Dalian Institute, P.R. China
m/z	RELATIVE INTENSITY
51	3102
52	1161
74	2131
75	2302
76	4644
77	990
101	760
102	7907
103	1141
127	1301
128	1321
130	9999
131	1521
144	530
145	7676
146	1151
257	1841
258	300
271	540
272	1991
273	300
