Mass Spectrum: Benzene, (2-ethoxyethyl)-
Formula: C10 H14 O
CAS: 1817-90-9
Molecular weight: 150
Origin: CARL DJERASSI DEPT OF CHEM STANFORD UNIV STANFORD CALIF 94305
m/z	RELATIVE INTENSITY
40	400
41	2300
42	200
43	600
44	300
45	200
50	1200
51	3400
52	800
53	500
58	200
59	7600
60	900
61	200
62	400
63	1300
64	400
65	3400
74	300
76	300
77	3100
78	1900
79	1300
80	200
85	300
89	600
90	300
91	9999
92	1300
93	200
102	200
103	1400
104	1200
105	2700
106	4400
107	400
119	67
120	67
121	167
132	267
133	67
150	2500
151	300
