Mass Spectrum: (CH3)2NCH2Si(CH3)3
Formula: C6 H17 N Si
CAS: 18182-40-6
Molecular weight: 131
Origin: V.V.Takhistov
m/z	RELATIVE INTENSITY
29	2002
30	701
31	601
41	200
42	1201
43	1201
44	7507
45	1501
58	9999
59	1101
73	4504
74	500
115	1401
131	1301
132	200
