Mass Spectrum: 3-Octen-1-ol
Formula: C8 H16 O
CAS: 18185-81-4
Molecular weight: 128
m/z	RELATIVE INTENSITY
15	80
16	20
17	70
18	280
26	70
27	1581
28	1045
29	1912
30	100
31	1461
32	66
39	1792
40	240
41	4834
42	1051
43	1952
44	460
45	180
51	160
52	110
53	951
54	2012
55	9999
56	2382
57	1381
58	200
65	270
66	470
67	3023
68	4404
69	1752
70	651
71	390
72	110
77	170
79	510
81	4134
82	1742
83	330
84	340
85	220
86	80
91	60
93	50
95	961
96	120
97	310
98	120
99	80
100	90
110	1912
128	270
