Mass Spectrum: 1,4-Benzenedicarboxylic acid, dihexyl ester
Formula: C20 H30 O4
CAS: 1818-96-8
Molecular weight: 334
Origin: V.G. Zaikin, R.S.Borisov, TIPS RAS, Moscow, Russia
m/z	RELATIVE INTENSITY
41	120
42	310
43	831
44	20
54	20
55	380
56	1421
57	30
69	1461
76	130
79	30
84	1211
85	420
121	460
122	190
123	120
132	100
149	1692
150	210
151	20
152	20
162	70
165	10
167	6706
168	601
169	70
233	5775
234	931
235	100
251	9999
252	1641
253	130
263	30
291	10
334	90
335	20
