Mass Spectrum: Bromopropylate
Formula: C17 H16 Br2 O3
CAS: 18181-80-1
Molecular weight: 426
Origin: MASS SPEC DATA COMPILATION OF PEST. AND IND. CHEMICALS, T. CAIRNS, FDA, USA
m/z	RELATIVE INTENSITY
43	730
75	350
76	830
77	470
104	960
105	360
151	240
152	570
155	2080
157	2180
163	220
183	6250
185	5740
186	470
260	400
262	430
339	5130
341	9999
343	5040
345	750
