Mass Spectrum: Benzene, (octyloxy)-
Formula: C14 H22 O
CAS: 1818-07-1
Molecular weight: 206
Origin: Japan AIST/NIMC Database- Spectrum MS-IW-4060
m/z	RELATIVE INTENSITY
27	129
28	40
29	359
39	159
40	40
41	829
42	169
43	1139
44	40
50	10
51	99
52	10
53	40
54	20
55	629
56	259
57	869
58	50
63	10
64	10
65	199
66	149
67	50
68	30
69	339
70	299
71	469
72	20
76	10
77	529
78	50
79	99
81	10
82	20
83	179
84	80
85	10
90	10
91	20
93	20
94	9999
95	819
96	50
97	20
107	179
108	10
112	30
206	1349
207	209
208	10
