Mass Spectrum: Octacosyl acetate
Formula: C30 H60 O2
CAS: 18206-97-8
Molecular weight: 452
Origin: NIST Mass Spectrometry Data Center
m/z	RELATIVE INTENSITY
15	10
26	20
27	150
29	540
30	10
37	10
38	10
39	260
40	60
41	2833
42	971
43	9999
44	210
45	40
51	10
52	10
53	200
54	931
55	7096
56	3383
57	9899
58	530
59	110
61	6896
62	140
63	30
65	40
66	130
67	1491
68	2072
69	6166
70	3003
71	5255
72	300
73	390
74	20
77	30
78	10
79	150
80	120
81	1331
82	4424
83	8267
84	2292
85	3613
86	250
87	60
88	20
91	20
92	10
93	40
94	70
95	961
96	2522
97	9048
98	1772
99	1031
100	50
101	80
102	30
105	10
107	20
108	30
109	480
110	941
111	5135
112	1151
113	601
114	70
115	30
116	450
117	30
121	10
122	50
123	310
124	651
125	2582
126	731
127	390
128	50
129	30
130	60
136	30
137	200
138	460
139	1121
140	480
141	260
142	30
143	10
144	10
151	60
152	280
153	601
154	320
155	160
156	30
165	30
166	190
167	360
168	220
169	110
170	20
179	20
180	140
181	230
182	150
183	70
184	10
194	110
195	140
196	110
197	50
198	10
208	80
209	90
210	80
211	30
212	10
222	70
223	70
224	60
225	20
236	70
237	50
238	50
239	20
250	70
251	40
252	40
253	10
264	60
265	40
266	30
267	10
278	60
279	40
280	40
281	10
292	50
293	30
294	30
295	10
306	40
307	30
308	30
309	10
320	30
321	30
322	20
323	10
334	30
335	20
336	20
337	10
348	20
349	20
350	10
362	20
363	20
364	170
365	50
366	10
380	10
390	20
391	10
392	200
393	60
394	10
434	10
437	20
438	10
452	10
