Mass Spectrum: 3-Aminopyrazole
Formula: C3 H5 N3
CAS: 1820-80-0
Molecular weight: 83
Origin: NIST Mass Spectrometry Data Center
m/z	RELATIVE INTENSITY
12	10
13	20
14	30
15	10
16	20
17	40
18	30
24	10
25	70
26	340
27	711
28	2132
29	1021
30	90
31	70
32	250
36	10
37	40
38	210
39	300
40	621
41	530
42	210
43	811
44	20
50	30
51	240
52	1391
53	731
54	1912
55	540
56	180
57	100
65	10
66	180
67	140
68	20
82	80
83	9999
84	450
