Mass Spectrum: Pyrazine, 2-methyl-6-(1-propenyl)-, (E)-
Formula: C8 H10 N2
CAS: 18217-81-7
Molecular weight: 134
m/z	RELATIVE INTENSITY
26	80
27	430
28	450
37	200
38	681
39	1942
40	1241
41	761
42	510
49	30
50	280
51	330
52	330
53	200
54	50
55	30
61	80
62	180
63	510
64	430
65	1191
66	1491
67	400
68	1041
69	30
76	50
77	100
78	200
79	150
80	50
81	50
90	30
91	30
92	230
93	50
94	180
95	30
106	180
107	150
108	561
109	50
118	100
119	450
131	50
132	200
133	9999
134	4974
135	430
