Mass Spectrum: 5-Phenyl-1,2,3-thiadiazole
Formula: C8 H6 N2 S
CAS: 18212-29-8
Molecular weight: 162
Origin: NIST Mass Spectrometry Data Center, 1994
m/z	RELATIVE INTENSITY
13	29
14	20
15	30
18	14
25	20
26	204
27	364
28	175
29	17
32	165
33	39
34	27
36	36
37	384
38	568
39	1050
40	97
41	16
43	23
45	643
46	129
47	39
48	25
49	229
50	1474
51	1861
52	296
53	83
54	129
55	13
56	13
57	323
58	249
59	40
60	70
61	441
62	813
63	1563
64	293
65	100
66	139
67	270
68	13
69	1316
70	107
71	132
72	25
73	181
74	787
75	568
76	499
77	681
78	53
80	33
81	233
82	436
83	77
84	286
85	108
86	159
87	174
88	25
89	3196
90	3273
91	264
92	67
93	446
94	79
95	257
96	22
97	43
98	120
99	39
102	923
103	103
104	17
105	65
106	109
107	17
108	1645
109	132
110	80
111	15
114	17
116	13
117	24
119	47
120	16
121	82
134	9999
135	993
136	474
137	31
162	872
163	108
164	46
