Mass Spectrum: N-Phenylcyclohexylamine
Formula: C12 H17 N
CAS: 1821-36-9
Molecular weight: 175
Origin: A.A.Kutin, Moscow, Russia
m/z	RELATIVE INTENSITY
37	20
38	101
39	866
40	140
41	939
42	186
43	71
44	17
50	165
51	672
52	184
53	224
54	157
55	513
56	107
59	36
62	34
63	136
64	112
65	598
66	324
67	107
68	34
72	20
74	42
75	38
76	102
77	1392
78	255
79	222
80	40
81	78
83	32
89	49
90	66
91	639
92	393
93	1430
94	175
103	75
104	387
105	181
106	935
107	83
115	197
116	57
117	874
118	1772
119	1267
120	186
128	24
130	440
132	9999
133	1153
134	64
143	35
144	100
145	30
146	390
147	67
174	180
175	2830
176	386
177	24
