Mass Spectrum: Neopentyl alcohol, TMS derivative
Formula: C8 H20 O Si
CAS: 18246-63-4
Molecular weight: 160
Origin: NIST Mass Spectrometry Data Center
m/z	RELATIVE INTENSITY
15	40
26	10
27	190
28	50
29	500
30	20
31	40
38	10
39	330
40	50
41	771
42	90
43	701
44	170
45	1061
46	80
47	400
48	20
49	10
50	20
51	130
52	10
53	120
54	30
55	390
56	390
57	1171
58	611
59	751
60	150
61	571
62	40
63	20
65	120
67	20
69	40
70	80
71	120
73	9999
74	1061
75	7417
76	571
77	270
78	10
83	20
85	50
86	10
87	60
88	330
89	771
90	80
91	30
95	10
97	10
99	50
101	480
103	8588
104	931
105	2292
106	200
107	80
111	10
113	20
115	20
127	10
129	50
130	10
143	20
145	9799
146	1351
147	440
148	30
159	40
160	110
161	20
162	10
