Mass Spectrum: Silane, trimethyl-2-thienyl-
Formula: C7 H12 S Si
CAS: 18245-28-8
Molecular weight: 156
Origin: V.G.Zaikin, TIPS, Russian Acad. Sci.
m/z	RELATIVE INTENSITY
69	300
70	460
73	930
83	630
85	260
91	260
97	500
111	330
115	660
141	9999
142	1171
143	800
156	1901
157	260
158	160
159	20
