Mass Spectrum: 2-Pyridinamine, 6-methyl-
Formula: C6 H8 N2
CAS: 1824-81-3
Molecular weight: 108
Origin: Japan AIST/NIMC Database- Spectrum MS-NW-4672
m/z	RELATIVE INTENSITY
12	10
14	20
15	129
16	10
25	10
26	99
27	279
28	359
29	40
30	60
36	20
37	239
38	539
39	1739
40	449
41	959
42	819
43	229
44	50
49	40
50	159
51	269
52	389
53	679
54	399
55	70
56	20
57	10
60	10
61	60
62	109
63	249
64	499
65	549
66	1209
67	259
68	319
69	20
74	10
75	30
76	40
77	30
78	80
79	109
80	5169
81	3969
82	269
83	10
90	30
91	949
92	229
93	409
94	30
105	60
106	50
107	339
108	9999
109	739
110	20
