Mass Spectrum: Formic acid, TMS derivative
Formula: C4 H10 O2 Si
CAS: 18243-21-5
Molecular weight: 118
Origin: NIST Mass Spectrometry Data Center, 2008
m/z	RELATIVE INTENSITY
15	140
26	30
27	90
28	130
29	530
30	40
31	70
39	10
41	60
42	220
43	921
44	240
45	2742
46	210
47	1381
48	70
49	50
51	20
53	150
54	40
55	130
56	50
57	90
58	160
59	621
60	180
61	490
62	30
63	20
65	10
66	10
67	10
70	40
71	30
72	190
73	1081
75	9829
76	761
77	380
78	10
88	10
103	9999
104	871
105	410
106	20
