Mass Spectrum: 1-Butanol, TMS derivative
Formula: C7 H18 O Si
CAS: 1825-65-6
Molecular weight: 146
Origin: NIST Mass Spectrometry Data Center
m/z	RELATIVE INTENSITY
15	30
26	20
27	210
28	60
29	320
30	10
31	30
38	10
39	150
40	20
41	250
42	70
43	460
44	140
45	871
46	70
47	340
48	20
49	10
50	10
51	10
53	50
54	20
55	160
56	90
57	140
58	300
59	611
60	120
61	480
62	30
63	20
67	10
69	10
70	30
71	70
72	170
73	3283
74	400
75	6726
76	540
77	270
78	10
83	10
85	50
86	10
87	220
88	150
89	1321
90	120
91	60
97	10
99	40
100	10
101	110
102	110
103	2192
104	210
105	90
113	10
115	140
116	20
117	30
129	40
131	9999
132	1431
133	500
134	30
145	60
146	70
147	20
149	10
