Mass Spectrum: Ethanol, TMS derivative
Formula: C5 H14 O Si
CAS: 1825-62-3
Molecular weight: 118
Origin: Japan AIST/NIMC Database- Spectrum MS-NW-6802
m/z	RELATIVE INTENSITY
14	10
15	139
26	40
27	169
28	70
29	169
30	20
31	80
32	20
39	20
41	20
42	109
43	689
44	279
45	849
46	70
47	419
48	20
49	20
50	30
51	169
52	20
53	50
54	10
55	70
56	10
57	60
58	209
59	2089
60	189
61	449
62	30
63	20
65	10
66	10
69	10
70	10
71	30
72	99
73	2329
74	249
75	5569
76	449
77	259
78	10
87	80
88	40
89	10
91	10
93	60
95	20
101	80
102	30
103	9999
104	969
105	409
106	20
117	50
118	90
119	10
