Mass Spectrum: 2,4'-Dihydroxy-3'-methoxyacetophenone
Formula: C9 H10 O4
CAS: 18256-48-9
Molecular weight: 182
Origin: L. Tsai, LB, NHLBI, NIH, Bethesda, MD 20892
m/z	RELATIVE INTENSITY
41	104
42	30
43	26
49	14
50	182
51	354
52	556
53	246
54	38
55	137
61	26
62	107
63	223
64	67
65	493
66	75
67	163
68	14
69	37
74	26
75	21
76	16
77	302
78	37
79	232
80	243
81	103
82	25
91	57
92	144
93	236
94	52
95	67
97	20
105	12
107	37
108	742
109	86
110	45
111	9
119	22
120	99
121	59
122	139
123	1363
124	125
125	26
133	9
135	9
136	196
137	72
138	13
149	43
151	9999
152	967
153	123
154	9
165	9
166	25
182	2757
183	339
184	38
