Mass Spectrum: 4-Fluoro-.alpha.-methylbenzyl isothiocyanate
Formula: C9 H8 F N S
CAS: 182565-27-1
Molecular weight: 181
Origin: NIST Mass Spectrometry Data Center, 1994
m/z	RELATIVE INTENSITY
14	22
15	157
26	112
27	1170
28	131
31	178
32	213
33	59
37	59
38	147
39	438
40	53
42	43
44	140
45	275
46	49
47	19
49	73
50	684
51	758
52	136
53	47
56	77
57	599
58	396
59	281
60	160
61	148
62	240
63	400
64	59
65	31
68	191
69	291
70	350
71	94
72	44
73	55
74	438
75	1219
76	211
77	1692
78	148
80	78
81	283
83	248
84	119
85	73
86	132
87	68
88	33
89	101
90	54
92	53
93	97
94	247
95	657
96	646
97	722
98	77
99	50
100	33
101	869
102	33
103	4389
104	416
105	46
106	46
107	400
108	123
109	78
119	32
120	164
121	609
122	32
123	9999
124	871
125	42
126	22
134	240
135	19
139	436
140	49
141	24
146	43
148	31
149	36
166	372
167	37
168	22
180	33
181	276
182	31
