Mass Spectrum: Naphthalene, 1,4-dichloro-
Formula: C10 H6 Cl2
CAS: 1825-31-6
Molecular weight: 196
Origin: Japan AIST/NIMC Database- Spectrum MS-IW-5407
m/z	RELATIVE INTENSITY
36	30
37	20
38	30
39	40
49	50
50	199
51	149
52	20
60	10
61	159
62	419
63	599
65	10
66	10
67	90
68	50
72	10
73	70
74	389
75	489
76	179
77	20
79	20
80	749
81	249
84	40
85	419
86	309
87	139
88	10
96	10
97	90
98	1389
99	1039
100	189
101	20
108	30
109	50
110	30
111	40
112	10
120	10
121	40
122	70
123	109
124	99
125	699
126	2099
127	229
128	10
132	10
133	20
134	20
135	20
136	20
149	10
159	40
160	639
161	2019
162	429
163	649
164	70
170	10
172	10
194	10
195	60
196	9999
197	1129
198	6379
199	719
200	1019
201	109
