Mass Spectrum: Naphthalene, 1,5-dichloro-
Formula: C10 H6 Cl2
CAS: 1825-30-5
Molecular weight: 196
Origin: EP-1352
m/z	RELATIVE INTENSITY
50	150
51	350
52	250
73	150
74	750
75	850
76	250
108	50
109	70
110	50
111	60
124	100
125	950
126	2100
127	230
160	600
161	1100
162	350
163	400
164	45
196	9999
197	1100
198	6400
199	600
200	1000
201	120
