Mass Spectrum: Methanol, TMS derivative
Formula: C4 H12 O Si
CAS: 1825-61-2
Molecular weight: 104
Origin: Japan AIST/NIMC Database- Spectrum MS-NW-2872
m/z	RELATIVE INTENSITY
15	129
27	30
28	90
29	139
30	20
31	119
32	20
39	10
41	20
42	99
43	579
44	159
45	439
46	30
47	40
51	10
53	50
54	10
55	50
56	10
57	40
58	339
59	4879
60	349
61	219
71	10
72	30
73	299
74	30
75	169
76	10
77	30
88	60
89	9999
90	849
91	369
92	10
103	20
104	80
