Mass Spectrum: Methanone, phenyl-2-pyridinyl-, oxime
Formula: C12 H10 N2 O
CAS: 1826-28-4
Molecular weight: 198
Origin: Japan AIST/NIMC Database- Spectrum MS-IW-6366
m/z	RELATIVE INTENSITY
17	10
18	30
26	20
27	90
28	10
37	10
38	30
39	149
40	10
41	10
50	289
51	1199
52	579
53	70
55	10
57	20
61	10
62	60
63	229
64	70
65	90
66	30
67	10
69	90
70	239
71	30
74	80
75	129
76	369
77	1379
78	1289
79	3639
80	249
82	129
83	1189
84	179
85	20
86	20
87	40
88	60
89	129
90	909
91	129
92	10
93	40
94	30
95	20
98	10
99	50
100	20
101	40
102	70
103	219
104	489
105	289
106	20
113	80
114	80
115	249
116	50
117	30
119	10
120	20
121	30
125	30
126	70
127	159
128	99
129	30
137	10
138	30
139	569
140	439
141	429
142	70
143	10
149	10
151	20
152	139
153	159
154	219
155	80
156	10
164	30
165	60
166	1059
167	9399
168	4519
169	639
170	80
171	10
178	10
179	649
180	1039
181	1879
182	1279
183	199
184	20
197	7879
198	9999
199	1459
200	119
