Mass Spectrum: Benzene, 1-butyl-4-methoxy-
Formula: C11 H16 O
CAS: 18272-84-9
Molecular weight: 164
Origin: D.HENNEBERG, MAX-PLANCK INSTITUTE, MULHEIM, WEST GERMANY
m/z	RELATIVE INTENSITY
26	142
27	310
28	676
29	210
30	18
31	28
32	59
34	9
36	7
37	19
38	92
39	673
40	89
41	1136
42	32
43	38
44	77
45	7
47	6
48	19
49	17
50	159
51	344
52	129
53	183
54	13
55	147
56	30
57	94
58	13
59	11
60	37
61	18
62	85
63	357
64	190
65	449
66	124
67	31
68	23
69	15
70	4
75	78
76	75
77	843
78	355
79	341
80	41
81	50
85	12
86	30
87	16
88	15
89	143
90	134
91	1050
92	171
93	98
94	366
95	151
96	12
99	24
101	28
102	59
103	251
104	81
105	259
106	90
107	383
108	121
109	1241
110	97
114	9
115	197
116	70
117	164
118	104
119	183
120	24
121	2069
122	248
123	7
126	15
127	26
128	24
131	44
132	32
133	279
134	186
135	1146
136	126
138	4
147	59
148	144
149	9999
150	1306
151	141
152	8
162	45
163	25
164	2254
165	265
166	26
