Mass Spectrum: Chloroacetic acid, tetradecyl ester
Formula: C16 H31 Cl O2
CAS: 18277-86-6
Molecular weight: 290
Origin: V.G.Zaikin,TIPS,Russian Acad.Sci.Moscow
m/z	RELATIVE INTENSITY
29	90
39	190
40	70
41	1722
42	1061
43	3393
44	180
45	80
48	390
50	80
51	150
52	80
53	180
54	911
55	6596
56	4654
57	6676
58	250
59	30
60	30
61	190
65	90
66	80
67	1521
68	2492
69	7757
70	5715
71	3994
72	260
73	80
76	90
77	1932
78	80
79	781
80	150
81	891
82	3934
83	9999
84	4494
85	2592
86	180
87	80
90	80
92	70
93	30
94	290
95	1481
96	2082
97	7227
98	3053
99	691
100	80
101	70
107	170
109	190
110	791
111	3653
112	1852
113	550
114	60
121	80
123	110
124	480
125	1692
126	1391
127	490
128	70
135	80
137	120
138	220
139	520
140	611
141	320
150	40
151	100
152	130
153	150
154	290
155	220
156	20
160	20
165	20
166	280
167	90
168	1141
169	160
182	10
185	10
191	20
192	10
193	10
194	210
195	90
196	731
197	550
198	30
241	120
242	20
