Mass Spectrum: Methylphosphonic acid, 2TMS derivative
Formula: C7 H21 O3 P Si2
CAS: 18279-83-9
Molecular weight: 240
Origin: CBDCOM/ERDEC, Edgewood, MD
m/z	RELATIVE INTENSITY
27	50
28	10
29	120
31	20
42	10
43	170
44	100
45	590
46	40
47	150
49	10
52	10
55	20
57	40
58	30
59	200
60	20
61	100
63	40
66	10
70	10
71	20
72	70
73	1090
74	110
75	250
77	480
78	10
79	20
83	20
87	30
89	50
90	20
91	140
92	10
93	10
97	10
101	10
102	10
103	130
104	20
105	300
106	10
107	80
109	20
113	10
115	170
116	30
117	120
118	20
119	120
120	20
121	250
122	20
123	30
131	190
133	810
134	120
135	710
136	80
137	130
147	890
148	140
149	100
150	20
151	140
152	10
153	30
165	70
167	10
177	10
179	20
181	150
182	20
183	10
195	320
196	50
197	20
209	460
210	70
211	50
225	9999
226	1931
227	980
228	100
229	20
240	870
241	160
242	70
