Mass Spectrum: Benzene, 4-bromo-1,2-dichloro-
Formula: C6 H3 Br Cl2
CAS: 18282-59-2
Molecular weight: 224
Origin: Japan AIST/NIMC Database- Spectrum MS-NW-3241
m/z	RELATIVE INTENSITY
12	10
25	20
26	30
35	60
36	129
37	479
38	239
39	30
44	20
47	70
48	50
49	309
50	669
51	80
54	199
55	259
56	90
60	99
61	179
62	90
63	50
71	40
72	379
73	669
74	2189
75	1489
76	99
77	40
78	10
79	60
80	40
81	50
82	50
83	40
84	609
85	249
86	199
87	80
91	10
93	10
94	149
95	199
96	70
97	20
99	10
100	20
104	20
105	10
106	20
107	40
108	199
109	2139
110	779
111	729
112	459
113	539
114	259
115	40
116	10
117	20
118	20
119	50
120	10
121	30
128	30
129	20
130	30
131	10
141	10
143	10
144	90
145	4299
146	359
147	2729
148	189
149	469
150	30
151	10
152	20
153	70
154	20
155	70
156	10
162	10
163	10
164	20
177	10
189	119
190	20
191	159
192	10
193	40
223	10
224	6179
225	439
226	9999
227	659
228	4509
229	309
230	619
231	40
