Mass Spectrum: Nonadecanoic acid, ethyl ester
Formula: C21 H42 O2
CAS: 18281-04-4
Molecular weight: 326
Origin: Japan AIST/NIMC Database- Spectrum MS-NW-5987
m/z	RELATIVE INTENSITY
14	50
15	30
16	20
26	40
27	449
28	129
29	1599
30	50
31	40
32	10
39	229
40	50
41	2269
42	509
43	3769
44	139
45	819
46	20
47	10
51	10
53	109
54	219
55	2389
56	719
57	2759
58	159
59	119
60	739
61	979
62	30
63	10
65	20
66	30
67	359
68	329
69	1559
70	999
71	1229
72	80
73	1209
74	299
75	90
77	20
78	10
79	70
80	40
81	289
82	329
83	1239
84	429
85	719
86	60
87	319
88	9999
89	1839
90	129
91	30
92	10
93	60
94	30
95	279
96	169
97	879
98	479
99	179
100	30
101	5819
102	539
103	50
105	20
106	10
107	50
108	20
109	159
110	99
111	449
112	169
113	109
114	20
115	579
116	80
117	10
119	10
121	80
122	10
123	90
124	50
125	229
126	80
127	60
128	10
129	279
130	139
131	20
135	70
136	10
137	40
138	30
139	139
140	60
141	40
142	10
143	569
144	149
145	20
149	60
150	10
151	20
152	30
153	90
154	40
155	30
156	10
157	1349
158	159
159	20
163	40
165	10
166	20
167	60
168	30
169	20
171	159
172	40
177	30
178	10
179	10
180	20
181	40
182	20
183	20
185	129
186	40
191	20
194	20
195	30
196	20
197	20
199	209
200	40
201	10
205	20
208	20
209	20
210	10
211	10
213	229
214	50
215	10
219	10
222	10
223	20
224	40
225	10
227	209
228	50
229	10
233	10
236	20
237	20
238	10
239	20
241	169
242	50
243	10
250	10
251	10
252	50
253	30
254	10
255	139
256	30
261	10
262	10
263	10
267	10
269	129
270	50
271	10
278	10
279	40
280	30
281	539
282	109
283	629
284	139
285	20
297	149
298	70
299	20
325	10
326	959
327	209
328	30
