Mass Spectrum: Tetraborane(10)
Formula: B4 H10
CAS: 18283-93-7
Molecular weight: 54
Origin: CCC 0003
m/z	RELATIVE INTENSITY
10	701
11	2002
12	731
13	1541
14	40
20	10
21	50
22	170
23	420
24	691
25	450
26	440
27	550
28	20
29	20
30	10
31	40
32	210
33	931
34	2292
35	3603
36	3183
37	3003
38	2762
39	290
40	20
41	90
42	320
43	1161
44	2422
45	3643
46	5585
47	8638
48	9999
49	9869
50	9338
51	1922
52	911
53	30
