Mass Spectrum: 1-Cyclohexenylacetic acid
Formula: C8 H12 O2
CAS: 18294-87-6
Molecular weight: 140
Origin: NIST Mass Spectrometry Data Center, 1994
m/z	RELATIVE INTENSITY
14	1
15	640
16	32
17	94
18	93
19	140
26	673
27	6464
28	1685
29	1863
30	110
32	37
37	330
38	1284
39	9999
40	1769
41	6474
42	1662
43	2740
44	334
45	2355
46	251
47	116
49	63
50	1139
51	2308
52	1106
53	3729
54	1109
55	4670
56	1223
57	526
58	190
60	215
61	535
62	373
63	845
64	234
65	1813
66	2222
67	5674
68	2600
69	1808
70	774
71	516
72	190
73	917
75	86
77	2277
78	845
79	4930
80	8270
81	3457
82	436
83	970
84	970
85	542
86	2621
87	137
89	111
91	1246
92	192
93	1171
94	2701
95	4645
96	110
97	5863
98	800
99	385
103	76
104	47
105	75
106	47
107	727
108	68
111	3571
112	2607
113	179
121	796
122	981
123	355
124	68
125	878
126	98
138	52
140	7341
141	598
142	51
