Mass Spectrum: Phosphonic acid, methyl-, monoethyl ester
Formula: C3 H9 O3 P
CAS: 1832-53-7
Molecular weight: 124
Origin: I. Potec et al., Cent. Eur. J. Chem., 8(6), 2010, 1251-1265
m/z	RELATIVE INTENSITY
40	130
42	130
43	400
44	210
45	1401
47	1822
48	320
49	320
51	130
56	130
57	130
58	130
61	130
63	210
64	130
65	2202
71	130
73	130
78	731
79	8698
80	2322
81	2512
89	210
91	210
96	400
97	9999
98	130
99	130
109	711
123	210
