Mass Spectrum: N-Ethyl-2-methylallylamine
Formula: C6 H13 N
CAS: 18328-90-0
Molecular weight: 99
Origin: Chuck Anderson, Aldrich Chemical Co.
m/z	RELATIVE INTENSITY
14	25
15	259
17	7
18	216
25	4
26	246
27	2279
28	3367
29	3056
30	6838
31	116
32	11
34	8
37	72
38	204
39	1916
40	323
41	1398
42	1903
43	1126
44	1878
45	62
46	16
47	9
49	9
50	118
51	177
52	129
53	547
54	189
55	4766
56	1463
57	317
58	9999
59	340
65	23
66	4
67	388
68	275
69	144
70	828
71	391
72	19
79	77
80	77
81	189
82	547
83	11
84	7771
85	359
94	4
96	40
98	611
99	1735
100	131
