Mass Spectrum: 2,5-Diaminobenzophenone
Formula: C13 H12 N2 O
CAS: 18330-94-4
Molecular weight: 212
Origin: Institute of Organic Chemistry, USSR, 1990
m/z	RELATIVE INTENSITY
50	290
51	1290
52	1060
53	1120
54	410
63	590
64	290
65	290
77	4240
78	650
79	710
80	1770
81	290
90	350
91	650
105	1940
106	1290
107	3820
108	470
135	1060
166	650
167	530
181	290
182	410
183	650
184	240
193	290
194	350
195	650
196	240
211	9999
212	9410
213	1290
