Mass Spectrum: Benzene, (1-ethylhexyl)-
Formula: C14 H22
CAS: 18335-15-4
Molecular weight: 190
Origin: CONTINENTAL OIL CO., PONCA CITY, OKLA, USA
m/z	RELATIVE INTENSITY
26	31
27	488
28	79
29	554
30	13
37	4
38	16
39	339
40	36
41	737
42	50
43	152
44	7
50	48
51	193
52	58
53	76
54	12
55	175
56	16
57	68
58	6
62	15
63	80
64	25
65	222
66	19
67	15
68	5
69	58
70	28
71	9
74	23
75	35
76	42
77	366
78	258
79	142
80	11
81	5
83	31
84	4
86	5
87	10
88	11
89	78
90	50
91	9999
92	782
93	35
101	16
102	100
103	349
104	746
105	751
106	66
113	11
114	16
115	359
116	126
117	406
118	202
119	3545
120	449
121	25
126	4
127	26
128	60
129	40
130	12
131	32
132	28
133	24
134	8
142	7
145	8
147	8
159	6
160	30
161	1644
162	214
163	13
190	1293
191	199
192	14
