Mass Spectrum: Propiophenone, 3',4'-dimethoxy-
Formula: C11 H14 O3
CAS: 1835-04-7
Molecular weight: 194
Origin: A.A.Kutin, Moscow, Russia
m/z	RELATIVE INTENSITY
33	3
37	125
38	269
39	723
40	147
41	463
42	97
43	275
44	56
45	133
46	12
47	8
48	5
49	81
50	1153
51	2609
52	510
53	915
54	95
55	562
57	777
58	31
59	116
60	25
61	131
62	490
63	1054
64	520
65	655
66	750
67	119
68	41
69	162
70	14
71	11
73	46
74	251
75	300
76	803
77	2833
78	630
79	3648
80	324
81	139
82	51
83	57
84	11
85	81
86	17
87	16
88	11
89	68
90	65
91	520
92	1017
93	231
94	927
95	206
96	19
97	5
98	4
101	8
102	21
103	85
104	173
105	249
106	123
107	884
108	177
109	290
110	29
113	3
115	12
117	7
118	39
119	376
120	248
121	359
122	989
123	119
124	13
131	12
132	4
133	55
134	31
135	134
137	1428
138	125
139	15
147	6
149	100
150	29
151	47
152	6
163	110
165	9999
166	877
167	93
168	5
177	9
179	6
194	2094
195	224
196	21
