Mass Spectrum: Methyl 4(methylamino)benzoate
Formula: C9 H11 N O2
CAS: 18358-63-9
Molecular weight: 165
Origin: NIST Mass Spectrometry Data Center
m/z	RELATIVE INTENSITY
13	20
14	90
15	671
18	10
26	30
27	150
28	330
29	210
30	190
31	40
37	90
38	260
39	400
40	80
41	120
42	100
44	20
45	10
50	641
51	651
52	330
53	320
54	120
55	70
59	100
61	50
62	170
63	571
64	470
65	781
67	510
69	120
73	50
74	280
75	300
76	450
77	1651
78	731
79	1461
80	150
88	30
89	40
90	140
91	330
92	130
93	50
94	30
102	40
103	110
104	510
105	450
106	1591
107	230
108	30
118	50
119	80
120	130
121	20
122	150
132	420
134	9999
135	931
136	80
150	20
162	20
163	90
164	671
165	5825
166	621
167	60
