Mass Spectrum: 2,3-Difluoroacetophenone
Formula: C8 H6 F2 O
CAS: 18355-80-1
Molecular weight: 156
Origin: NIST Mass Spectrometry Data Center, 1994
m/z	RELATIVE INTENSITY
12	25
13	39
14	282
15	1246
16	30
18	20
20	24
26	16
28	34
33	35
36	23
37	319
38	234
39	218
40	14
41	14
42	474
43	4765
44	117
47	13
48	16
49	107
50	541
51	309
52	21
53	24
55	30
56	201
57	473
60	20
61	377
62	715
63	2861
64	201
68	517
69	236
71	249
73	68
74	255
75	523
76	56
77	90
78	22
79	47
80	133
81	369
82	44
83	26
84	17
85	62
86	94
87	235
88	135
92	156
93	413
94	232
95	48
98	28
99	128
100	29
101	210
104	18
105	51
106	15
107	148
108	34
109	28
110	27
111	46
113	5066
114	559
115	31
119	32
123	20
125	108
126	28
127	208
138	27
141	9999
142	827
143	49
156	2732
157	246
158	22
