Mass Spectrum: 2,3-Difluorobenzamide
Formula: C7 H5 F2 N O
CAS: 18355-75-4
Molecular weight: 157
Origin: NIST Mass Spectrometry Data Center
m/z	RELATIVE INTENSITY
16	230
26	70
31	350
37	400
38	270
39	160
44	2432
45	50
49	140
50	651
51	210
52	100
55	50
56	230
57	400
61	450
62	941
63	3793
64	290
68	671
69	310
70	130
73	130
74	520
75	470
76	80
79	60
80	130
81	340
82	100
83	50
87	260
88	440
89	60
90	40
92	240
93	530
94	370
95	110
99	80
100	90
101	200
102	40
108	70
111	80
113	5815
114	1071
120	50
128	80
139	360
141	9999
142	751
143	70
157	7026
158	571
159	50
