Mass Spectrum: Butyl ethylphosphonofluoridate
Formula: C6 H14 F O2 P
CAS: 18358-34-4
Molecular weight: 168
Origin: VERIFIN - Methodology B1-1979
m/z	RELATIVE INTENSITY
27	300
28	100
29	500
31	50
39	200
41	900
42	60
43	80
55	200
56	700
57	200
65	50
67	300
84	300
85	400
93	90
95	500
96	300
97	50
98	300
111	200
112	400
113	9999
114	200
125	400
126	200
139	500
167	10
