Mass Spectrum: Tetrafluorophthalonitrile
Formula: C8 F4 N2
CAS: 1835-65-0
Molecular weight: 200
Origin: Chuck Anderson, Aldrich Chemical Co.
m/z	RELATIVE INTENSITY
26	42
28	4
31	4341
32	53
36	77
38	84
43	5
48	28
50	40
55	202
60	57
62	260
67	23
69	423
72	5
74	444
75	33
76	159
79	219
81	345
82	11
86	374
87	21
88	68
91	8
93	896
94	35
98	166
100	1661
101	63
103	21
105	534
106	31
107	52
110	43
112	220
113	8
117	210
119	44
124	1266
125	62
129	14
131	1044
132	61
136	29
138	24
148	131
150	86
155	546
156	35
162	16
169	312
170	19
174	22
181	88
182	2
199	58
200	9999
201	888
202	36
