Mass Spectrum: Thymidine, 3',5'-bis(trifluoroacetate)
Formula: C14 H12 F6 N2 O7
CAS: 18354-10-4
Molecular weight: 434
Origin: NIST Mass Spectrometry Data Center, 2010
m/z	RELATIVE INTENSITY
15	20
26	30
27	300
28	330
29	230
30	20
31	40
33	30
37	10
38	30
39	450
40	260
41	450
42	230
43	340
44	140
45	110
46	10
47	100
50	60
51	80
52	100
53	1211
54	741
55	1341
56	130
57	50
58	10
59	100
60	10
61	10
63	10
64	10
65	50
66	80
67	180
68	300
69	2102
70	180
71	120
72	10
73	80
74	10
75	40
77	30
78	70
79	30
80	360
81	9999
82	901
83	671
84	100
85	30
87	10
89	30
91	150
92	40
93	110
94	130
95	90
96	70
97	350
98	50
99	250
100	10
104	10
106	20
107	20
108	50
109	130
110	360
111	40
112	30
113	10
115	30
117	20
118	10
119	20
120	10
121	60
122	260
123	50
124	50
125	160
126	8948
127	1882
128	140
129	10
132	10
134	30
135	10
136	130
137	20
138	80
139	70
140	30
141	10
149	10
150	210
151	50
152	40
153	120
154	10
155	10
157	10
162	50
163	10
164	140
165	100
166	30
167	80
168	20
169	20
178	10
179	10
180	10
181	60
182	10
183	10
193	80
194	180
195	50
196	10
204	10
205	10
206	260
207	60
208	10
222	10
258	10
276	10
278	30
307	30
309	10
321	50
322	10
434	80
435	10
