Mass Spectrum: Chlornitrofen
Formula: C12 H6 Cl3 N O3
CAS: 1836-77-7
Molecular weight: 317
Origin: J. SHAW, BORRISTON RESEARCH, ROCKVILLE, MD, USA
m/z	RELATIVE INTENSITY
12	70
14	60
15	80
16	260
17	580
18	2082
26	610
27	360
28	1231
30	9669
31	60
32	50
35	270
36	650
37	900
38	2862
39	1621
40	90
41	80
42	40
43	100
44	40
46	1051
47	120
48	40
49	410
50	9999
51	1251
52	600
53	870
54	370
55	190
56	50
57	40
58	10
60	170
61	1091
62	2722
63	5615
64	4234
65	310
66	120
67	50
68	230
69	150
70	10
71	100
72	390
73	1271
74	4114
75	3913
76	5285
77	420
78	30
79	630
80	310
81	40
82	80
83	480
84	580
85	520
86	720
87	740
88	170
89	60
90	100
91	70
92	1951
93	140
94	30
95	70
96	410
97	1951
98	360
99	810
100	90
101	40
103	100
104	80
106	80
107	880
108	820
109	1481
110	390
111	560
112	90
113	120
114	10
117	10
118	80
119	90
120	60
121	130
122	280
123	150
124	30
125	100
126	160
127	30
131	190
132	320
133	230
134	230
135	120
136	90
137	830
138	690
139	80
140	10
141	60
142	40
143	650
144	340
145	460
146	210
147	240
148	70
149	70
150	10
157	50
159	70
160	250
161	120
162	120
163	30
164	10
167	1391
169	1361
170	150
171	480
172	330
173	2432
174	370
175	770
176	90
177	10
179	210
180	30
181	240
182	90
183	470
184	90
185	240
186	30
187	30
189	240
190	20
191	70
193	60
195	750
196	1021
197	670
198	630
199	220
200	140
201	120
202	20
203	20
204	10
205	10
207	740
208	210
209	480
210	120
211	90
212	10
217	300
218	30
219	270
221	100
223	130
224	500
225	120
226	310
227	30
228	40
233	10
236	2072
237	360
238	1171
239	150
240	170
241	20
243	170
245	170
246	10
247	50
251	10
252	20
254	10
259	20
261	20
265	100
267	60
271	40
273	50
281	10
282	10
283	10
287	1001
289	1071
290	380
292	20
293	10
301	40
303	30
317	1821
318	247
319	1951
320	242
321	595
322	70
323	50
