Mass Spectrum: Pyridine, 2-chloro-6-methyl-
Formula: C6 H6 Cl N
CAS: 18368-63-3
Molecular weight: 127
Origin: Japan AIST/NIMC Database- Spectrum MS-IW- 613
m/z	RELATIVE INTENSITY
15	30
25	10
26	70
27	119
28	40
31	20
35	10
36	50
37	179
38	319
39	989
40	159
41	249
42	80
44	40
45	299
46	30
47	20
48	10
49	99
50	389
51	549
52	179
53	30
54	20
60	109
61	109
62	189
63	469
64	959
65	3149
66	569
67	50
72	10
73	129
74	30
75	99
76	349
77	40
78	10
84	30
85	119
86	80
87	109
88	50
89	30
90	209
91	6369
92	3589
93	239
98	10
99	159
100	159
101	80
102	50
103	10
112	269
113	10
114	90
125	30
126	169
127	9999
128	829
129	3249
130	249
