Mass Spectrum: 3,5-Heptanedione, 2,6-dimethyl-
Formula: C9 H16 O2
CAS: 18362-64-6
Molecular weight: 156
Origin: Japan AIST/NIMC Database- Spectrum MS-IW-3848
m/z	RELATIVE INTENSITY
14	30
15	40
16	10
18	10
26	20
27	409
28	139
29	179
31	30
37	10
38	30
39	399
40	60
41	1069
42	249
43	3569
44	129
45	70
50	10
51	40
52	20
53	109
54	10
55	259
56	30
57	749
58	60
59	30
63	10
65	50
66	10
67	519
68	50
69	399
70	149
71	2409
72	109
73	20
77	10
79	10
81	30
83	30
84	20
85	249
86	99
87	10
95	339
96	30
97	219
98	70
99	40
111	40
112	40
113	9999
114	699
115	60
127	10
128	40
141	10
154	10
156	2289
157	249
158	20
