Mass Spectrum: .alpha.-Chlorocinnamaldehyde
Formula: C9 H7 Cl O
CAS: 18365-42-9
Molecular weight: 166
Origin: NIST Mass Spectrometry Data Center
m/z	RELATIVE INTENSITY
12	20
13	40
15	30
16	30
17	20
18	30
24	20
25	70
26	510
27	771
29	2963
30	30
35	120
36	170
37	571
38	891
39	1521
40	60
41	20
43	30
44	20
47	60
49	601
50	4214
51	6116
52	1251
53	400
54	20
55	40
60	180
61	761
62	1361
63	1852
64	160
65	190
68	80
69	40
70	10
71	10
72	100
73	661
74	2632
75	3443
76	2642
77	6005
78	6166
79	410
82	20
83	130
84	190
85	300
86	350
87	380
88	90
89	120
90	20
91	120
92	10
96	40
97	250
98	400
99	270
101	2532
102	6136
103	9999
104	861
105	250
106	10
108	40
109	70
110	70
111	100
112	120
113	70
114	70
115	30
129	330
130	190
131	1281
132	140
135	10
136	160
137	470
138	1061
139	270
140	350
141	30
162	10
165	8307
166	6656
167	3323
168	2082
169	210
