Mass Spectrum: Pentanoic acid, 1-methylethyl ester
Formula: C8 H16 O2
CAS: 18362-97-5
Molecular weight: 144
Origin: V.Zaikin,Topchiev Inst.Petrochem.Synth.,Moscow
m/z	RELATIVE INTENSITY
25	40
26	300
27	1121
28	180
29	991
30	30
31	90
35	120
36	911
37	100
38	290
39	1111
40	240
41	2793
42	921
43	5765
44	90
45	310
46	10
47	10
48	20
55	741
56	430
57	4064
58	190
59	1952
60	7307
61	480
62	40
63	10
64	10
65	10
67	20
68	10
69	30
70	20
72	10
73	2492
74	240
75	310
76	60
82	40
83	170
84	220
85	9999
86	550
87	250
88	20
94	30
100	40
101	130
102	4014
103	5875
104	290
105	30
115	10
129	661
130	50
133	10
144	40
145	10
