Mass Spectrum: Carbonochloridothioic acid, S-methyl ester
Formula: C2 H3 Cl O S
CAS: 18369-83-0
Molecular weight: 110
Origin: CARL DJERASSI DEPT OF CHEM STANFORD UNIV STANFORD CALIF 94305
m/z	RELATIVE INTENSITY
28	900
29	100
32	900
33	100
35	500
37	100
43	10
44	100
45	450
46	1400
47	3500
48	300
49	200
60	600
61	100
63	1100
64	100
65	300
67	100
75	9999
76	300
77	400
110	2400
112	900
