Mass Spectrum: 9H-Fluorene, 9-(phenylmethylene)-
Formula: C20 H14
CAS: 1836-87-9
Molecular weight: 254
Origin: NIST Mass Spectrometry Data Center, 1994
m/z	RELATIVE INTENSITY
15	23
26	12
27	291
28	2
38	130
39	725
40	37
44	20
50	400
51	472
52	116
61	44
62	196
63	508
64	62
65	64
74	271
75	346
76	164
77	109
81	25
82	28
83	79
84	62
85	30
86	215
87	402
88	250
89	110
91	24
94	109
98	187
99	294
100	528
101	335
106	167
110	96
112	872
113	1849
115	62
120	762
122	82
123	89
125	1610
126	2930
135	39
137	79
138	28
139	82
146	21
147	31
149	70
150	272
151	135
152	70
161	55
162	87
163	224
164	65
165	103
166	18
173	37
174	184
175	123
176	179
177	42
185	51
186	78
187	288
188	128
189	122
198	136
199	132
200	349
201	135
202	136
210	33
211	143
212	84
213	231
214	47
215	73
222	82
223	153
224	480
225	310
226	519
227	141
228	43
235	23
237	122
239	571
240	87
246	19
247	41
248	259
249	19
250	1957
251	700
252	5570
253	9999
254	7382
255	1441
256	136
