Mass Spectrum: Formic acid, 2-propenyl ester
Formula: C4 H6 O2
CAS: 1838-59-1
Molecular weight: 86
Origin: Japan AIST/NIMC Database- Spectrum MS-NW-2190
m/z	RELATIVE INTENSITY
12	10
13	20
14	60
15	259
16	20
18	20
24	10
25	80
26	579
27	1579
28	1069
29	2559
30	1179
31	2489
32	10
36	30
37	259
38	529
39	4529
40	1799
41	2679
42	129
43	359
44	189
45	99
46	109
47	259
53	40
54	10
55	279
56	60
57	9999
58	2489
59	99
60	10
86	40
