Mass Spectrum: Butanenitrile, 4,4-diethoxy-
Formula: C8 H15 N O2
CAS: 18381-45-8
Molecular weight: 157
Origin: DR. C. C. VAN DE SANDE, STATE UNIVERSITY OF GENT, BELGIUM
m/z	RELATIVE INTENSITY
37	100
38	200
39	550
40	300
41	3600
42	550
43	1250
44	750
45	1350
46	100
47	100
48	100
49	100
50	300
51	350
52	450
53	300
54	1400
55	950
56	1600
57	600
58	250
59	850
60	80
61	350
62	30
63	70
64	80
65	70
66	650
67	100
68	100
69	100
70	70
71	250
72	200
73	250
74	100
75	3300
76	150
77	80
78	40
79	60
80	40
81	70
82	550
83	200
84	9999
85	800
86	150
87	550
89	150
91	80
92	20
93	200
94	50
95	90
96	30
97	20
98	200
99	30
100	200
101	100
102	20
103	6200
104	450
105	50
111	100
112	6000
113	500
128	100
129	200
156	50
157	10
