Mass Spectrum: Carvone oxide, cis-
Formula: C10 H14 O2
CAS: 18383-49-8
Molecular weight: 166
Origin: Mark Whitten, Florida Museum of Natural History, U. of Florida
m/z	RELATIVE INTENSITY
41	3251
43	9999
44	284
45	171
50	295
51	628
52	359
53	2080
54	436
55	2080
56	218
57	146
58	28
59	19
61	22
62	70
63	133
64	49
65	477
67	4005
68	1634
69	562
70	333
71	812
72	49
74	32
75	15
77	522
78	120
79	1233
80	363
81	1316
82	749
83	245
85	2779
86	129
87	27
91	341
92	61
93	379
94	323
95	2046
96	828
97	608
98	64
103	23
105	383
106	84
107	255
108	170
109	1118
110	292
111	37
119	48
120	408
121	590
122	181
123	2286
124	261
125	39
133	69
135	19
137	388
138	382
139	42
148	65
149	29
151	115
166	28
