Mass Spectrum: 1-Nonanol, TMS derivative
Formula: C12 H28 O Si
CAS: 18388-84-6
Molecular weight: 216
Origin: NIST Mass Spectrometry Data Center
m/z	RELATIVE INTENSITY
15	10
26	10
27	180
28	50
29	410
30	10
31	20
39	190
40	30
41	831
42	150
43	761
44	90
45	460
46	30
47	250
48	10
49	10
51	10
52	10
53	80
54	50
55	721
56	200
57	360
58	190
59	450
60	80
61	490
62	30
63	20
65	10
66	10
67	100
68	70
69	1682
70	240
71	120
72	120
73	2532
74	300
75	4834
76	370
77	240
78	10
79	30
81	70
82	50
83	1271
84	140
85	170
86	30
87	230
88	100
89	1201
90	120
91	270
92	20
93	10
95	40
96	30
97	200
98	90
99	260
100	40
101	761
102	90
103	2042
104	190
105	80
109	10
111	30
112	10
113	140
114	30
115	440
116	50
117	40
118	10
123	10
125	20
126	70
127	30
129	240
130	30
131	60
132	10
141	10
143	270
144	40
145	40
149	10
157	40
158	10
159	10
171	10
173	10
185	50
186	10
199	20
201	9999
202	2052
203	581
204	60
215	20
216	30
217	10
