Mass Spectrum: cis-Chrysanthemyl alcohol
Formula: C10 H18 O
CAS: 18383-59-0
Molecular weight: 154
Origin: W.Epstein ET AL.J.Chem.Eng.Data,21,500(1976)
m/z	RELATIVE INTENSITY
41	2002
42	150
43	1872
50	20
51	360
52	130
53	651
54	110
55	1431
56	290
57	931
58	40
59	110
65	420
66	130
67	1541
68	320
69	1331
70	130
71	250
73	671
77	741
78	110
79	1471
80	190
81	5265
82	400
83	270
91	1071
92	130
93	1521
94	170
95	1181
96	170
97	190
98	320
99	360
105	571
106	130
107	480
108	270
109	340
110	20
111	2002
121	881
122	110
123	9999
124	1161
139	80
154	1431
155	190
