Mass Spectrum: 4-Heptanol, 3-methyl-
Formula: C8 H18 O
CAS: 1838-73-9
Molecular weight: 130
Origin: NIST Mass Spectrometry Data Center, 1990.
m/z	RELATIVE INTENSITY
14	542
15	279
16	276
26	240
27	2584
28	238
29	2849
31	1185
32	72
39	2248
40	469
41	4160
42	592
43	3274
44	847
45	2960
51	298
53	655
55	9999
56	1276
57	2072
58	445
67	393
69	1817
70	1024
71	578
72	2182
73	5970
74	252
83	1008
86	195
87	2055
112	536
