Mass Spectrum: 9-Octadecanone
Formula: C18 H36 O
CAS: 18394-00-8
Molecular weight: 268
Origin: NIST Mass Spectrometry Data Center, 1990.
m/z	RELATIVE INTENSITY
27	1688
29	3461
39	977
41	6676
42	1702
43	9999
44	309
53	380
54	509
55	4653
56	1032
57	7321
58	5536
59	1851
67	1247
68	593
69	1568
70	834
71	8338
72	975
79	207
81	1841
82	1118
83	983
84	398
85	2144
86	288
95	1274
96	1792
97	608
98	555
99	281
100	677
109	377
110	1203
111	214
112	403
113	871
114	555
123	357
127	999
128	212
138	202
141	3071
142	404
155	2831
156	1013
157	639
169	470
170	581
171	417
183	453
225	126
