Mass Spectrum: Isobutyltrimethoxysilane
Formula: C7 H18 O3 Si
CAS: 18395-30-7
Molecular weight: 178
Origin: NIST Mass Spectrometry Data Center
m/z	RELATIVE INTENSITY
14	20
15	330
18	10
26	10
27	230
28	30
29	310
30	20
31	130
33	20
39	250
40	30
41	330
42	90
43	130
45	420
46	40
47	210
48	10
51	10
53	30
55	30
56	70
57	20
58	60
59	1281
60	350
61	1061
62	70
63	70
69	10
71	10
73	10
74	190
75	360
76	90
77	350
78	20
79	10
85	20
87	20
88	10
89	30
90	440
91	4314
92	330
93	180
99	30
101	30
103	10
104	190
105	210
106	20
107	170
108	10
113	10
115	10
117	30
118	10
119	60
121	9999
122	991
123	540
124	20
131	50
132	10
133	10
136	10
145	10
146	50
147	60
148	10
163	1291
164	140
165	50
177	10
178	200
179	30
