Mass Spectrum: n-Butylamine, 2TMS derivative
Formula: C10 H27 N Si2
CAS: 18394-04-2
Molecular weight: 217
Origin: G.S. KING, CHEM. PATHOL. DEP., QUEEN CHARLOTTE'S HOSP., LONDON,
m/z	RELATIVE INTENSITY
40	120
41	520
42	160
43	560
44	640
45	1760
46	120
47	360
55	80
56	120
57	160
58	160
59	2800
60	240
61	120
70	120
71	80
72	160
73	7000
74	560
75	1880
76	80
77	200
84	80
85	80
86	3280
87	280
88	80
93	80
100	1360
101	200
102	160
103	80
114	240
115	80
116	200
117	200
119	160
128	4160
129	520
130	680
131	320
132	120
133	80
134	80
142	80
144	80
146	80
147	360
149	80
158	80
172	80
174	9999
175	1680
176	760
177	80
186	80
188	120
202	2440
203	520
204	200
217	80
