Mass Spectrum: Cyclohexane, 1,2,3-trimethyl-, (1.alpha.,2.alpha.,3.alpha.)-
Formula: C9 H18
CAS: 1839-88-9
Molecular weight: 126
Origin: NIST Mass Spectrometry Data Center, 1990.
m/z	RELATIVE INTENSITY
15	145
27	1792
28	862
29	1665
39	3092
40	687
41	6900
42	1976
43	1711
44	95
50	151
51	425
52	180
53	1297
54	95
55	9999
56	3926
57	956
65	338
66	156
67	1315
68	156
69	9971
70	8228
71	2019
72	93
77	316
78	85
79	297
80	85
81	438
82	571
83	2866
84	1422
85	139
91	148
96	2649
97	6733
98	1252
109	80
111	1965
112	164
126	3354
127	299
