Mass Spectrum: Anthranilic acid, 2TMS derivative
Formula: C13 H23 N O2 Si2
CAS: 18406-07-0
Molecular weight: 281
Origin: NIST Mass Spectrometry Data Center
m/z	RELATIVE INTENSITY
15	10
26	10
27	10
28	10
29	50
31	30
38	10
39	30
41	10
42	30
43	360
44	210
45	1501
46	100
47	180
50	10
51	40
52	40
53	60
54	20
55	60
56	20
57	80
58	100
59	220
60	40
61	80
62	10
63	60
64	90
65	110
66	40
67	30
68	10
69	30
70	70
71	40
73	5935
74	540
75	861
76	80
77	140
78	40
79	90
80	20
81	20
82	10
83	30
84	50
85	20
86	20
87	20
88	10
89	70
90	70
91	400
92	370
93	70
94	30
95	40
96	40
97	40
98	20
99	10
100	10
101	10
102	30
103	50
104	60
105	130
106	80
107	40
108	20
109	20
110	20
113	10
114	10
115	80
116	60
117	160
118	611
119	320
120	210
121	100
122	30
123	30
124	10
125	280
128	10
129	10
130	70
131	150
132	360
133	631
134	1391
135	280
136	90
137	20
143	10
144	10
145	40
146	130
147	871
148	490
149	561
150	300
151	80
152	30
153	10
154	10
157	10
158	30
159	10
160	50
161	10
162	90
163	40
164	70
165	20
166	10
167	10
172	10
173	10
174	250
175	50
176	340
177	60
178	360
179	70
180	50
181	20
188	10
189	10
190	40
191	40
192	631
193	240
194	130
195	30
196	10
202	10
204	20
205	10
206	30
207	30
208	370
209	110
210	130
211	20
212	10
217	10
218	10
220	40
221	10
222	60
223	20
224	20
225	10
232	460
233	110
234	60
235	10
236	10
246	20
248	40
249	10
250	70
251	20
252	10
262	10
263	10
264	140
266	9999
267	2562
268	1001
269	170
270	20
281	671
282	180
283	70
284	10
