Mass Spectrum: 2,4-Decadien-1-ol, (E,E)-
Formula: C10 H18 O
CAS: 18409-21-7
Molecular weight: 154
Origin: W.Jennings, T.Shibamoto
m/z	RELATIVE INTENSITY
27	70
29	1912
31	490
36	280
39	190
41	7447
42	3113
43	6376
44	390
46	70
53	490
54	5235
55	9999
56	5675
57	3773
58	390
62	280
65	591
66	1521
67	7196
68	4944
69	6786
70	7877
71	2823
72	280
77	1531
78	921
79	5315
80	3123
81	5425
82	3333
83	8097
84	7677
85	1031
86	280
91	591
92	70
93	1692
94	1121
95	2392
96	711
97	3633
98	4454
99	1992
100	70
107	591
108	70
109	70
110	4034
111	1521
112	591
120	190
121	190
123	70
125	190
136	2392
137	791
154	3573
155	390
