Mass Spectrum: 3-Octen-2-one, (E)-
Formula: C8 H14 O
CAS: 18402-82-9
Molecular weight: 126
Origin: FOOD RESEARCH REPORT 122, K.E. MURRAY & COLLEAGUES, DIV OF FOOD RESEARCH, CSIRO, AUSTRALIA
m/z	RELATIVE INTENSITY
27	5500
28	1100
29	1400
38	300
39	3300
40	800
41	7300
42	900
43	9999
44	600
45	200
50	300
51	400
52	200
53	1100
54	500
55	9800
56	1100
57	200
58	300
59	200
65	200
66	200
67	500
68	1500
69	2200
70	200
71	1900
72	200
77	200
79	300
81	400
82	200
83	800
85	400
86	100
93	100
95	100
97	2200
98	200
108	100
111	5600
112	400
126	1300
