Mass Spectrum: 4-Hydroxybenzyl alcohol, 2TMS derivative
Formula: C13 H24 O2 Si2
CAS: 18401-58-6
Molecular weight: 268
Origin: O A MAMER, MCGILL UNIVERSITY, MONTRE
m/z	RELATIVE INTENSITY
14	171
15	409
26	119
27	121
28	446
29	139
32	114
39	137
43	548
44	274
45	1744
46	133
47	196
51	200
52	247
58	175
59	511
63	129
68	147
73	9999
74	888
75	900
77	263
78	216
79	335
82	232
89	457
90	254
91	265
103	259
104	307
105	296
106	213
119	661
120	140
131	117
133	286
135	153
147	3218
148	568
149	678
151	269
163	686
164	275
165	408
177	239
179	9158
180	1548
181	466
193	254
207	239
209	169
223	433
225	136
237	228
239	161
253	3081
254	749
255	312
267	2662
268	4245
269	1168
270	418
271	91
