Mass Spectrum: 10H-Phenoxasilin, 10,10-dimethyl-
Formula: C14 H14 O Si
CAS: 18414-62-5
Molecular weight: 226
m/z	RELATIVE INTENSITY
26	55
27	111
28	102
29	126
30	24
31	47
38	47
39	237
40	55
41	276
42	47
43	663
44	63
45	395
46	47
47	24
50	118
51	150
52	47
53	324
54	55
55	111
56	63
57	87
58	142
59	24
62	126
63	32
64	395
65	95
66	158
67	47
68	79
71	47
74	24
75	118
76	292
77	269
78	118
79	150
80	24
81	32
82	32
83	118
84	24
85	174
89	229
90	118
91	656
92	158
93	197
95	47
99	39
101	71
102	55
103	118
104	87
105	269
106	150
107	47
112	229
113	197
114	63
115	221
117	79
119	55
120	95
121	39
125	39
126	95
127	63
128	95
129	87
130	63
131	71
133	103
135	142
139	261
140	63
141	150
142	103
143	32
149	269
150	158
151	363
152	1501
153	276
154	47
155	126
163	63
164	111
165	1327
166	348
167	229
168	111
169	47
179	32
180	118
181	387
182	111
183	32
184	32
185	71
193	47
195	158
196	474
197	158
198	47
209	47
210	79
211	9999
212	434
213	47
226	2725
227	498
228	134
