Mass Spectrum: Dibenzyl monoselenide
Formula: C14 H14 Se
CAS: 1842-38-2
Molecular weight: 262
Origin: NIST Mass Spectrometry Data Center, 1994
m/z	RELATIVE INTENSITY
6	4
11	2
12	2
18	14
25	2
26	15
27	29
37	24
38	140
39	1014
40	79
41	198
42	2
48	4
50	177
51	426
52	112
53	27
61	25
62	149
63	574
64	156
65	1840
66	103
67	3
75	29
76	24
77	88
78	47
79	17
80	20
81	6
82	6
84	2
85	5
86	19
87	29
89	547
91	9999
92	737
93	503
94	15
95	90
96	3
101	2
102	2
103	5
104	5
105	3
106	7
113	5
114	7
115	18
117	33
118	7
119	9
126	3
127	5
128	5
129	5
130	6
132	2
139	4
141	6
142	3
143	5
144	3
145	3
151	3
152	10
156	3
163	3
165	41
166	37
167	96
168	80
169	173
170	63
171	146
172	20
173	22
174	2
177	4
178	8
179	9
180	13
181	111
182	15
184	2
256	18
258	177
259	184
260	504
261	18
262	1056
263	178
264	200
265	27
