Mass Spectrum: 2-(Chloromethyl)tetrahydropyran
Formula: C6 H11 Cl O
CAS: 18420-41-2
Molecular weight: 134
Origin: NIST Mass Spectrometry Data Center
m/z	RELATIVE INTENSITY
15	90
26	160
27	1021
28	420
29	1451
30	50
31	200
37	40
38	110
39	1431
40	320
41	4704
42	490
43	1511
44	70
45	30
47	10
48	20
49	460
50	280
51	280
52	100
53	400
54	130
55	1381
56	701
57	1571
58	60
61	40
62	50
63	120
64	10
65	110
66	20
67	1491
68	110
69	110
70	10
73	10
75	80
76	190
77	430
78	130
79	240
80	30
81	40
83	40
85	9999
86	591
87	30
89	20
91	10
93	60
95	20
97	10
98	10
133	30
134	70
135	10
136	20
