Mass Spectrum: 1-Nonadecene
Formula: C19 H38
CAS: 18435-45-5
Molecular weight: 266
Origin: Japan AIST/NIMC Database- Spectrum MS-IW-3493
m/z	RELATIVE INTENSITY
15	10
26	40
27	1049
28	299
29	3539
30	80
31	10
38	10
39	1019
40	199
41	7979
42	1899
43	9289
44	409
45	20
50	10
51	30
52	30
53	519
54	1669
55	9419
56	6329
57	9999
58	579
59	30
60	10
65	80
66	199
67	1879
68	2019
69	8379
70	5909
71	6029
72	359
73	50
77	50
78	10
79	139
80	90
81	1159
82	3599
83	9859
84	4099
85	3379
86	219
87	10
91	20
93	30
94	40
95	569
96	2129
97	9469
98	2699
99	889
100	60
107	10
108	20
109	239
110	979
111	4959
112	1849
113	529
114	40
121	10
122	20
123	149
124	629
125	2689
126	1239
127	339
128	30
129	10
135	10
136	10
137	90
138	459
139	1339
140	869
141	219
142	20
151	20
152	319
153	809
154	639
155	149
156	10
165	10
166	229
167	529
168	459
169	99
170	10
180	169
181	349
182	329
183	80
194	109
195	239
196	279
197	60
208	60
209	149
210	159
211	30
222	40
223	99
224	169
225	40
226	10
236	20
237	50
238	359
239	70
251	10
264	30
265	10
266	1689
267	359
268	40
