Mass Spectrum: Phosphine, tris(4-fluorophenyl)-
Formula: C18 H12 F3 P
CAS: 18437-78-0
Molecular weight: 316
Origin: D.HENNEBERG, MAX-PLANCK INSTITUTE, MULHEIM, WEST GERMANY
m/z	RELATIVE INTENSITY
26	103
27	49
28	279
29	6
33	7
36	3
37	10
38	15
39	105
40	4
41	26
42	2
43	10
44	17
45	29
46	4
47	7
48	4
49	15
50	202
51	225
52	20
53	6
54	5
55	30
56	38
57	302
58	9
59	11
60	3
61	11
62	34
63	92
64	7
65	6
66	3
67	17
68	63
69	202
70	65
71	3
73	14
74	119
75	729
76	137
77	56
78	9
79	12
80	104
81	122
82	20
83	186
84	10
85	9
86	18
87	36
88	27
89	8
90	3
91	6
92	25
93	38
94	70
95	183
96	99
97	14
98	35
99	201
100	167
101	217
102	22
103	11
104	36
105	41
106	54
107	129
108	18
109	26
110	14
111	17
112	22
113	21
114	7
115	6
116	6
117	13
118	10
119	19
120	76
121	19
122	15
123	57
124	95
125	1330
126	6195
127	419
128	21
129	5
130	5
131	35
132	17
133	86
134	14
135	14
136	6
137	15
138	43
139	9
142	6
143	20
144	76
145	133
146	43
147	17
148	7
149	63
150	354
151	297
152	246
153	36
154	10
155	15
156	11
157	67
158	465
159	14
160	3
161	4
162	25
163	11
164	38
165	6
166	5
167	14
168	80
169	206
170	712
171	121
172	22
173	10
174	30
175	126
176	34
177	43
178	8
179	7
180	6
181	71
182	27
183	16
184	11
185	7
186	13
187	26
188	237
189	79
190	222
191	33
192	6
193	63
194	12
195	51
196	8
197	3
198	10
199	156
200	42
201	961
202	125
203	11
205	5
206	35
207	7
212	4
214	6
215	6
217	74
218	59
219	4371
220	637
221	2152
222	267
223	20
224	5
225	7
227	3
230	3
231	3
235	15
236	7
237	25
238	13
239	4
240	3
242	7
243	7
244	14
245	6
246	3
248	3
249	4
250	4
251	7
252	3
256	3
261	3
262	19
263	8
264	19
265	7
266	10
267	3
269	8
275	5
280	4
282	8
293	19
294	6
295	10
296	4
297	10
298	21
299	4
311	9
312	13
313	23
314	69
315	724
316	9999
317	1714
318	154
