Mass Spectrum: 2(3H)-Furanone, 3-hexyldihydro-
Formula: C10 H18 O2
CAS: 18436-37-8
Molecular weight: 170
Origin: Japan AIST/NIMC Database- Spectrum MS-IW-3485
m/z	RELATIVE INTENSITY
15	10
26	30
27	619
28	119
29	819
30	20
31	30
38	20
39	589
40	119
41	1699
42	869
43	1219
44	70
45	50
50	10
51	40
52	20
53	239
54	189
55	1949
56	679
57	239
58	549
59	30
60	10
65	30
66	10
67	179
68	139
69	509
70	329
71	90
72	10
73	90
77	20
79	40
81	269
82	50
83	149
84	99
85	649
86	9999
87	559
88	60
91	10
93	10
95	40
97	60
98	20
99	4169
100	319
101	30
109	10
111	10
112	20
113	60
123	10
126	10
127	40
128	10
129	10
141	30
151	10
169	10
170	119
171	20
