Mass Spectrum: Pyridine, 2-(methylthio)-
Formula: C6 H7 N S
CAS: 18438-38-5
Molecular weight: 125
m/z	RELATIVE INTENSITY
32	1125
39	1375
45	1125
50	1000
51	2500
52	3250
57	625
78	1875
79	6124
80	1875
82	500
83	500
92	750
110	375
124	6249
125	9999
126	1250
127	500
