Mass Spectrum: Pentaborane(11)
Formula: B5 H11
CAS: 18433-84-6
Molecular weight: 66
Origin: CCC 0006
m/z	RELATIVE INTENSITY
10	591
11	2392
12	1271
13	2592
14	240
15	60
20	40
21	180
22	190
23	170
24	691
25	470
26	520
27	901
28	170
29	200
30	20
31	40
32	170
33	550
34	1201
35	2032
36	1992
37	2092
38	1982
39	360
40	80
41	380
42	390
43	1171
44	2012
45	3413
46	5075
47	6486
48	5575
49	2372
50	1371
51	550
52	631
53	851
54	2022
55	2993
56	3283
57	4084
58	5725
59	8808
60	9999
61	9318
62	8378
63	3263
64	2102
65	100
66	40
