Mass Spectrum: 3-Pyridinamine, N,N-dimethyl-
Formula: C7 H10 N2
CAS: 18437-57-5
Molecular weight: 122
Origin: James Little,Eastman Chem.Co.,Kingsport,TN
m/z	RELATIVE INTENSITY
38	300
39	871
42	711
50	520
51	1001
52	621
53	380
54	250
61	270
64	290
65	310
66	390
67	270
68	370
77	140
78	1361
79	591
80	581
92	841
93	1221
94	1221
95	120
104	310
105	801
106	1011
107	300
119	330
121	9999
122	9008
123	791
