Mass Spectrum: 1,3-Cyclohexanedione, 4-propyl-
Formula: C9 H14 O2
CAS: 18456-81-0
Molecular weight: 154
m/z	RELATIVE INTENSITY
40	310
41	3443
42	2192
43	2032
44	60
50	60
51	160
52	160
53	631
54	310
55	4224
56	1501
57	160
58	310
65	60
66	60
67	310
68	1251
69	1561
70	3914
71	310
77	60
79	250
81	60
82	60
83	2502
84	3593
85	310
94	60
95	30
97	1411
98	160
111	250
112	9999
113	631
114	60
125	250
126	60
154	691
155	60
