Mass Spectrum: Chromium, pentacarbonyl(trimethyl phosphite-P)-, (OC-6-22)-
Formula: C8 H9 Cr O8 P
CAS: 18461-34-2
Molecular weight: 316
Origin: D.HENNEBERG, MAX-PLANCK INSTITUTE, MULHEIM, WEST GERMANY
m/z	RELATIVE INTENSITY
26	150
28	4459
29	118
30	54
31	45
32	19
33	4
34	5
36	4
39	12
40	10
41	22
42	12
43	28
44	40
45	59
46	6
47	117
48	10
49	12
50	82
52	1554
53	255
54	52
55	17
56	19
57	38
62	48
63	383
64	7
65	6
66	9
67	14
68	34
69	10
70	6
71	15
73	7
77	22
79	103
80	179
81	74
82	232
83	239
84	38
85	23
86	5
88	18
92	10
93	753
94	186
95	16
96	11
97	14
98	6
99	109
100	66
101	668
102	114
103	21
105	7
106	6
107	6
108	71
109	329
110	22
111	14
112	20
113	56
114	120
115	386
116	276
117	41
118	7
119	5
121	15
123	6
124	240
125	18
126	11
127	19
128	44
129	249
130	796
131	1841
132	246
133	60
134	4
136	10
139	20
140	5
142	28
143	45
144	50
145	673
146	811
147	130
148	32
149	10
151	8
152	16
154	4
158	21
159	93
160	7
161	1716
162	235
163	68
164	5
168	22
169	22
170	16
171	23
172	7
173	400
174	553
175	42
176	9999
177	1377
178	357
179	15
189	21
190	8
198	7
199	12
200	8
201	228
202	202
203	21
204	3393
205	555
206	150
207	17
214	6
216	4
217	11
226	15
227	4
229	50
230	29
232	346
233	63
234	16
255	19
257	420
258	82
259	24
260	220
261	37
262	16
281	4
283	24
285	454
286	97
287	24
288	139
289	24
290	6
300	19
314	88
315	7
316	1554
317	316
