Mass Spectrum: 1H-Indazole, 3-methoxy-
Formula: C8 H8 N2 O
CAS: 1848-41-5
Molecular weight: 148
m/z	RELATIVE INTENSITY
50	1461
51	2112
52	200
76	1812
77	5355
78	500
92	520
104	841
105	1451
106	100
118	721
119	1832
120	200
133	4084
134	400
147	1972
148	9999
149	801
