Mass Spectrum: 2,3,5-Trimethyl-6-(2-methylbutyl)pyrazine
Formula: C12 H20 N2
CAS: 18482-80-9
Molecular weight: 192
Origin: Philip Morris R&D
m/z	RELATIVE INTENSITY
35	26
39	827
40	95
41	696
42	1126
43	112
45	13
50	33
51	177
52	269
53	1802
54	551
55	158
57	118
58	3
59	7
63	10
65	125
66	79
67	79
68	128
69	16
70	26
77	92
78	26
79	102
80	230
81	53
82	23
91	7
93	26
94	272
95	39
96	7
107	13
109	33
110	36
121	135
122	79
132	7
135	574
136	9999
137	925
138	16
147	69
149	174
150	66
159	10
160	13
161	49
163	358
164	30
177	702
178	53
191	43
192	121
