Mass Spectrum: Methan-d3-ol
Formula: C H D3 O
CAS: 1849-29-2
Molecular weight: 35
m/z	RELATIVE INTENSITY
12	50
14	110
15	40
16	330
17	180
18	2612
28	410
29	671
30	3964
31	430
32	500
33	9999
34	1061
35	7166
36	280
37	140
