Mass Spectrum: Phenol, 2,4-bis(1-methylpropyl)-
Formula: C14 H22 O
CAS: 1849-18-9
Molecular weight: 206
m/z	RELATIVE INTENSITY
17	20
18	70
27	100
28	120
29	290
32	30
38	10
39	140
40	20
41	350
42	20
43	50
44	10
45	10
50	40
51	160
52	30
53	80
55	180
57	581
58	30
62	10
63	50
64	30
65	110
66	30
67	70
69	20
72	10
73	20
74	20
75	20
76	30
77	400
78	80
79	90
80	10
81	40
89	30
90	10
91	280
92	40
93	60
94	20
95	40
101	10
102	30
103	180
104	40
105	1181
106	120
107	440
108	40
109	10
115	200
116	60
117	100
118	30
119	60
120	561
121	50
126	20
127	50
128	140
129	110
130	80
131	70
132	40
133	170
134	70
135	621
136	60
141	30
142	10
143	20
144	20
145	30
146	30
147	240
148	180
149	110
150	20
159	40
161	150
162	30
163	210
164	30
172	20
173	40
175	60
177	9999
178	1361
179	110
191	370
192	50
198	40
199	10
206	1672
207	721
208	120
