Mass Spectrum: Propane, 1,1,2,3-tetrachloro-
Formula: C3 H4 Cl4
CAS: 18495-30-2
Molecular weight: 180
m/z	RELATIVE INTENSITY
12	30
13	40
14	30
24	20
25	90
26	410
27	440
28	270
29	10
32	90
35	140
36	160
37	440
38	500
39	991
40	50
41	20
42	10
43	20
44	20
45	10
47	320
48	270
49	2122
50	120
51	661
52	10
53	20
54	40
55	50
56	20
57	10
59	30
60	190
61	1972
62	9018
63	911
64	2883
65	90
70	10
71	40
72	140
73	601
74	70
75	631
76	30
77	170
78	10
79	40
80	10
81	10
82	90
83	4134
84	100
85	2642
86	40
87	430
88	10
89	10
90	10
91	10
92	10
93	10
94	30
95	761
96	981
97	3703
98	701
99	2142
100	140
101	330
102	10
106	10
107	50
108	20
109	9999
110	380
111	6306
112	240
113	582
114	40
115	10
117	130
119	130
120	10
121	50
122	10
123	10
124	10
125	10
126	10
127	10
128	10
129	10
130	100
131	440
132	110
133	420
134	40
135	130
136	10
137	20
143	340
144	1181
145	671
146	1161
147	430
148	380
149	120
150	40
151	10
165	30
166	10
167	40
168	10
169	20
170	10
180	20
181	10
182	20
183	10
184	10
185	10
