Mass Spectrum: Spiro[2.5]octane
Formula: C8 H14
CAS: 185-65-9
Molecular weight: 110
Origin: NIST Mass Spectrometry Data Center, 1990.
m/z	RELATIVE INTENSITY
15	125
26	213
27	1305
28	677
29	429
37	78
39	3328
40	725
41	3410
42	383
43	130
50	441
51	994
52	496
53	1852
54	3328
55	1270
56	198
62	98
63	226
65	745
67	9471
68	2185
69	1076
77	780
78	276
79	1807
80	1108
81	9999
82	3689
83	217
91	256
93	171
95	1882
96	136
110	1626
111	145
