Mass Spectrum: Tetramethyl orthocarbonate
Formula: C5 H12 O4
CAS: 1850-14-2
Molecular weight: 136
Origin: Japan AIST/NIMC Database- Spectrum MS-NW-8631
m/z	RELATIVE INTENSITY
14	50
15	4079
16	50
17	10
18	20
27	20
28	119
29	849
30	109
31	439
32	50
33	40
42	10
43	30
44	30
45	3239
46	149
47	70
59	5219
60	139
61	1499
62	60
74	169
75	99
90	10
91	10
94	10
96	10
104	10
105	9999
106	469
107	70
