Mass Spectrum: Rhodium, dicarbonyl(1,1,1,5,5,5-hexafluoro-2,4-pentanedionato-O,O')-, (SP-4-2)-
Formula: C7 H F6 O4 Rh
CAS: 18517-12-9
Molecular weight: 366
Origin: S. PIGNATARO MONOISOIDPIC SPEC.
m/z	RELATIVE INTENSITY
103	8774
131	9999
144	283
159	566
172	377
213	2642
241	5943
282	943
310	7453
338	6321
366	9433
