Mass Spectrum: Rhodium, dicarbonyl(1,1,1-trifluoro-2,4-pentanedionato)-
Formula: C7 H4 F3 O4 Rh
CAS: 18517-13-0
Molecular weight: 312
Origin: S. PIGNATARO MONOISOTOPIC SPEC.
m/z	RELATIVE INTENSITY
103	7700
118	300
131	4400
144	300
159	300
172	300
187	3100
200	1900
213	300
228	1000
241	300
256	7200
268	6500
312	9999
