Mass Spectrum: Androstane-3,17-diol, (3.alpha.,5.beta.,17.beta.)-
Formula: C19 H32 O2
CAS: 1851-23-6
Molecular weight: 292
Origin: LAC, NIDDK, NIH, Bethesda, MD 20892
m/z	RELATIVE INTENSITY
41	8669
42	919
43	5987
44	4348
45	898
47	163
48	69
49	559
50	46
51	440
52	88
53	2979
54	902
55	9215
57	9999
58	1318
59	225
63	67
65	1213
66	627
67	6995
68	2223
69	2542
70	759
71	1164
72	87
73	48
74	23
77	2913
78	618
79	6211
80	1311
81	5294
82	945
83	1414
84	751
85	309
86	251
88	107
89	26
91	4628
92	903
93	5301
94	2346
95	3585
96	672
97	1035
98	157
99	77
101	54
103	252
104	218
105	2969
106	1495
107	4663
108	2286
109	2094
110	466
111	926
112	128
113	25
115	382
116	135
117	618
118	277
119	1766
120	1264
121	2094
122	1525
123	1231
124	801
125	292
126	78
127	58
128	152
129	221
130	102
131	753
132	219
133	1642
134	708
135	1388
136	475
137	418
138	287
139	87
141	76
142	29
143	158
144	89
145	1147
146	400
147	2048
148	2048
149	1975
150	333
151	367
152	105
153	80
157	117
158	56
159	683
160	479
161	831
162	482
163	384
164	301
165	3515
166	2423
167	365
168	57
171	131
172	52
173	554
174	309
175	452
176	199
177	180
178	203
179	119
180	72
185	170
186	37
187	374
188	182
189	183
190	123
191	235
192	326
193	96
194	45
199	201
200	77
201	549
202	181
203	130
204	85
205	119
206	210
207	25
213	119
215	4313
216	822
217	3252
218	605
219	496
220	188
229	29
230	558
231	289
232	176
233	3886
234	810
235	347
236	57
241	610
242	133
245	60
246	66
248	1266
249	226
256	131
257	116
259	1276
260	239
263	59
273	29
274	1845
275	399
277	2605
278	461
279	57
292	7240
293	1381
294	164
