Mass Spectrum: Undecanedioic acid
Formula: C11 H20 O4
CAS: 1852-04-6
Molecular weight: 216
Origin: Japan AIST/NIMC Database- Spectrum MS-NW-4449
m/z	RELATIVE INTENSITY
14	10
15	70
17	40
18	149
26	70
27	1369
28	389
29	1579
30	70
31	269
32	10
36	10
38	20
39	919
40	179
41	3379
42	649
43	1519
44	70
45	869
46	30
47	30
50	20
51	70
52	30
53	319
54	399
55	4579
56	599
57	619
58	99
59	479
60	3419
61	229
62	30
63	20
64	20
65	70
66	50
67	749
68	579
69	3279
70	509
71	369
72	40
73	2279
74	239
75	30
77	80
78	30
79	289
80	219
81	709
82	409
83	1369
84	5319
85	479
86	70
87	459
88	60
89	10
91	99
92	80
93	329
94	549
95	599
96	479
97	1709
98	9999
99	749
100	169
101	479
102	60
103	20
104	10
105	50
106	30
107	109
108	179
109	249
110	379
111	619
112	2639
113	309
114	159
115	199
116	40
117	20
118	50
119	99
120	159
121	829
122	99
123	209
124	359
125	199
126	229
127	80
128	30
129	299
130	80
131	20
133	70
134	129
135	109
136	139
137	119
138	289
139	2089
140	229
141	30
142	50
143	70
144	50
147	10
150	10
151	99
152	1349
153	179
154	119
155	50
156	50
157	409
158	50
159	10
161	30
162	109
163	20
165	10
168	10
169	10
170	159
171	20
172	179
173	20
179	30
180	609
181	70
182	10
188	70
189	20
197	20
198	50
199	139
200	20
