Mass Spectrum: Androstane-3,17-diol, (3.alpha.,5.alpha.,17.beta.)-
Formula: C19 H32 O2
CAS: 1852-53-5
Molecular weight: 292
Origin: NIST Mass Spectrometry Data Center
m/z	RELATIVE INTENSITY
19	20
26	40
27	591
29	1992
30	90
31	320
34	20
38	20
39	1271
40	380
41	7036
42	691
43	4154
44	861
45	440
50	30
51	250
52	240
53	3193
54	941
55	9999
56	861
57	4424
58	561
59	230
60	50
64	50
65	1321
66	510
67	7607
68	2212
69	2352
70	530
71	1051
72	100
73	120
75	50
76	40
77	3233
78	751
79	8197
80	1842
81	7206
82	1091
83	1641
84	651
85	350
86	60
87	60
88	110
89	60
90	30
91	6626
92	1441
93	8307
94	3503
95	5465
96	1021
97	1551
98	250
99	120
102	50
103	380
104	520
105	5665
106	2762
107	8848
108	4094
109	3954
110	1001
111	1882
112	170
113	60
115	430
116	180
117	1331
118	530
119	3833
120	2512
121	4584
122	3443
123	2542
124	1571
125	480
127	220
128	260
129	340
130	130
131	1862
132	661
133	3673
134	1631
135	2933
136	1011
137	841
138	460
139	140
140	50
141	160
142	120
143	350
144	190
145	2572
146	951
147	4894
148	4864
149	3883
150	691
151	871
152	190
153	170
154	30
155	50
156	30
157	380
158	120
159	1852
160	1261
161	2272
162	901
163	801
164	621
165	6676
166	4324
167	681
168	110
169	50
170	30
171	320
172	110
173	1161
174	711
175	1031
176	280
177	400
178	440
179	140
180	70
181	40
184	30
185	470
186	150
187	1001
188	380
189	340
190	240
191	440
192	510
193	150
194	30
195	40
197	20
199	480
200	180
201	1121
202	380
203	260
204	200
205	220
206	300
209	20
211	40
212	20
213	240
214	130
215	8768
216	1812
217	5085
218	861
219	791
220	390
221	30
227	50
228	70
229	60
230	981
231	450
232	360
233	6055
234	1461
235	561
236	60
237	60
238	20
239	20
241	1601
242	360
243	90
244	70
245	90
246	90
248	1401
249	250
250	50
253	70
255	50
256	200
257	130
259	2492
260	561
261	40
262	20
263	70
264	70
269	30
271	20
272	90
273	20
274	2873
275	591
276	80
277	4104
278	891
279	60
286	20
290	210
291	80
292	5745
293	1131
294	150
295	30
