Mass Spectrum: Hexane, 2-iodo-
Formula: C6 H13 I
CAS: 18589-27-0
Molecular weight: 212
m/z	RELATIVE INTENSITY
26	90
27	1391
29	1501
30	30
36	10
37	20
38	70
39	911
40	420
41	3313
42	891
43	9999
44	380
45	20
50	50
51	70
52	30
53	180
54	90
55	1421
56	490
57	1091
58	60
63	10
64	30
65	20
67	50
68	10
69	280
70	20
71	30
74	10
77	10
79	10
83	30
84	290
85	8117
86	530
87	20
127	400
141	20
155	90
169	30
212	220
213	10
