Mass Spectrum: Ethanone, 1-(4-cyclohexylphenyl)-
Formula: C14 H18 O
CAS: 18594-05-3
Molecular weight: 202
Origin: D.HENNEBERG, MAX-PLANCK INSTITUTE, MULHEIM, WEST GERMANY
m/z	RELATIVE INTENSITY
27	310
28	66
29	254
30	5
37	4
38	18
39	421
40	44
41	588
42	36
43	3324
44	79
45	13
50	98
51	288
52	75
53	160
54	56
55	287
56	34
57	22
58	38
59	9
61	3
62	39
63	182
64	77
65	227
66	28
67	204
68	17
69	56
70	10
71	31
72	12
73	3
74	35
75	75
76	107
77	741
78	139
79	173
80	16
81	195
82	34
83	19
84	8
85	10
86	12
87	24
88	19
89	182
90	249
91	1441
92	125
93	35
94	4
95	3
98	6
99	5
100	3
101	47
102	167
103	505
104	137
105	556
106	48
107	5
111	4
113	16
114	26
115	629
116	199
117	458
118	165
119	44
120	9
121	49
122	5
125	4
126	15
127	89
128	199
129	199
130	59
131	1116
132	119
133	211
134	149
135	23
136	5
139	10
140	4
141	38
142	21
143	33
144	45
145	164
146	178
147	69
148	11
151	4
152	12
153	9
154	3
155	8
156	6
157	41
158	19
159	253
160	49
161	8
169	8
173	72
174	19
175	3
181	5
182	3
183	9
184	8
185	21
186	33
187	9999
188	1406
189	118
190	9
200	4
201	57
202	2058
203	336
204	30
