Mass Spectrum: Hexanal, 5-methyl-
Formula: C7 H14 O
CAS: 1860-39-5
Molecular weight: 114
Origin: CARL DJERASSI DEPT OF CHEM STANFORD UNIV STANFORD CALIF 94305
m/z	RELATIVE INTENSITY
27	2500
28	400
29	2500
39	2100
40	300
41	5200
42	2400
43	9999
44	5800
45	600
53	400
54	400
55	7000
56	800
57	2600
58	1100
59	200
67	200
68	300
69	700
70	4300
71	5300
72	800
81	2900
82	200
86	800
95	200
96	2900
97	200
114	100
