Mass Spectrum: Butane, 1-(1-methylethoxy)-
Formula: C7 H16 O
CAS: 1860-27-1
Molecular weight: 116
m/z	RELATIVE INTENSITY
14	80
15	460
26	140
27	1712
28	1872
29	2482
30	60
31	5555
32	390
39	881
40	140
41	3553
42	1101
43	9999
44	470
45	7527
46	180
53	80
55	1021
56	6996
57	6035
58	500
59	741
69	50
70	50
71	110
72	70
73	3363
74	170
83	220
101	3203
102	190
115	20
116	280
117	30
