Mass Spectrum: 1-(Dimethyl(prop-2-enyl)silyloxy)butane
Formula: C9 H20 O Si
CAS: 186181-25-9
Molecular weight: 172
Origin: Vladimir Zaikin, TIPS RAS, Moscow, Russia
m/z	RELATIVE INTENSITY
39	500
41	770
42	260
43	760
45	1281
47	820
55	290
57	210
58	380
59	1621
60	250
61	1050
71	280
72	130
73	200
74	230
75	9999
76	790
77	440
83	150
85	220
87	240
88	210
89	930
95	220
97	170
99	470
101	690
115	210
130	240
131	4924
132	670
133	260
157	190
