Mass Spectrum: Benfluralin
Formula: C13 H16 F3 N3 O4
CAS: 1861-40-1
Molecular weight: 335
Origin: ACCUSTANDARD Chemicals / NIST MS Data Center.
m/z	RELATIVE INTENSITY
12	16
14	60
15	171
16	32
17	15
18	64
19	44
20	30
27	2254
28	625
29	4517
30	868
31	104
33	13
37	30
39	704
41	1869
42	576
43	1447
44	190
45	84
46	39
47	11
50	115
51	186
52	212
53	169
54	129
55	386
56	323
57	687
58	122
59	29
60	12
61	30
62	88
63	175
64	195
65	113
66	34
67	24
68	64
69	310
70	76
71	100
72	20
74	143
75	337
76	206
77	157
78	145
79	33
80	41
81	138
82	39
83	50
84	31
86	16
87	53
88	134
89	179
90	116
91	106
92	44
93	61
94	70
95	211
96	59
97	25
98	24
99	72
100	71
101	88
102	106
103	162
104	24
105	988
106	95
107	106
108	88
109	155
110	22
111	24
112	63
113	165
114	114
115	75
116	83
117	181
118	89
119	163
120	125
121	69
122	39
123	136
125	249
126	381
127	298
128	89
129	63
130	138
131	243
132	161
133	211
134	94
135	51
136	25
137	40
138	114
139	149
140	309
141	166
142	67
143	285
144	293
145	856
146	256
147	244
148	193
149	61
150	37
151	126
152	189
153	449
154	104
155	18
156	34
157	72
158	295
159	593
160	826
161	188
162	60
163	39
164	47
165	57
166	194
167	118
168	53
169	53
170	65
171	259
172	422
173	291
174	362
175	103
176	185
177	37
178	45
179	23
180	43
181	42
182	24
183	51
184	68
185	187
186	335
187	481
188	395
189	215
190	165
191	31
192	17
196	22
197	58
198	194
199	229
200	284
201	339
202	449
203	113
204	29
205	17
206	731
207	69
210	11
211	39
212	109
213	118
214	99
215	124
216	84
217	139
218	226
219	127
220	22
224	27
225	25
226	64
227	59
228	90
229	55
230	57
231	71
232	194
233	83
234	119
235	17
236	13
238	14
239	28
240	48
241	48
242	70
243	35
244	43
245	70
246	142
247	13
248	324
249	37
255	15
256	16
257	13
258	21
260	102
262	147
264	2636
265	247
266	37
270	13
271	44
272	26
273	95
274	36
275	13
276	1365
277	182
278	145
279	25
286	8
288	21
292	9999
293	1153
294	136
295	11
301	15
302	29
303	11
306	13
316	467
317	174
318	694
319	142
320	132
321	25
335	625
336	99
337	13
