Mass Spectrum: 2,4,6(1H,3H,5H)-Pyrimidinetrione, 1-methyl-5-(1-methylethyl)-5-(2-propenyl)-
Formula: C11 H16 N2 O3
CAS: 1861-21-8
Molecular weight: 224
Origin: Finnigan MAT: Toxicological Library (LIBR-TX)
m/z	RELATIVE INTENSITY
41	5998
43	1818
53	2018
55	809
58	693
67	373
79	407
81	695
82	392
83	387
96	511
97	1790
109	717
110	880
111	814
124	2155
126	198
138	1858
139	105
154	208
155	95
165	105
167	1204
169	304
181	9999
182	5579
183	1774
206	195
209	479
