Mass Spectrum: DCPA
Formula: C10 H6 Cl4 O4
CAS: 1861-32-1
Molecular weight: 330
Origin: ACCUSTANDARD Chemicals / NIST MS Data Center.
m/z	RELATIVE INTENSITY
13	16
14	34
15	680
18	6
28	238
29	273
30	85
31	37
32	31
35	14
36	45
37	16
38	9
40	4
45	7
47	47
48	12
49	24
53	8
59	323
60	36
61	14
63	10
65	9
67	15
68	6
71	110
72	79
73	81
74	14
75	10
83	34
84	20
85	34
86	26
87	85
88	31
89	27
94	9
95	88
96	26
97	41
100	11
103	19
104	9
106	132
107	527
108	175
109	168
110	44
111	33
113	10
116	9
118	94
119	19
120	95
121	72
122	33
123	19
125	4
130	77
131	25
132	64
133	21
134	135
135	207
136	99
137	40
142	929
143	143
144	607
145	100
146	110
147	27
150	10
151	30
152	8
153	10
154	8
156	9
157	52
158	13
159	39
160	17
161	16
165	102
167	98
168	13
169	37
170	8
171	27
172	15
173	36
174	15
175	17
177	480
178	128
179	464
180	146
181	175
182	81
183	29
184	23
186	15
187	45
188	13
189	38
190	12
191	25
193	88
194	25
195	75
196	15
197	27
200	25
201	17
202	31
203	18
205	277
206	91
207	264
208	92
209	106
210	44
212	252
213	74
214	351
215	99
216	197
217	61
218	53
219	21
220	18
221	1034
222	18
223	1089
224	111
225	330
226	29
227	55
228	58
229	19
230	86
231	13
232	43
234	11
235	10
236	20
237	10
238	17
240	208
241	130
242	247
243	149
244	129
245	95
246	37
247	42
248	9
249	38
250	9
251	26
252	22
253	13
254	24
256	181
257	31
258	221
259	43
260	115
261	16
262	32
263	25
264	13
265	23
266	14
267	24
268	25
269	18
271	439
272	74
273	500
274	65
275	285
276	31
277	64
278	7
280	98
282	102
283	13
284	40
285	45
286	23
287	65
288	14
289	36
291	12
295	108
296	24
297	123
298	12
299	7385
300	12
301	9999
302	1109
303	4934
304	534
305	1098
306	112
307	99
308	12
330	2506
332	3444
333	459
334	1603
335	185
336	352
337	42
338	35
