Mass Spectrum: Stannane, triethyl(phenylmethyl)-
Formula: C13 H22 Sn
CAS: 18629-74-8
Molecular weight: 298
Origin: M.GIELEN UNIVERSITY OF BRUSSELS, BRUSSELS, BELGIUM
m/z	RELATIVE INTENSITY
100	460
101	50
102	50
103	150
104	120
105	1000
106	320
107	230
108	180
109	320
110	130
111	260
112	140
113	100
114	100
115	240
116	1290
117	1950
118	2930
119	3010
120	3820
121	2920
122	490
123	540
124	540
125	520
126	60
127	60
128	100
129	110
130	50
131	150
132	80
133	160
134	150
135	150
136	50
137	100
138	60
139	80
140	50
141	360
142	130
143	550
144	230
145	2790
146	1330
147	5560
148	2180
149	7790
150	1150
151	4330
152	120
153	1380
154	100
155	740
156	100
157	110
158	100
159	110
160	30
161	100
162	60
163	110
164	30
165	100
166	50
167	100
168	40
169	80
171	290
172	30
173	190
174	230
175	3770
176	2290
177	6160
178	2570
179	7930
180	430
181	1260
182	190
183	1620
184	190
185	240
186	110
187	50
189	50
193	50
194	30
195	60
196	50
197	100
198	50
199	1590
201	160
202	130
203	3740
204	2110
205	6360
206	2750
207	9999
208	1920
209	5740
210	2330
211	7540
212	1080
213	2690
214	260
215	1110
216	100
217	340
233	30
235	50
236	50
237	240
238	150
239	400
240	190
241	490
242	60
243	80
244	30
245	100
261	110
262	40
263	80
264	50
265	1330
266	870
267	2410
268	1130
269	3200
270	360
271	480
272	50
273	490
274	60
293	50
294	460
295	380
296	720
297	460
298	1010
299	170
300	160
301	50
302	160
303	30
