Mass Spectrum: 2,6-Octadienoic acid, 3,7-dimethyl-, methyl ester, (Z)-
Formula: C11 H18 O2
CAS: 1862-61-9
Molecular weight: 182
Origin: CARL DJERASSI DEPT OF CHEM STANFORD UNIV STANFORD CALIF 94305
m/z	RELATIVE INTENSITY
41	5196
42	196
43	490
51	196
52	98
53	686
54	196
55	392
59	294
65	196
67	686
68	392
69	9999
70	588
73	196
77	294
79	294
80	196
81	294
82	980
83	2058
84	196
91	294
93	196
95	294
96	196
99	196
107	392
108	294
109	392
111	196
114	4019
115	294
122	588
123	1274
124	196
125	392
126	196
127	196
135	294
138	196
139	588
140	196
150	490
151	686
167	50
182	686
183	50
