Mass Spectrum: 4-Phenylbenzhydrazide
Formula: C13 H12 N2 O
CAS: 18622-23-6
Molecular weight: 212
Origin: NIST Mass Spectrometry Data Center, 1994
m/z	RELATIVE INTENSITY
14	23
16	54
17	39
18	44
26	37
27	128
28	417
29	208
30	117
31	776
32	91
38	76
39	274
44	40
50	458
51	721
52	153
53	41
61	43
62	202
63	659
64	100
65	59
74	386
75	691
76	1433
77	731
78	79
85	34
86	115
87	167
88	79
89	100
91	172
98	125
99	101
100	67
101	192
102	300
103	59
110	28
111	45
113	67
114	30
115	105
125	95
126	467
127	523
128	71
139	31
140	25
149	53
150	396
151	1550
152	5510
153	3524
154	411
178	25
179	97
181	9999
182	1421
183	128
197	152
198	38
212	957
213	142
214	10
