Mass Spectrum: Butanoic acid, 4-(2,4-dichlorophenoxy)-, methyl ester
Formula: C11 H12 Cl2 O3
CAS: 18625-12-2
Molecular weight: 262
Origin: NIST Mass Spectrometry Data Center, 1995
m/z	RELATIVE INTENSITY
15	153
26	89
27	427
37	111
38	191
39	838
40	265
41	2222
42	864
43	295
44	55
45	227
47	53
49	77
50	131
51	117
53	112
55	138
57	69
59	8732
60	321
61	180
62	325
63	1003
64	85
69	2048
70	126
71	119
72	121
73	572
74	464
75	468
76	85
77	118
83	137
84	106
85	161
87	66
89	43
91	42
97	201
98	485
99	332
100	42
101	9999
102	614
103	132
107	123
108	50
109	478
110	135
111	409
112	107
113	102
116	84
125	80
126	183
127	59
128	151
133	849
134	62
135	504
136	68
137	130
145	375
147	290
149	92
161	515
162	2210
163	548
164	1405
165	191
166	246
175	221
176	44
177	199
189	69
231	798
232	95
233	568
234	68
235	145
262	231
264	141
