Mass Spectrum: .beta.-D-Xylopyranose, 4TMS derivative
Formula: C17 H42 O5 Si4
CAS: 18623-27-3
Molecular weight: 438
Origin: VERN REINHOLD,A.D.LITTLE INC.,CAMBRIDGE,MASS
m/z	RELATIVE INTENSITY
30	110
31	140
36	100
37	60
39	180
40	150
41	310
42	140
43	460
44	380
45	1750
46	180
47	370
51	60
53	160
55	190
56	100
57	150
58	170
59	730
61	140
63	90
65	60
66	150
68	60
69	1080
70	150
71	120
72	260
73	9970
74	1360
75	2230
76	190
77	290
79	90
81	70
83	70
85	100
87	100
89	190
91	80
92	60
93	90
95	70
97	200
99	170
101	750
102	180
103	670
104	160
105	130
111	110
113	120
115	220
116	440
117	420
118	110
119	150
120	90
127	130
129	1220
130	220
131	450
132	150
133	1070
134	240
135	170
141	170
142	150
143	590
145	210
147	4250
148	730
149	490
150	130
151	60
153	70
156	70
157	160
159	110
161	120
163	150
169	250
170	90
171	70
173	70
174	60
175	160
176	90
177	170
178	60
180	80
189	1870
190	370
191	3700
192	590
193	350
197	70
201	70
203	330
204	9999
205	2550
206	1070
207	270
208	60
215	270
217	4870
218	1040
219	450
220	80
221	290
222	140
223	130
230	140
231	230
232	120
243	260
244	80
245	100
259	260
260	90
261	80
265	150
266	70
279	170
280	80
291	330
292	180
293	90
305	430
306	210
307	160
333	220
334	130
335	70
367	110
