Mass Spectrum: Benzo[a]phenazine, 12-oxide
Formula: C16 H10 N2 O
CAS: 18636-87-8
Molecular weight: 246
m/z	RELATIVE INTENSITY
28	461
29	242
30	132
31	286
38	220
39	857
50	1384
51	1055
52	483
53	176
62	418
63	1253
64	637
65	264
74	1077
75	1560
76	1297
77	1055
78	176
86	264
87	703
88	1099
89	901
90	505
98	242
99	418
100	483
101	659
102	615
111	154
112	154
113	659
114	1516
115	1494
116	396
123	879
125	264
126	1099
127	725
128	330
138	176
139	264
140	593
141	176
149	176
150	220
151	374
152	286
153	176
163	176
164	571
165	198
166	110
175	242
176	440
177	242
178	220
179	110
190	1143
191	461
192	220
201	483
202	659
203	461
204	220
205	110
216	134
217	307
218	966
219	160
220	24
227	242
228	418
229	2703
230	9999
231	1956
232	176
245	637
246	8636
247	1538
248	110
