Mass Spectrum: 4,4'-Methylenediphenol, 2TMS derivative
Formula: C19 H28 O2 Si2
CAS: 18641-44-6
Molecular weight: 344
Origin: CARL DJERASSI DEPT OF CHEM STANFORD UNIV STANFORD CALIF 94305
m/z	RELATIVE INTENSITY
43	100
44	100
45	600
59	100
73	8500
74	700
75	500
77	100
89	200
90	200
91	200
104	100
105	100
107	100
135	200
142	100
147	200
149	300
150	300
151	100
152	100
163	600
164	200
165	300
166	100
177	100
178	100
179	4200
180	700
181	200
239	100
241	200
255	300
256	100
271	100
329	1100
330	300
331	100
343	2200
344	9999
345	3400
346	1200
347	200
348	100
