Mass Spectrum: 2-Isobutylthiazole
Formula: C7 H11 N S
CAS: 18640-74-9
Molecular weight: 141
Origin: NIST Mass Spectrometry Data Center, 1990.
m/z	RELATIVE INTENSITY
13	7
14	14
15	112
17	6
18	21
25	21
26	168
27	648
28	126
29	193
30	9
32	37
33	17
37	53
38	133
39	775
40	182
41	1176
42	135
43	934
44	49
45	414
46	52
47	31
50	58
51	104
52	161
53	111
54	546
55	88
56	67
57	511
58	2971
59	861
60	172
61	54
62	31
63	32
64	31
65	40
66	25
67	41
68	30
69	50
70	67
71	119
72	167
73	31
74	15
75	9
78	13
80	28
82	25
83	24
84	37
85	54
86	79
93	15
94	9
95	8
96	20
98	1293
99	9999
100	562
101	424
102	35
110	24
111	11
112	49
113	12
123	26
124	91
125	110
126	1142
127	87
128	59
140	282
141	186
142	26
143	8
