Mass Spectrum: 4-Bromo-3'-nitroacetophenone
Formula: C8 H6 Br N O3
CAS: 18640-58-9
Molecular weight: 243
Origin: NIST Mass Spectrometry Data Center
m/z	RELATIVE INTENSITY
14	150
15	921
18	310
27	120
28	60
29	90
30	871
37	350
38	450
39	360
43	7397
44	210
46	180
49	200
50	711
51	280
52	90
53	200
61	280
62	550
63	961
64	140
72	40
73	430
74	2722
75	4054
76	550
77	200
78	150
79	110
80	60
81	80
82	70
85	90
86	170
87	180
88	120
89	581
90	581
103	1471
104	140
105	50
117	90
118	731
119	170
128	120
130	110
142	90
153	200
154	751
155	460
156	911
157	230
169	40
170	360
171	100
172	350
182	2993
183	270
184	3073
185	220
197	80
198	140
199	100
200	170
212	60
213	50
214	90
215	60
228	9999
229	991
230	9809
231	791
232	120
243	3023
244	330
245	2923
246	270
