Mass Spectrum: Pentane, 1-propoxy-
Formula: C8 H18 O
CAS: 18641-82-2
Molecular weight: 130
Origin: CARL DJERASSI DEPT OF CHEM STANFORD UNIV STANFORD CALIF 94305
m/z	RELATIVE INTENSITY
41	1600
42	900
43	9999
44	400
45	100
55	700
59	100
61	200
69	400
70	1300
71	2700
72	100
73	1100
101	100
