Mass Spectrum: Ether, sec-butyl isopropyl
Formula: C7 H16 O
CAS: 18641-81-1
Molecular weight: 116
Origin: CARL DJERASSI DEPT OF CHEM STANFORD UNIV STANFORD CALIF 94305
m/z	RELATIVE INTENSITY
41	1900
42	200
43	3400
44	200
45	9999
55	200
56	100
57	1600
58	100
59	2200
69	300
73	200
87	2000
88	100
101	300
116	100
