Mass Spectrum: p-Methylcinnamic acid
Formula: C10 H10 O2
CAS: 1866-39-3
Molecular weight: 162
Origin: Japan AIST/NIMC Database- Spectrum MS-NW-6156
m/z	RELATIVE INTENSITY
14	60
15	20
16	10
18	20
26	60
27	269
28	20
29	50
36	10
37	50
38	159
39	949
40	99
41	189
42	20
43	80
44	209
45	219
46	10
47	10
49	40
50	419
51	689
52	219
53	149
54	40
55	129
56	20
57	459
58	299
59	20
60	20
61	119
62	329
63	849
64	189
65	1009
66	129
67	50
68	20
69	159
70	10
71	50
72	119
73	60
74	199
75	259
76	169
77	499
78	239
79	189
80	409
81	20
82	20
83	10
84	20
85	50
86	90
87	119
88	60
89	609
90	199
91	2239
92	349
93	179
94	40
95	10
97	10
98	40
99	10
100	10
101	129
102	399
103	459
104	80
105	799
106	119
107	80
108	90
109	20
110	10
111	10
112	10
113	70
114	99
115	3659
116	2119
117	2549
118	439
119	669
120	199
121	189
122	20
125	10
126	10
127	20
128	20
129	20
130	10
131	60
132	30
133	269
134	349
135	50
136	10
137	10
139	10
140	10
141	10
142	10
143	60
144	609
145	2449
146	299
147	2799
148	319
149	40
150	10
159	10
160	80
161	4269
162	9999
163	1109
164	119
165	10
