Mass Spectrum: Allyl cinnamate
Formula: C12 H12 O2
CAS: 1866-31-5
Molecular weight: 188
Origin: Japan AIST/NIMC Database- Spectrum MS-NW-8878
m/z	RELATIVE INTENSITY
15	30
17	10
18	30
26	70
27	269
28	99
29	229
30	70
31	149
37	30
38	80
39	789
40	109
41	969
42	50
43	70
44	40
45	30
46	20
50	279
51	1119
52	179
53	90
54	20
55	119
56	20
57	619
58	119
60	10
61	10
62	50
63	179
64	20
65	60
66	40
67	10
69	359
70	10
71	10
73	20
74	119
75	179
76	319
77	3229
78	369
79	90
81	20
82	60
83	20
84	60
85	10
86	10
87	20
89	40
90	20
91	559
92	90
93	10
95	10
97	229
98	20
99	10
101	90
102	759
103	5289
104	3429
105	809
106	399
107	139
108	10
109	10
110	20
111	10
115	119
116	159
117	80
118	40
119	30
120	20
127	60
128	709
129	739
130	129
131	9999
132	1179
133	179
134	10
141	119
142	449
143	1959
144	289
145	50
146	20
147	599
148	149
149	20
153	10
155	20
158	10
159	20
160	60
161	10
169	90
170	109
171	20
173	419
174	50
187	50
188	1199
189	169
190	30
