Mass Spectrum: Cyclohexanol, 2-methyl-5-(1-methylethenyl)-, (1.alpha.,2.alpha.,5.beta.)-
Formula: C10 H18 O
CAS: 18675-33-7
Molecular weight: 154
Origin: Mark Whitten, Florida Museum of Natural History, U. of Florida
m/z	RELATIVE INTENSITY
41	9999
42	1370
43	6310
44	649
45	576
50	260
51	786
52	478
53	3112
54	755
55	4945
56	1370
57	1969
58	1498
59	202
62	68
63	166
65	832
67	4761
68	3691
69	3478
70	1423
71	1140
72	266
77	1085
79	4547
80	1326
81	3876
82	742
83	1042
84	657
85	168
91	938
92	2213
93	5849
94	3631
95	1527
96	771
97	1442
98	252
99	72
103	49
105	324
107	4473
108	1202
109	171
110	89
111	358
112	115
119	56
121	3440
122	352
123	86
125	39
136	1625
137	192
139	323
140	38
154	91
