Mass Spectrum: 2(3H)-Furanone, dihydro-5-(2-octenyl)-, (Z)-
Formula: C12 H20 O2
CAS: 18679-18-0
Molecular weight: 196
Origin: MASS SPECTRA OF ORGANIC COMPOUNDS, V. 6, B. H. KENNETT ET AL, DIV. OF FOOD RESEARCH, CSIRO, AUSTRALIA
m/z	RELATIVE INTENSITY
27	620
29	2660
39	470
41	990
42	70
43	60
53	210
54	480
55	590
56	40
57	390
67	330
68	130
69	290
79	170
80	220
81	310
82	130
85	9999
86	310
93	130
95	120
96	690
136	190
196	240
