Mass Spectrum: Benzene, 1-chloro-4-(2,2-dicyanoethenyl)
Formula: C10 H5 Cl N2
CAS: 1867-38-5
Molecular weight: 188
Origin: USAF ACADEMY, COLORADO SPRINGS, COLORADO 80840, J LLOYD PFLUG
m/z	RELATIVE INTENSITY
25	32
26	110
27	110
35	45
36	45
37	258
38	394
39	346
40	42
43	42
47	58
48	45
49	365
50	1660
51	1213
52	297
53	42
55	32
60	158
61	575
62	1025
63	1019
64	216
65	42
67	87
68	67
72	142
73	737
74	1077
75	2074
76	1737
77	433
78	55
80	87
81	38
84	213
85	326
86	398
87	407
88	339
89	187
94	268
95	100
96	38
97	216
98	323
99	1449
100	1320
101	511
102	967
103	110
108	48
109	77
110	233
111	239
112	171
113	84
122	58
123	262
124	530
125	505
126	2077
127	436
128	71
151	116
152	414
153	9999
154	1207
155	67
160	97
161	2741
162	394
163	912
164	119
187	281
188	5961
189	789
190	1957
191	213
