Mass Spectrum: Ambroxol
Formula: C13 H18 Br2 N2 O
CAS: 18683-91-5
Molecular weight: 376
Origin: NIST Mass Spectrometry Data Center, 1998.
m/z	RELATIVE INTENSITY
15	30
26	30
27	320
28	780
29	680
30	1330
31	330
32	30
37	30
38	70
39	620
40	110
41	1620
42	420
43	1120
44	300
45	70
46	20
49	10
50	240
51	670
52	640
53	640
54	600
55	1000
56	2760
57	910
58	110
59	210
60	10
61	50
62	180
63	490
64	170
65	410
66	180
67	240
68	300
69	500
70	160
71	50
73	150
74	140
75	470
76	670
77	1470
78	460
79	750
80	180
81	1340
82	200
83	110
84	50
85	60
86	110
87	60
88	80
89	170
90	490
91	360
92	260
93	110
94	60
95	40
96	1620
97	950
98	220
99	60
100	70
101	50
102	450
103	790
104	2450
105	300
106	50
107	20
108	20
110	80
112	160
114	9999
115	800
116	180
117	230
118	200
119	250
120	80
121	20
125	20
126	30
127	30
128	1110
129	150
130	90
131	120
132	100
133	40
134	10
139	30
140	50
141	60
142	40
143	120
144	50
145	110
146	70
147	20
153	20
154	30
155	150
156	260
157	180
158	250
159	60
160	40
161	20
165	10
166	20
167	20
168	80
169	110
170	160
171	370
172	110
173	290
174	40
180	50
181	50
182	890
183	1110
184	1100
185	1080
186	250
187	20
193	10
195	90
196	60
197	170
198	400
199	190
200	310
201	100
202	10
207	50
208	50
209	70
210	90
211	50
212	40
213	20
221	40
222	30
223	80
224	40
225	70
226	20
227	10
234	20
235	30
236	50
237	60
238	40
239	40
240	20
247	20
249	100
250	50
251	170
252	120
253	80
254	60
259	10
260	70
261	130
262	4830
263	610
264	9309
265	890
266	4500
267	390
268	20
273	10
274	30
275	50
276	80
277	3460
278	450
279	6509
280	700
281	3220
282	290
283	10
286	50
287	50
288	250
289	780
290	410
291	1430
292	280
293	690
294	70
299	10
300	20
301	20
302	70
303	70
304	50
305	100
306	30
307	30
314	10
315	50
316	20
317	520
318	60
319	870
320	100
321	410
322	40
329	10
331	20
333	10
357	10
358	20
359	20
360	30
362	20
374	20
375	10
376	310
377	50
378	600
379	80
380	270
381	40
