Mass Spectrum: 2,6-Piperidinedione, 1-[(octahydro-2H-quinolizin-1-yl)methyl]-, (1R-cis)-
Formula: C15 H24 N2 O2
CAS: 18688-40-9
Molecular weight: 264
m/z	RELATIVE INTENSITY
50	220
51	250
52	200
53	701
54	1101
55	5105
56	1351
57	500
58	200
63	100
65	250
66	150
67	1131
68	901
69	1031
70	701
71	200
76	180
77	400
78	821
79	400
80	631
81	751
82	1902
83	6256
84	1581
85	300
86	140
91	390
92	130
93	250
94	520
95	1702
96	2903
97	5825
98	2903
99	200
104	350
105	220
106	180
107	150
108	520
109	831
110	5005
111	4374
112	350
114	160
115	100
118	120
119	130
120	180
121	120
122	1061
123	731
124	1621
125	591
126	130
133	100
134	220
135	120
136	2502
137	701
138	9999
139	921
141	200
147	100
148	200
149	430
150	2302
151	1551
152	5005
153	520
154	100
165	120
166	170
175	130
182	400
193	150
203	250
208	100
210	100
211	200
217	100
221	100
222	1201
223	250
235	300
236	180
249	100
262	100
263	1521
264	6256
265	951
266	120
