Mass Spectrum: 8-Quinolinesulfonyl chloride
Formula: C9 H6 Cl N O2 S
CAS: 18704-37-5
Molecular weight: 227
Origin: MASS SPECTROMETRY CENTER, UNIV. OF UTAH, ALDRICH Q00150-6
m/z	RELATIVE INTENSITY
35	38
36	601
37	112
38	462
39	275
45	96
48	462
49	113
50	1028
51	1473
52	338
61	168
62	300
63	576
64	2290
66	27
68	148
69	55
74	749
75	1526
76	703
77	1384
78	235
81	50
87	126
88	101
89	306
96	71
98	119
99	189
100	448
101	2854
102	1642
103	292
104	69
116	362
117	71
126	79
127	748
128	9999
129	4238
130	364
144	157
148	23
161	101
162	31
163	446
165	101
176	134
177	69
192	7293
193	826
194	393
227	2959
228	382
229	1109
230	79
