Mass Spectrum: cis-Chlorfenvinphos
Formula: C12 H14 Cl3 O4 P
CAS: 18708-87-7
Molecular weight: 358
Origin: NIST Mass Spectrometry Data Center, 1998.
m/z	RELATIVE INTENSITY
14	10
15	70
26	140
27	1030
28	320
29	2660
30	80
31	80
35	20
36	40
37	30
38	50
39	60
41	50
42	40
43	280
44	40
45	470
46	10
47	250
48	80
49	70
50	320
51	150
52	10
53	30
55	10
57	10
60	20
61	140
62	280
63	340
64	30
65	440
66	10
67	20
68	10
69	10
71	10
72	50
73	470
74	900
75	930
76	600
77	80
78	170
79	30
80	10
81	5839
82	80
83	100
84	220
85	310
86	250
87	400
88	120
89	170
90	30
91	1830
92	60
93	130
94	10
95	20
96	60
97	310
98	470
99	1550
100	170
101	60
102	20
103	20
104	10
105	10
106	10
107	120
108	160
109	4240
110	430
111	580
112	180
113	90
114	30
115	30
116	30
117	20
118	10
119	40
120	40
121	90
122	80
123	1760
124	220
125	950
126	110
127	150
128	20
129	10
130	10
131	20
132	30
133	660
134	370
135	830
136	250
137	310
138	90
139	110
140	20
141	80
142	10
143	50
144	50
145	990
146	740
147	680
148	470
149	150
150	100
151	110
152	140
153	200
154	60
155	100
156	10
157	380
158	340
159	1480
160	320
161	850
162	140
163	140
164	30
165	20
166	10
167	60
168	50
169	540
170	2330
171	580
172	1490
173	1820
174	390
175	1100
176	90
177	190
178	20
179	30
180	20
181	10
182	20
183	10
184	10
185	30
186	200
187	180
188	140
189	110
190	30
191	20
192	10
193	1430
194	130
195	1370
196	140
197	520
198	60
199	110
200	20
201	30
202	20
203	420
204	1330
205	990
206	1340
207	810
208	480
209	280
210	70
211	40
212	10
213	10
214	10
215	20
216	10
217	60
218	10
219	50
220	20
221	50
222	250
223	60
224	230
225	30
226	70
227	10
228	10
230	10
231	60
232	80
233	90
234	40
235	120
236	10
237	100
238	10
239	90
240	10
241	40
243	10
249	40
250	20
251	40
252	10
253	20
255	10
259	20
260	10
261	10
266	600
267	9999
268	1260
269	6599
270	650
271	1140
272	100
273	10
279	30
280	10
281	20
284	50
285	30
286	50
287	20
288	40
289	10
290	10
293	20
295	2270
296	280
297	1490
298	170
299	250
300	30
301	40
303	30
305	10
313	10
315	20
317	20
319	10
323	5729
324	800
325	3750
326	500
327	670
328	90
329	10
358	60
359	20
360	60
361	20
362	20
