Mass Spectrum: trans-Chlorfenvinphos
Formula: C12 H14 Cl3 O4 P
CAS: 18708-86-6
Molecular weight: 358
Origin: NIST Mass Spectrometry Data Center, 1998.
m/z	RELATIVE INTENSITY
14	10
15	70
26	140
27	1010
28	290
29	2620
30	90
31	80
35	20
36	30
37	30
38	60
39	70
41	50
42	40
43	260
44	40
45	440
46	10
47	250
48	90
49	60
50	320
51	130
52	10
53	30
55	10
57	10
60	20
61	140
62	250
63	300
64	40
65	420
66	10
67	20
72	40
73	440
74	890
75	860
76	530
77	70
78	140
79	30
80	10
81	5099
82	100
83	90
84	220
85	290
86	260
87	380
88	110
89	150
90	30
91	1540
92	50
93	100
94	10
95	20
96	50
97	300
98	460
99	1500
100	150
101	50
102	20
103	20
104	10
105	10
106	10
107	110
108	160
109	3740
110	430
111	560
112	160
113	90
114	20
115	30
116	20
117	10
119	40
120	40
121	90
122	80
123	1610
124	200
125	940
126	100
127	190
128	20
129	10
131	30
132	30
133	660
134	360
135	800
136	260
137	290
138	90
139	90
140	30
141	70
142	10
143	50
144	60
145	1030
146	680
147	740
148	420
149	160
150	90
151	90
152	120
153	170
154	60
155	90
156	10
157	430
158	340
159	1550
160	320
161	890
162	120
163	150
164	20
165	20
167	70
168	60
169	560
170	2340
171	580
172	1490
173	1890
174	380
175	1190
176	100
177	210
178	20
179	30
180	20
181	10
182	20
183	10
185	30
186	200
187	160
188	130
189	100
190	30
191	30
192	10
193	1630
194	150
195	1600
196	170
197	580
198	80
199	110
200	30
201	40
202	30
203	450
204	1450
205	860
206	1440
207	720
208	520
209	250
210	70
211	40
212	10
213	10
214	10
215	10
216	10
217	70
218	10
219	60
220	10
221	60
222	220
223	50
224	220
225	30
226	70
227	10
231	60
232	90
233	100
234	40
235	140
236	20
237	110
238	10
239	100
240	10
241	40
249	40
250	20
251	50
252	10
253	20
259	20
260	10
261	10
266	610
267	9999
268	1280
269	6499
270	620
271	1080
272	100
273	10
279	30
281	20
284	40
285	10
286	30
287	10
288	40
290	10
293	20
294	60
295	2050
296	270
297	1300
298	150
299	240
300	30
301	20
303	20
315	10
317	10
320	10
321	20
323	5149
324	700
325	3300
326	430
327	580
328	70
329	10
358	30
360	30
362	10
