Mass Spectrum: 2-Propanol, 1,3-dibromo-, phosphate (3:1)
Formula: C9 H15 Br6 O4 P
CAS: 18713-51-4
Molecular weight: 692
m/z	RELATIVE INTENSITY
15	982
17	201
18	847
26	781
27	1696
28	1290
29	1897
30	290
31	3036
32	203
37	469
38	759
39	5467
40	623
41	2455
42	781
43	2857
44	2254
45	1629
46	670
47	431
48	804
49	402
55	469
56	355
57	2210
58	268
59	603
60	268
61	246
63	225
64	1607
65	335
73	536
75	536
77	670
78	312
79	781
80	424
81	1161
82	535
83	402
84	250
88	290
89	246
91	446
92	268
93	1853
94	380
95	1629
96	625
97	312
98	557
99	1785
101	670
103	290
104	246
105	737
106	603
107	380
108	603
109	424
110	530
111	424
113	379
115	290
116	225
117	647
118	223
119	9999
120	670
121	9931
122	930
123	6082
124	536
125	5222
126	448
129	513
131	402
133	223
135	402
136	379
137	2478
138	268
139	424
141	223
143	402
154	290
155	290
180	290
185	225
187	223
189	223
195	268
196	424
197	179
198	1163
199	2076
200	1897
201	3838
202	1071
203	1719
207	580
217	2723
218	246
219	2636
257	558
279	223
281	603
283	248
297	312
299	603
301	312
321	402
323	804
325	424
335	312
337	336
339	312
