Mass Spectrum: N,N'-Bis-(2-hydroxyethyl)-oxamide
Formula: C6 H12 N2 O4
CAS: 1871-89-2
Molecular weight: 176
Origin: Japan AIST/NIMC Database- Spectrum MS-IW-7566
m/z	RELATIVE INTENSITY
12	60
13	60
14	189
15	629
16	99
17	50
18	169
19	30
24	20
25	80
26	599
27	1619
28	2509
29	1699
30	8229
31	1029
32	50
33	10
36	10
37	30
38	189
39	229
40	529
41	1159
42	2199
43	2029
44	2519
45	4689
46	769
47	10
50	40
51	179
52	329
53	469
54	90
55	70
56	539
57	199
58	569
59	569
60	1119
61	669
62	249
63	10
66	80
67	40
68	40
69	249
70	7689
71	519
72	199
73	20
74	50
75	50
76	10
77	30
78	10
79	10
80	20
81	10
82	10
83	70
84	30
85	90
86	70
87	199
88	9999
89	579
90	90
91	10
92	10
93	20
94	20
95	30
96	50
97	30
98	209
99	119
100	50
101	129
102	40
103	119
104	20
105	20
106	10
107	10
108	10
109	10
110	129
111	40
112	20
113	60
114	119
115	1219
116	119
117	1509
118	139
119	1189
120	90
121	20
122	10
125	10
126	10
127	659
128	639
129	80
130	40
131	159
132	20
133	4099
134	259
135	40
139	90
140	399
141	40
145	1699
146	539
147	60
148	129
149	30
151	20
157	40
158	209
159	40
161	10
176	899
177	129
178	10
