Mass Spectrum: Tris-(2-chloroethyl)orthoformate
Formula: C7 H13 Cl3 O3
CAS: 18719-58-9
Molecular weight: 250
Origin: NIST Mass Spectrometry Data Center
m/z	RELATIVE INTENSITY
12	10
13	30
14	180
15	631
16	30
17	10
19	140
20	20
26	751
27	6005
28	1381
29	1421
30	550
31	2002
32	40
33	10
35	70
36	100
37	30
38	20
39	30
40	10
41	20
42	180
43	500
44	160
45	801
47	661
49	841
50	210
51	300
52	60
53	10
57	10
61	170
63	9999
64	591
65	2933
66	80
73	4894
74	100
75	20
77	10
78	10
79	30
81	30
87	30
89	50
93	20
109	540
111	170
135	50
137	20
143	40
145	20
151	20
171	5525
173	3363
174	230
175	591
176	40
249	90
250	20
251	90
253	40
