Mass Spectrum: Decanedinitrile
Formula: C10 H16 N2
CAS: 1871-96-1
Molecular weight: 164
Origin: Japan AIST/NIMC Database- Spectrum MS-NW-1588
m/z	RELATIVE INTENSITY
14	20
15	139
26	139
27	1539
28	359
29	1519
30	309
37	20
38	90
39	1549
40	349
41	5649
42	1149
43	1099
44	139
50	50
51	139
52	209
53	629
54	2959
55	4839
56	529
57	299
58	129
59	30
62	10
63	20
64	50
65	119
66	179
67	629
68	769
69	2639
70	229
71	50
72	10
76	10
77	90
78	30
79	559
80	219
81	699
82	7009
83	9999
84	659
85	30
91	109
92	20
93	109
94	179
95	189
96	2819
97	1279
98	90
99	10
103	10
104	10
105	50
106	20
107	289
108	169
109	80
110	579
111	99
112	10
117	10
118	20
119	20
120	30
121	119
122	109
123	40
124	2639
125	249
126	10
131	10
134	20
135	179
136	70
137	10
138	50
141	10
146	10
147	10
149	20
163	109
164	10
165	10
166	10
