Mass Spectrum: 3-Heptanol, 6-methyl-
Formula: C8 H18 O
CAS: 18720-66-6
Molecular weight: 130
Origin: CONTINENTAL OIL CO., PONCA CITY, OKLA, USA
m/z	RELATIVE INTENSITY
13	18
14	126
15	641
16	45
17	48
18	145
19	10
25	14
26	218
27	2999
28	983
29	3300
30	214
31	2971
32	97
33	14
36	56
37	46
38	98
39	1514
40	283
41	4418
42	735
43	2534
44	454
45	475
46	20
47	9
48	9
49	14
50	48
51	96
52	43
53	259
54	98
55	4196
56	1266
57	2194
58	924
59	9999
60	342
61	31
62	11
63	21
64	7
65	34
66	18
67	96
68	88
69	604
70	306
71	236
72	119
73	61
74	11
77	26
78	12
79	27
80	7
81	79
82	50
83	5841
84	461
85	7
86	8
87	7
95	33
96	7
97	181
98	18
99	23
100	80
101	1552
102	106
103	9
110	9
111	24
112	163
113	18
115	7
127	7
128	14
129	25
130	5
