Mass Spectrum: 3-Heptanol, 5-methyl-
Formula: C8 H18 O
CAS: 18720-65-5
Molecular weight: 130
Origin: NIST Mass Spectrometry Data Center, 1990.
m/z	RELATIVE INTENSITY
15	203
26	300
27	2728
28	3691
29	386
31	2243
39	2118
40	558
41	6086
42	944
43	2286
44	507
45	1334
53	540
55	4514
56	2033
57	6339
58	1202
59	9999
60	365
67	305
69	540
70	1236
71	984
72	332
83	9705
84	809
101	3283
102	245
112	634
