Mass Spectrum: 3-Heptanol, 2-methyl-
Formula: C8 H18 O
CAS: 18720-62-2
Molecular weight: 130
m/z	RELATIVE INTENSITY
18	120
19	20
27	4064
28	951
29	3143
30	200
31	1541
32	60
33	80
41	5205
42	631
43	4114
44	851
45	1832
46	40
55	2372
56	470
57	2132
58	280
59	931
60	30
67	100
68	70
69	9999
70	631
71	260
72	250
73	5165
74	240
81	10
82	10
83	40
84	20
85	130
86	1031
87	4414
88	230
97	50
98	10
101	120
102	10
115	20
129	20
130	20
