Mass Spectrum: 1,1,1,3,5,5,5-Heptamethyltrisiloxane
Formula: C7 H22 O2 Si3
CAS: 1873-88-7
Molecular weight: 222
Origin: M. WURST, OSTBOHMISCHE CHEM. SYNTH. VEB., FRANKFURT, W. GER.
m/z	RELATIVE INTENSITY
15	500
28	2100
43	500
45	1300
59	2500
73	8600
74	900
87	500
103	900
115	500
117	500
119	500
131	700
133	2700
147	900
191	900
207	9999
208	2300
209	1400
221	1100
