Mass Spectrum: Propane, 1-isocyanato-2-methyl-
Formula: C5 H9 N O
CAS: 1873-29-6
Molecular weight: 99
m/z	RELATIVE INTENSITY
26	172
27	2615
28	1207
29	488
30	1034
38	57
39	862
40	201
41	4310
42	1149
43	9999
44	345
55	287
56	2816
57	287
58	402
70	57
71	977
82	57
84	230
98	259
99	575
100	86
