Mass Spectrum: Stearic acid, TMS derivative
Formula: C21 H44 O2 Si
CAS: 18748-91-9
Molecular weight: 356
Origin: NIST Mass Spectrometry Data Center
m/z	RELATIVE INTENSITY
26	10
27	120
28	30
29	420
30	10
31	10
39	150
40	50
41	1561
42	370
43	2632
44	140
45	410
46	30
47	200
48	10
49	10
51	10
52	10
53	110
54	170
55	2522
56	530
57	1672
58	220
59	230
60	70
61	410
62	30
63	20
65	30
66	10
67	400
68	110
69	1021
70	230
71	430
72	310
73	7707
74	781
75	5795
76	410
77	270
78	10
79	130
80	30
81	410
82	90
83	661
84	240
85	260
86	80
87	70
88	50
89	250
90	40
91	70
92	10
93	120
94	20
95	420
96	70
97	540
98	400
99	190
100	20
101	120
102	20
103	40
105	160
106	20
107	90
108	20
109	160
110	30
111	250
112	130
113	50
114	20
115	90
116	681
117	9999
118	991
119	420
120	20
121	100
122	20
123	50
124	20
125	70
126	30
127	40
129	4804
130	611
131	1221
132	5565
133	1141
134	290
135	110
136	10
137	20
138	10
139	30
140	20
141	20
142	20
143	340
145	3783
146	500
147	170
148	10
149	30
150	10
151	10
152	10
153	20
154	50
155	30
156	10
157	100
158	20
159	310
160	50
161	20
163	10
165	10
167	20
168	20
169	10
171	240
172	40
173	90
174	60
175	10
177	10
181	20
182	10
183	10
185	360
186	50
187	290
188	80
189	20
191	10
195	10
196	10
199	90
200	20
201	631
202	100
203	40
209	10
210	20
213	80
214	10
215	60
216	10
223	30
224	10
227	110
228	20
229	40
230	10
237	10
238	10
241	110
242	20
243	90
244	20
245	10
255	90
256	20
257	150
258	30
259	10
265	10
266	10
267	10
269	40
270	10
271	80
272	20
283	30
284	10
285	40
286	10
297	350
298	90
299	80
300	20
301	10
311	40
312	20
313	340
314	90
315	20
325	10
327	70
328	20
329	10
339	20
341	6716
342	1862
343	490
344	80
345	10
355	50
356	861
357	250
358	70
359	10
