Mass Spectrum: 2-(2-Bromoethyl)-1,3-dioxolane
Formula: C5 H9 Br O2
CAS: 18742-02-4
Molecular weight: 180
Origin: NIST Mass Spectrometry Data Center
m/z	RELATIVE INTENSITY
13	20
14	140
15	360
16	20
19	330
26	440
27	1692
28	721
29	1692
30	100
31	230
37	50
38	140
39	731
40	120
41	811
42	210
43	601
45	3373
46	60
47	10
53	30
55	170
56	70
57	230
58	10
69	10
71	581
73	9999
74	310
75	40
79	50
80	50
81	60
82	50
92	10
93	100
94	10
95	90
99	100
100	10
101	20
105	10
107	330
109	310
119	10
121	20
123	10
135	90
137	90
150	30
152	40
179	180
181	150
