Mass Spectrum: 3-Ethoxy-1,2-propanediol
Formula: C5 H12 O3
CAS: 1874-62-0
Molecular weight: 120
Origin: NIST Mass Spectrometry Data Center
m/z	RELATIVE INTENSITY
12	20
13	40
14	310
15	2042
16	70
17	10
18	70
19	881
26	520
27	3463
28	941
29	7006
31	9999
32	250
33	270
38	60
39	140
40	50
41	741
42	1051
43	7347
44	4164
45	2692
47	1722
48	60
49	30
55	170
56	150
57	881
58	651
59	6005
60	1021
61	8137
62	220
63	50
69	10
71	20
72	150
73	240
74	500
75	160
76	10
77	110
87	50
89	1742
90	751
91	40
102	310
