Mass Spectrum: Ethyl methyl methylphosphonate
Formula: C4 H11 O3 P
CAS: 18755-36-7
Molecular weight: 138
Origin: VERIFIN - Methodology B2-1980
m/z	RELATIVE INTENSITY
26	100
27	400
28	200
29	200
31	100
33	70
43	200
45	300
47	800
48	100
49	100
62	100
63	700
65	600
77	200
78	80
79	3403
80	1301
81	60
93	6105
94	2702
95	2101
107	60
110	200
111	9999
112	300
113	80
123	400
137	300
138	100
