Mass Spectrum: 4-Bromophenylacetic acid
Formula: C8 H7 Br O2
CAS: 1878-68-8
Molecular weight: 214
Origin: Japan AIST/NIMC Database- Spectrum MS-NW-9373
m/z	RELATIVE INTENSITY
26	20
27	60
28	40
29	30
37	90
38	219
39	629
40	80
41	30
42	10
43	139
44	199
45	319
49	50
50	409
51	409
52	80
53	60
55	20
60	20
61	149
62	449
63	1139
64	359
65	269
66	20
67	99
68	10
73	30
74	139
75	119
76	60
77	349
78	169
79	159
80	40
81	20
82	40
84	189
85	179
86	129
87	109
88	90
89	2169
90	3199
91	2149
92	159
93	20
98	20
99	20
105	20
106	10
107	60
108	10
116	10
117	70
118	10
119	70
134	40
135	70
136	10
141	10
143	80
145	70
155	10
157	10
167	10
168	20
169	9999
170	829
171	9759
172	819
173	30
174	20
185	10
196	30
197	10
198	30
214	5699
215	509
216	5609
217	499
218	40
