Mass Spectrum: 4-Hexadecanone
Formula: C16 H32 O
CAS: 18787-65-0
Molecular weight: 240
Origin: V.Zaikin,Topchiev Inst.Petrochem.Synth.,Moscow
m/z	RELATIVE INTENSITY
25	30
26	160
27	1081
28	200
29	1371
30	30
31	30
37	30
38	50
39	711
40	170
41	4244
42	911
43	9529
44	260
45	100
50	20
51	40
52	20
53	250
54	260
55	2602
56	721
57	4014
58	7407
59	250
60	20
65	50
66	40
67	520
68	200
69	1001
70	500
71	9999
72	400
73	40
77	50
78	10
79	110
80	40
81	550
82	230
83	601
84	280
85	1171
86	9689
87	4804
88	230
89	10
91	20
93	40
94	20
95	801
96	230
97	540
98	280
99	2762
100	210
101	20
107	20
109	480
110	210
111	200
112	80
113	460
114	50
115	10
121	20
123	260
124	150
125	60
126	30
127	100
128	260
129	30
137	80
138	60
139	20
141	140
142	90
151	10
152	340
153	50
154	100
155	200
156	30
166	20
169	40
170	10
179	50
180	20
183	20
184	20
194	10
195	10
196	10
197	6856
198	751
199	60
211	70
212	40
222	50
225	50
239	20
240	500
241	170
242	20
