Mass Spectrum: 1-Butanethiol, 2-methyl-
Formula: C5 H12 S
CAS: 1878-18-8
Molecular weight: 104
m/z	RELATIVE INTENSITY
14	100
15	900
24	10
25	50
26	671
27	4524
28	731
29	6676
30	180
31	10
32	160
33	350
34	210
35	160
36	30
37	200
38	420
39	3823
40	520
41	9999
42	2682
43	2022
44	140
45	1962
46	821
47	4264
48	741
49	510
50	250
51	280
52	90
53	470
54	160
55	5075
56	2853
57	6156
58	530
59	320
60	100
61	390
62	70
63	50
64	10
65	30
66	10
67	60
68	50
69	350
70	6126
71	751
72	50
73	100
74	240
75	1311
76	100
77	60
78	10
84	10
85	30
87	30
88	10
89	50
103	20
104	4324
105	280
106	210
