Mass Spectrum: 2-Acetyl-3-methylbenzo[b]thiophene
Formula: C11 H10 O S
CAS: 18781-31-2
Molecular weight: 190
Origin: Japan AIST/NIMC Database- Spectrum MS-IW-2763
m/z	RELATIVE INTENSITY
15	40
27	40
28	70
32	10
37	10
38	30
39	179
40	10
41	10
42	10
43	439
44	40
45	559
46	10
47	20
50	109
51	239
52	40
53	30
55	10
57	10
58	20
59	20
60	40
61	30
62	80
63	229
64	30
65	50
66	10
67	20
69	569
70	70
71	80
72	40
73	169
74	119
75	149
76	109
77	629
78	60
79	20
80	10
81	30
82	70
83	20
84	10
85	30
86	50
87	179
88	60
89	109
90	20
91	30
93	99
94	30
95	169
96	10
97	20
98	20
99	10
101	99
102	449
103	779
104	70
105	10
106	20
108	50
109	10
113	40
114	40
115	519
116	60
117	20
119	20
120	50
121	199
122	20
123	10
126	10
127	40
128	119
129	20
132	30
133	10
134	40
135	10
145	359
146	189
147	3049
148	349
149	159
150	10
158	20
159	10
160	10
161	60
162	10
171	50
172	20
173	10
174	10
175	9999
176	1169
177	529
178	50
189	30
190	4969
191	639
192	269
193	30
