Mass Spectrum: (E)-.beta.-Famesene
Formula: C15 H24
CAS: 18794-84-8
Molecular weight: 204
Origin: Mark Whitten, Florida Museum of Natural History, U. of Florida
m/z	RELATIVE INTENSITY
41	9999
42	518
43	713
44	40
49	12
50	85
51	430
52	249
53	1763
54	191
55	1725
56	143
57	388
58	24
62	24
63	103
65	772
66	276
67	2317
68	948
69	7881
70	454
71	271
75	15
77	1243
78	253
79	2046
80	314
81	1621
82	501
83	103
84	46
89	28
91	1652
92	747
93	4512
94	553
95	428
96	55
97	26
102	20
103	65
104	50
105	691
106	255
107	823
108	110
109	460
110	65
111	84
112	67
113	26
115	66
116	20
117	69
119	660
120	1625
121	421
122	69
123	87
128	17
129	13
131	30
133	1933
134	438
135	182
136	57
137	42
146	18
147	214
148	239
149	53
159	11
161	964
162	208
163	20
175	47
176	36
189	144
190	24
204	395
205	64
