Mass Spectrum: Pyridine, 3-(methylthio)-
Formula: C6 H7 N S
CAS: 18794-33-7
Molecular weight: 125
Origin: L.BAUER UNIV. OF ILLINOIS, CHICAGO, ILLINOIS, USA
m/z	RELATIVE INTENSITY
39	2400
45	800
50	800
51	1300
52	600
57	700
78	900
79	1500
80	700
83	1900
92	1000
110	2200
124	900
125	9999
126	800
127	500
