Mass Spectrum: Benzene, 1,4-dimethoxy-2-(2-nitro-1-propenyl)-
Formula: C11 H13 N O4
CAS: 18790-57-3
Molecular weight: 223
Origin: Drug Lab
m/z	RELATIVE INTENSITY
40	430
41	1541
42	180
43	1301
44	70
45	200
46	110
49	60
50	1231
51	2702
52	941
53	1772
54	1081
55	1001
56	120
57	150
58	40
59	370
60	20
61	190
62	931
63	2983
64	1401
65	4904
66	581
67	370
68	250
69	611
70	80
71	220
72	50
73	40
74	611
75	881
76	1341
77	4314
78	1511
79	2022
80	520
81	210
82	1361
83	290
84	80
85	410
86	210
87	260
88	340
89	2362
90	1551
91	7136
92	1661
93	801
94	420
95	1441
96	230
97	100
98	420
99	110
100	30
101	290
102	1491
103	2652
104	931
105	1481
106	921
107	1151
108	1131
109	1181
110	561
111	861
112	100
113	190
114	60
115	1922
116	571
117	661
118	2853
119	4214
120	1251
121	2642
122	601
123	1631
124	1011
125	420
126	90
127	140
128	80
129	140
130	210
131	1782
132	861
133	2382
134	1081
135	1191
136	540
137	911
138	1031
139	380
140	140
141	80
143	30
144	180
145	370
146	991
147	7887
148	1591
149	1191
150	991
151	841
152	320
153	70
154	10
159	60
160	280
161	9999
162	8568
163	1541
164	1191
165	711
166	1241
167	190
168	30
174	30
175	260
176	5125
177	1111
178	661
179	60
180	90
190	20
191	80
192	891
193	190
194	20
206	60
207	50
208	70
209	10
222	10
223	8137
224	1011
225	130
