Mass Spectrum: Cyclohexane, 1-methyl-4-(1-methylethenyl)-, cis-
Formula: C10 H18
CAS: 1879-07-8
Molecular weight: 138
m/z	RELATIVE INTENSITY
41	4504
43	601
53	1601
55	5305
67	5605
68	6206
69	2102
70	350
77	500
79	951
80	400
81	9999
82	3603
83	951
91	250
93	300
94	701
95	9999
96	3403
109	1601
110	500
123	2102
138	3503
