Mass Spectrum: Furan, 2-[[(1-methylethyl)thio]methyl]-
Formula: C8 H12 O S
CAS: 1883-78-9
Molecular weight: 156
m/z	RELATIVE INTENSITY
27	701
40	330
41	550
43	330
45	520
47	120
53	1001
59	180
81	9999
82	550
85	90
113	90
156	2182
157	200
158	100
