Mass Spectrum: 1-Hexacosene
Formula: C26 H52
CAS: 18835-33-1
Molecular weight: 364
Origin: COC 4051
m/z	RELATIVE INTENSITY
25	20
26	110
27	1441
28	941
29	3643
30	100
36	20
37	30
38	50
39	911
40	240
41	6546
42	1621
43	9999
44	731
50	40
51	60
52	50
53	440
54	1041
55	7947
56	3393
57	8197
58	360
63	30
65	90
66	150
67	1471
68	1501
69	4824
70	2552
71	3833
72	210
77	110
78	80
79	260
80	170
81	1191
82	1712
83	4714
84	1491
85	2232
86	160
91	480
92	330
93	420
94	360
95	1341
96	1661
97	5815
98	1742
99	1001
100	420
104	290
105	480
106	300
107	320
108	280
109	761
110	791
111	2813
112	1131
113	641
115	270
117	260
118	220
119	330
120	220
121	240
122	210
123	440
124	460
125	1211
126	761
127	460
128	230
129	200
131	200
132	160
133	200
134	160
135	190
136	160
137	300
138	330
139	581
140	500
141	340
142	170
143	150
145	150
152	240
153	370
154	410
155	280
156	140
157	120
159	110
161	110
163	130
164	100
165	160
166	200
167	290
168	300
169	210
175	90
177	110
178	90
179	130
180	160
181	210
182	280
183	180
189	90
191	100
192	80
193	110
194	140
195	180
196	200
197	150
203	70
205	80
207	100
208	120
209	140
210	200
211	130
217	70
219	70
221	80
222	110
223	120
224	150
225	110
231	60
233	70
235	70
236	100
237	100
238	150
239	110
245	60
247	60
249	70
250	90
251	90
252	120
253	90
259	50
261	60
263	70
264	90
265	80
266	120
267	90
273	50
277	60
278	80
279	80
280	100
281	80
287	60
289	50
291	60
292	80
293	70
294	100
295	80
301	50
303	50
305	60
306	70
307	70
308	110
309	80
315	50
316	50
319	60
320	70
321	70
322	90
323	70
329	50
330	70
331	60
332	50
333	60
334	90
336	230
337	120
344	60
348	60
349	60
356	50
358	160
359	90
360	70
362	240
364	711
365	300
