Mass Spectrum: Tetraethyl dimethylaminomethylenediphosphonate
Formula: C11 H27 N O6 P2
CAS: 18855-52-2
Molecular weight: 331
Origin: NIST Mass Spectrometry Data Center
m/z	RELATIVE INTENSITY
12	10
15	651
16	10
18	90
19	20
26	330
27	1862
28	1762
29	3823
30	420
39	20
40	80
42	4864
43	490
44	1571
45	210
46	250
47	520
48	40
49	60
51	10
54	60
56	981
57	1281
58	641
60	30
61	30
62	20
63	40
65	1571
66	60
67	10
68	30
69	50
70	260
71	90
72	230
74	991
75	40
77	80
79	190
81	1131
82	360
83	290
84	520
85	300
86	30
87	10
88	10
90	280
91	280
92	190
93	230
94	40
95	230
96	130
97	160
99	60
100	90
102	50
104	40
106	110
108	100
109	410
110	80
111	200
117	10
118	50
120	2152
121	280
122	140
123	30
124	130
125	150
126	20
127	20
128	20
129	10
133	10
134	20
136	290
138	6236
139	270
140	50
141	50
142	20
143	10
145	40
148	30
149	130
150	60
152	260
153	30
154	10
155	10
158	50
159	160
160	20
161	10
164	120
166	3583
167	210
168	30
169	10
171	10
175	20
177	100
178	20
180	50
182	10
184	10
187	20
188	10
189	10
194	9999
195	941
196	90
197	10
200	50
205	80
217	10
228	10
233	90
260	20
261	110
262	10
286	40
288	70
302	10
331	310
332	40
