Mass Spectrum: Benzonitrile, 2-amino-
Formula: C7 H6 N2
CAS: 1885-29-6
Molecular weight: 118
Origin: Japan AIST/NIMC Database- Spectrum MS-NW-3354
m/z	RELATIVE INTENSITY
15	10
25	10
26	50
27	70
28	269
29	10
30	10
36	20
37	249
38	379
39	559
40	159
41	389
42	40
43	10
44	50
45	99
46	10
48	10
49	50
50	209
51	219
52	529
53	70
54	70
58	60
59	219
60	30
61	129
62	229
63	759
64	1169
65	449
66	149
67	70
73	20
74	50
75	129
76	139
77	60
78	80
79	40
86	20
87	50
88	80
89	80
90	689
91	3269
92	279
93	10
99	20
100	10
101	10
102	10
103	10
116	40
117	389
118	9999
119	849
120	30
