Mass Spectrum: 2-Propenenitrile, 3-phenyl-, (E)-
Formula: C9 H7 N
CAS: 1885-38-7
Molecular weight: 129
Origin: Japan AIST/NIMC Database- Spectrum MS-NW-3392
m/z	RELATIVE INTENSITY
25	10
26	99
27	179
28	10
36	20
37	129
38	209
39	539
40	30
41	10
48	10
49	119
50	849
51	1149
52	459
53	50
60	20
61	149
62	259
63	609
64	219
65	109
66	10
72	10
73	70
74	429
75	569
76	819
77	719
78	879
79	80
80	10
81	10
84	10
85	30
86	60
87	109
88	99
89	189
90	40
91	10
97	10
98	50
99	109
100	119
101	499
102	2859
103	1299
104	90
112	10
114	10
126	10
127	189
128	2309
129	9999
130	1059
131	60
