Mass Spectrum: Norfenfluramine
Formula: C10 H12 F3 N
CAS: 1886-26-6
Molecular weight: 203
Origin: Drug Lab
m/z	RELATIVE INTENSITY
29	20
30	30
31	10
38	20
39	110
40	30
41	80
42	400
43	130
44	9999
45	230
50	60
51	80
52	20
54	10
55	10
56	20
57	70
58	20
61	10
62	50
63	140
64	60
65	80
66	20
69	110
70	30
74	50
75	120
76	30
77	60
78	10
81	30
82	10
83	80
84	60
86	10
87	30
88	50
89	190
90	60
91	130
92	20
93	30
94	30
95	40
96	20
99	50
100	10
101	30
102	20
103	10
104	20
105	20
106	10
107	40
108	20
109	350
110	30
113	50
114	50
115	80
116	40
117	70
118	40
119	160
120	40
121	40
122	10
125	20
126	10
127	60
128	20
132	30
133	40
137	10
138	30
139	50
140	80
141	100
142	10
145	50
148	40
149	130
150	10
151	40
152	10
158	20
159	380
160	50
162	10
164	20
165	30
166	30
167	10
168	130
169	20
172	30
176	10
177	30
182	20
184	230
185	30
186	10
187	10
188	100
202	30
