Mass Spectrum: Propane, 2-[(1,1-dimethylethyl)sulfonyl]-2-methyl-
Formula: C8 H18 O2 S
CAS: 1886-75-5
Molecular weight: 178
m/z	RELATIVE INTENSITY
28	691
29	2502
30	70
31	20
32	711
37	30
38	60
39	851
40	150
41	3133
42	170
43	140
44	10
45	30
47	20
48	60
49	10
50	30
51	30
52	10
53	60
54	20
55	220
56	911
57	9999
58	500
59	80
60	10
64	70
65	20
90	10
91	10
105	40
106	10
107	10
113	40
114	10
120	10
121	170
122	10
123	10
