Mass Spectrum: Hexachloropropene
Formula: C3 Cl6
CAS: 1888-71-7
Molecular weight: 246
Origin: Chuck Anderson, Aldrich Chemical Co.
m/z	RELATIVE INTENSITY
12	16
24	53
35	633
37	266
39	1
47	966
48	14
49	312
50	5
53	379
54	256
55	42
59	226
60	12
61	77
62	5
68	1
70	20
71	2933
72	153
73	949
74	42
79	3
80	5
82	445
83	51
84	299
85	37
86	49
87	7
88	169
89	229
90	114
91	29
92	3
94	524
95	14
96	362
97	9
98	62
106	3916
108	2466
109	39
110	295
111	14
117	4332
118	6
119	4116
120	35
121	1316
122	14
123	151
124	2
127	1
128	1
129	145
130	5
131	137
132	4
133	47
135	8
141	3532
142	92
143	3316
144	95
145	1083
146	33
147	119
148	5
155	2
157	2
164	51
166	65
168	33
170	8
176	329
177	138
178	445
179	186
180	218
181	90
182	48
183	21
184	6
185	1
211	7399
212	195
213	9999
214	279
215	6132
216	182
217	2033
218	61
219	333
220	11
221	25
246	533
247	15
248	962
249	29
250	808
251	22
252	333
253	10
254	82
255	2
256	13
