Mass Spectrum: Desmosterol, TMS derivative
Formula: C30 H52 O Si
CAS: 18880-60-9
Molecular weight: 456
Origin: NIST Mass Spectrometry Data Center, 2010
m/z	RELATIVE INTENSITY
15	10
26	10
27	100
29	320
30	10
31	10
37	10
38	10
39	210
40	60
41	3673
42	200
43	841
44	70
45	370
46	30
47	160
48	10
49	10
50	10
51	40
52	20
53	480
54	100
55	3773
56	480
57	631
58	60
59	270
60	60
61	310
62	20
63	20
65	220
66	80
67	2332
68	470
69	9639
70	641
71	300
72	140
73	7507
74	691
75	4554
76	340
77	941
78	200
79	2382
80	320
81	4104
82	861
83	1301
84	130
85	180
86	20
87	50
88	40
89	220
90	20
91	2933
92	540
93	2973
94	671
95	4234
96	430
97	681
98	50
99	120
100	30
101	360
102	60
103	360
104	200
105	3453
106	821
107	3593
108	691
109	2903
110	360
111	881
112	90
113	130
114	30
115	540
116	310
117	1211
118	500
119	4094
120	1842
121	3103
122	490
123	1361
124	160
125	180
126	20
127	150
128	360
129	9999
130	1621
131	2172
132	801
133	2372
134	601
135	1481
136	250
137	901
138	150
139	80
140	20
141	310
142	270
143	1862
144	691
145	3003
146	841
147	2042
148	480
149	1111
150	170
151	280
152	160
153	80
154	70
155	530
156	250
157	1131
158	1011
159	2502
160	1061
161	1692
162	350
163	941
164	160
165	210
166	40
167	100
168	100
169	430
170	150
171	751
172	340
173	1181
174	370
175	801
176	150
177	440
178	140
179	260
180	70
181	220
182	160
183	280
184	100
185	591
186	230
187	550
188	190
189	631
190	130
191	310
192	80
193	170
194	80
195	180
196	220
197	430
198	160
199	651
200	220
201	470
202	120
203	500
204	120
205	300
206	110
207	110
208	50
209	70
210	30
211	490
212	250
213	1331
214	470
215	681
216	160
217	520
218	130
219	200
220	60
221	60
222	30
223	40
224	20
225	210
226	100
227	390
228	390
229	310
230	60
231	320
232	70
233	100
234	40
235	60
236	30
237	40
238	30
239	340
240	190
241	240
242	110
243	530
244	180
245	1351
246	270
247	60
248	50
249	50
250	20
251	30
252	70
253	2863
254	771
255	851
256	190
257	300
258	100
259	90
260	30
261	20
262	10
263	10
264	10
265	10
266	10
267	150
268	40
269	130
270	40
271	180
272	150
273	290
274	60
275	20
276	10
277	10
279	10
281	631
282	530
283	230
284	80
285	70
286	20
287	20
288	10
289	30
290	20
291	10
295	110
296	70
297	110
298	40
299	170
300	40
301	50
302	70
303	110
304	60
305	20
309	110
310	40
311	100
312	70
313	20
314	10
315	30
316	20
317	30
318	80
319	30
320	10
321	10
323	80
324	190
325	340
326	711
327	3203
328	821
329	130
330	120
331	40
332	10
337	60
338	140
339	40
340	30
342	901
343	5065
344	1611
345	440
346	90
347	10
349	10
351	2292
352	641
353	90
354	10
357	80
358	20
359	20
360	10
365	120
366	2012
367	611
368	100
369	10
371	350
372	1401
373	440
374	110
375	20
385	20
386	40
387	20
399	20
400	10
401	10
413	10
414	20
415	10
423	30
424	10
425	10
427	30
428	20
429	10
439	10
441	1792
442	641
443	170
444	30
445	10
454	30
456	1601
457	601
458	160
459	30
