Mass Spectrum: 3-Hexanone, 2,5-dimethyl-
Formula: C8 H16 O
CAS: 1888-57-9
Molecular weight: 128
Origin: CONTINENTAL OIL CO., PONCA CITY, OKLA, USA
m/z	RELATIVE INTENSITY
14	171
15	953
16	1
17	9
18	21
19	7
25	12
26	266
27	3714
28	618
29	2280
30	62
31	42
38	7
39	75
40	210
41	2399
42	406
43	5028
44	1320
45	268
46	36
49	28
50	55
51	85
52	31
53	179
54	41
55	310
56	212
57	9999
58	491
59	27
62	7
63	13
65	19
66	11
67	69
68	43
69	304
70	81
71	2208
72	112
73	10
77	15
78	6
79	13
81	12
83	32
84	114
85	5178
86	526
87	38
91	8
95	13
97	11
112	5
113	71
114	7
126	7
128	1179
129	110
130	9
