Mass Spectrum: 5.beta.-Pregnan-3.alpha.-ol-20-one, TMS derivative
Formula: C24 H42 O2 Si
CAS: 18880-83-6
Molecular weight: 390
Origin: NIST Mass Spectrometry Data Center
m/z	RELATIVE INTENSITY
15	30
26	10
27	70
28	10
29	210
30	10
31	10
38	10
39	150
40	40
41	1101
43	6065
44	210
45	611
46	40
47	290
48	10
49	10
50	10
51	30
52	20
53	450
54	90
55	1932
56	100
57	160
58	150
59	440
60	110
61	561
62	30
63	30
65	290
66	110
67	2292
68	320
69	941
70	90
71	1321
72	200
73	5395
74	661
75	9999
76	751
77	1471
78	230
79	2873
80	470
81	3223
82	290
83	571
84	1581
85	1331
86	150
87	80
88	30
89	310
91	2883
92	530
93	3203
94	1211
95	3353
96	310
97	450
98	80
99	180
100	30
101	530
102	70
103	280
104	160
105	3163
106	951
107	3073
108	2082
109	1832
110	260
111	280
112	40
113	170
114	30
115	460
116	200
117	821
118	380
119	2742
120	1071
121	2132
122	661
123	751
124	150
125	160
126	30
127	210
128	180
129	1231
130	571
131	1381
132	701
133	1692
134	801
135	1401
136	280
137	410
138	190
139	90
140	20
141	150
142	1041
143	911
144	330
145	3473
146	821
147	2362
148	601
149	1001
150	230
151	230
152	50
153	60
154	20
155	1431
156	400
157	601
158	270
159	1551
160	591
161	1992
162	751
163	591
164	120
165	140
166	100
167	60
168	30
169	170
170	60
171	460
172	320
173	1111
174	460
175	931
176	320
177	280
178	90
179	90
180	40
181	60
182	70
183	160
184	50
185	400
186	320
187	781
188	350
189	540
190	721
191	530
192	190
193	60
194	20
195	40
196	30
197	130
198	40
199	460
200	180
201	841
202	260
203	370
204	1451
205	340
206	60
207	20
208	10
209	30
210	10
211	170
212	80
213	581
214	300
215	2983
216	791
217	711
218	200
219	60
220	10
221	10
222	10
223	10
224	10
225	210
226	110
227	571
228	290
229	861
230	1401
231	370
232	70
233	30
234	10
235	20
236	10
237	20
239	90
240	130
241	360
242	1021
243	791
244	571
245	490
246	671
247	120
248	20
249	10
251	10
252	10
253	170
254	100
255	370
256	170
257	1211
258	490
259	170
260	70
261	140
262	30
263	20
265	10
267	571
268	120
269	30
271	90
272	300
273	80
274	20
275	10
276	10
277	10
281	320
282	530
283	210
284	30
285	2522
286	571
287	60
288	10
289	10
290	10
291	40
292	10
293	10
297	10
298	20
299	330
300	6706
301	1541
302	200
303	20
304	10
305	20
306	10
317	30
318	10
319	10
320	70
321	30
322	10
331	10
332	80
333	60
334	30
335	10
345	10
346	10
347	10
357	10
359	10
361	10
372	10
373	10
375	1491
376	460
377	110
378	20
388	10
389	30
390	80
391	30
392	10
