Mass Spectrum: 5.alpha.-Pregnan-3.alpha.-ol-20-one, TMS derivative
Formula: C24 H42 O2 Si
CAS: 18880-80-3
Molecular weight: 390
Origin: H. ADLERCREUTZ, UNIV. OF HELSINKI, FINLAND
m/z	RELATIVE INTENSITY
61	160
67	301
69	266
70	77
71	636
73	589
74	91
75	2155
76	206
77	160
79	266
80	100
81	1421
82	163
83	286
84	1880
85	1467
86	172
89	114
91	384
92	120
93	791
94	355
95	1467
96	169
97	223
98	86
99	114
101	100
105	788
106	636
107	1742
108	2339
109	1138
110	169
111	206
113	111
115	123
116	114
117	226
118	166
119	1201
120	584
121	1103
122	647
123	842
124	134
125	149
129	819
130	779
131	911
132	493
133	868
134	814
135	1447
136	280
137	481
138	126
139	100
141	71
142	1651
143	561
144	266
145	1834
146	438
147	1742
148	464
149	923
150	206
151	315
154	71
155	2018
156	745
157	427
158	275
159	908
160	673
161	1651
162	650
163	470
164	131
165	157
169	100
171	263
172	192
173	794
174	579
175	908
176	272
177	424
178	126
179	88
181	77
182	94
183	183
185	366
186	149
187	573
188	258
189	581
190	458
191	427
192	705
193	194
195	74
196	160
197	183
198	94
199	389
200	149
201	642
202	220
203	335
204	318
205	180
206	111
209	63
211	209
212	134
213	837
214	321
215	4403
216	1301
217	1742
218	602
219	206
225	226
226	160
227	467
228	226
229	819
230	911
231	435
232	177
233	117
235	74
239	117
240	77
241	332
242	1066
243	1559
244	524
245	581
246	378
247	71
253	229
254	100
255	584
256	289
257	1467
258	487
259	355
260	604
261	1318
262	260
263	126
264	94
265	86
267	756
268	189
271	249
272	163
274	129
281	589
282	814
283	308
284	117
285	3623
286	880
287	131
291	126
297	77
298	157
299	3623
300	9999
301	2889
302	389
305	215
306	91
320	172
321	103
332	412
333	404
334	134
344	83
346	129
347	103
372	458
373	194
374	108
375	2109
376	613
377	200
389	114
390	1353
391	366
392	114
