Mass Spectrum: N-Acetylcaprolactam
Formula: C8 H13 N O2
CAS: 1888-91-1
Molecular weight: 155
Origin: NIST Mass Spectrometry Data Center, 1994
m/z	RELATIVE INTENSITY
12	28
13	33
14	331
15	1952
16	53
17	3
18	130
26	350
27	1931
28	2347
29	934
30	1376
31	96
37	42
38	176
39	1538
40	439
41	2484
42	2050
43	9999
44	1376
45	119
46	17
50	64
51	95
52	97
53	275
54	328
55	2595
56	2616
57	986
58	340
59	17
60	1182
61	30
65	40
67	805
68	291
69	487
70	465
71	146
72	308
73	225
79	24
80	17
81	42
82	60
83	166
84	1218
85	3439
86	450
87	31
94	28
95	103
96	272
97	17
98	479
99	258
110	21
112	1154
113	1129
114	418
115	35
127	1655
128	129
140	21
155	504
156	53
