Mass Spectrum: Estriol, 3TMS derivative
Formula: C27 H48 O3 Si3
CAS: 18888-17-0
Molecular weight: 504
Origin: NIST Mass Spectrometry Data Center
m/z	RELATIVE INTENSITY
15	10
27	10
29	20
31	10
39	20
41	110
42	10
43	120
44	60
45	540
46	40
47	60
51	10
53	50
54	20
55	170
56	10
57	40
58	30
59	290
60	30
61	90
63	10
65	30
66	20
67	130
68	20
69	60
70	20
71	40
73	9999
74	861
75	1031
76	70
77	110
78	20
79	170
80	30
81	280
82	30
83	30
84	10
85	40
86	10
87	20
88	10
89	50
90	10
91	190
92	40
93	220
94	50
95	150
96	20
97	40
98	10
99	50
101	110
102	30
103	571
104	70
105	190
106	20
107	170
108	40
109	100
110	10
111	30
113	60
114	20
115	300
116	80
117	340
118	40
119	120
120	20
121	50
122	10
123	20
125	20
126	10
127	100
128	170
129	2172
130	280
131	370
132	50
133	510
134	90
135	90
136	10
137	20
139	20
140	10
141	200
142	80
143	390
144	70
145	130
147	2062
148	340
149	290
150	40
151	70
152	40
153	60
154	40
155	290
156	90
157	110
158	30
159	90
160	20
161	150
162	40
163	300
164	70
165	150
166	50
167	170
168	60
169	160
170	30
171	90
172	10
173	50
174	10
175	80
176	40
177	410
178	110
179	290
180	130
181	120
182	140
183	230
184	50
185	120
186	30
187	110
188	40
189	330
190	80
191	150
192	90
193	130
194	30
195	60
196	20
197	30
198	10
199	100
200	50
201	280
202	80
203	571
204	300
205	891
206	200
207	80
208	20
209	40
210	10
211	30
212	10
213	60
214	50
215	270
216	150
217	530
218	510
219	240
220	60
221	30
222	10
223	30
224	10
225	40
226	20
227	90
228	40
229	711
230	330
231	961
232	540
233	130
234	40
235	40
236	10
237	40
238	20
239	90
240	30
241	110
242	110
243	280
244	470
245	290
246	70
247	20
248	10
249	10
250	10
251	60
252	30
253	130
254	70
255	360
256	200
257	440
258	200
259	70
260	10
261	10
263	10
265	40
266	20
267	130
268	200
269	380
270	961
271	420
272	170
273	50
274	10
275	10
277	10
279	20
280	20
281	180
282	160
283	611
284	350
285	540
286	350
287	90
288	20
289	10
291	10
292	10
293	20
294	20
295	490
296	831
297	1331
298	510
299	390
300	100
301	20
304	10
305	20
306	20
307	30
308	20
309	270
310	210
311	1902
312	510
313	150
314	40
315	20
317	10
318	10
319	30
320	20
321	20
322	30
323	170
324	631
325	390
326	120
327	40
328	10
329	10
330	10
331	10
332	10
333	10
341	40
342	90
343	40
345	1651
346	510
347	210
348	40
349	10
355	10
357	30
358	30
359	50
360	300
361	100
362	40
363	10
371	20
372	10
373	10
385	90
386	1001
387	480
388	180
389	50
390	10
397	10
399	150
400	50
401	50
402	10
413	40
414	340
415	130
416	50
417	10
489	170
490	70
491	30
492	10
502	30
504	1491
505	661
506	290
507	80
508	20
