Mass Spectrum: Androstane-3,17-diol, (3.beta.,5.beta.,17.beta.)-, 2TMS derivative
Formula: C25 H48 O2 Si2
CAS: 18880-48-3
Molecular weight: 436
Origin: C.D. KOCHAKIAN,MED. CENT.,UNIV. OF ALA. IN BIRMINGHAM,ALA.,USA
m/z	RELATIVE INTENSITY
55	800
59	400
61	500
67	2000
69	500
73	8700
75	9000
76	700
77	1000
79	2900
80	400
81	2500
83	500
89	400
91	2700
92	500
93	3000
94	1100
95	2900
101	1700
103	500
105	2800
106	2000
107	3600
108	1200
109	1600
115	1700
116	2000
117	1800
118	500
119	1800
120	1000
121	2100
122	600
123	600
127	400
129	9999
130	3800
131	2800
132	600
133	2200
134	1100
135	2000
136	500
142	1200
143	2000
144	400
145	1700
146	800
147	2800
148	2500
149	1900
155	500
159	1200
160	900
161	1700
162	2300
163	500
169	400
173	600
174	400
175	400
183	400
185	1000
187	400
199	1100
201	1000
202	500
203	900
213	800
215	2600
216	700
217	1500
230	400
241	3300
242	600
255	900
256	3300
331	800
346	2400
347	600
379	600
421	1100
422	400
436	700
