Mass Spectrum: p-tert-Butylbenzyl bromide
Formula: C11 H15 Br
CAS: 18880-00-7
Molecular weight: 226
Origin: Chuck Anderson, Aldrich Chemical Co.
m/z	RELATIVE INTENSITY
14	4
15	82
26	32
27	403
28	58
29	450
30	9
37	29
38	205
39	2067
40	239
41	1769
42	69
43	70
44	14
45	7
49	7
50	326
51	936
52	249
53	313
54	21
55	318
56	34
57	349
58	218
59	28
61	23
62	172
63	627
64	915
65	1255
66	367
67	29
69	23
70	8
71	138
72	115
73	28
74	58
75	73
76	63
77	372
78	208
79	122
81	21
85	6
86	31
87	57
88	25
89	522
91	1964
92	187
93	93
94	5
95	8
97	7
98	21
99	7
101	33
102	195
103	434
104	956
105	1697
106	164
107	324
108	24
113	31
114	28
115	2294
116	740
117	3991
118	393
119	1296
120	117
121	10
126	19
127	164
128	406
129	311
130	70
131	1399
132	6624
133	730
134	37
139	20
141	14
143	8
145	136
147	9999
148	2489
149	130
150	3
169	57
170	4
171	22
182	39
183	390
184	49
185	380
186	29
195	93
196	6
197	92
198	6
199	3
210	19
211	1409
212	136
213	1327
214	121
215	4
226	689
227	63
228	635
229	66
