Mass Spectrum: Androstan-3-ol, (3.beta.,5.alpha.)-, TMS derivative
Formula: C22 H40 O Si
CAS: 18899-44-0
Molecular weight: 348
Origin: Philip J. Marriott, Australian Centre for Research on Separation Science, Melbourne, Australia
m/z	RELATIVE INTENSITY
45	490
46	30
47	280
48	10
51	30
53	440
54	90
55	1591
56	90
57	120
58	40
59	340
60	90
61	520
62	30
63	30
64	10
65	220
66	70
67	1692
68	180
69	360
70	40
71	50
72	60
73	2312
74	360
75	9999
76	731
77	1061
78	150
79	1782
80	280
81	2602
82	210
83	360
84	30
85	70
86	10
87	40
88	20
89	200
90	20
91	1451
92	250
93	1491
94	350
95	2212
96	200
97	240
98	20
99	80
100	10
101	260
102	30
103	170
104	100
105	801
106	250
107	1001
108	711
109	1101
110	170
111	190
112	20
113	60
114	10
115	220
116	80
117	240
118	80
119	360
120	100
121	561
122	130
123	530
124	200
125	60
126	10
127	80
128	50
129	430
130	530
131	731
132	120
133	380
134	110
135	621
136	90
137	180
138	270
139	40
141	50
142	1672
143	330
144	110
145	500
146	100
147	510
148	320
149	601
150	90
151	30
152	20
153	20
154	10
155	951
156	230
157	100
158	40
159	300
160	60
161	761
162	320
163	360
164	50
165	30
166	10
167	30
168	10
169	30
170	10
171	20
172	10
173	100
174	30
175	410
176	110
177	50
178	10
179	10
181	20
182	30
183	40
184	10
185	20
186	10
187	140
188	90
189	160
190	50
191	30
193	10
195	10
196	10
197	10
199	10
200	10
201	280
202	130
203	280
204	90
205	10
209	10
213	10
215	70
216	40
217	70
218	200
219	350
220	60
221	10
229	90
230	40
231	20
232	10
237	10
241	10
243	340
244	110
245	20
251	10
257	561
258	1211
259	290
260	40
291	30
292	10
332	10
333	1151
334	540
335	140
336	20
347	20
348	190
349	50
350	10
