Mass Spectrum: Dibenzo(a,i)pyrene
Formula: C24 H14
CAS: 189-55-9
Molecular weight: 302
Origin: NIST Mass Spectrometry Data Center, 1998.
m/z	RELATIVE INTENSITY
51	20
63	30
75	20
86	30
87	20
99	80
100	50
111	60
112	50
113	40
123	70
124	190
125	230
126	40
130	30
131	40
136	330
137	590
138	510
143	20
146	10
147	30
148	230
149	600
150	940
151	1880
174	20
198	20
211	10
222	50
224	50
225	20
234	10
237	30
246	50
247	50
248	130
250	90
259	40
260	30
261	90
262	30
263	30
271	20
272	130
273	70
274	320
275	140
276	160
277	40
295	40
296	160
297	80
298	580
299	260
300	1880
301	620
302	9999
303	2490
304	370
305	30
