Mass Spectrum: Heptane, 3-(bromomethyl)-
Formula: C8 H17 Br
CAS: 18908-66-2
Molecular weight: 192
Origin: Chuck Anderson, Aldrich Chemical Co.
m/z	RELATIVE INTENSITY
14	3
15	35
25	4
26	101
27	1845
28	394
29	2777
30	61
36	4
37	16
38	73
39	1815
40	270
41	5316
42	783
43	4086
45	5
46	3
49	3
50	65
51	173
52	80
53	654
54	230
55	5713
56	1557
57	9999
58	384
59	7
62	6
63	16
64	3
65	62
66	21
67	163
68	47
69	624
70	763
71	5197
72	42
74	3
77	41
78	9
79	53
80	10
81	48
82	36
83	2122
84	228
85	55
86	3
91	8
92	2
93	92
94	4
95	92
96	3
97	28
98	307
99	275
100	20
105	9
106	14
107	173
108	14
109	171
110	4
111	13
112	20
113	833
114	67
115	2
117	3
119	32
120	6
121	166
122	10
123	141
124	4
133	5
134	13
135	319
136	24
137	305
138	12
163	389
164	24
165	369
166	23
192	39
193	3
194	40
195	3
