Mass Spectrum: [1,2]Azaborino[1,2-a][1,2]azaborine, octahydro-
Formula: C8 H16 B N
CAS: 18903-54-3
Molecular weight: 137
m/z	RELATIVE INTENSITY
37	1501
38	1001
39	6506
40	2002
41	2803
42	1001
50	801
51	1802
52	2102
53	6506
54	7407
65	1001
66	2102
67	1401
68	801
78	500
79	1001
80	2803
81	2602
94	3003
95	1301
96	4004
108	1601
109	3103
135	2002
136	9999
137	5305
