Mass Spectrum: Pregnenolone, TMS derivative
Formula: C24 H40 O2 Si
CAS: 18919-58-9
Molecular weight: 388
Origin: NIST Mass Spectrometry Data Center
m/z	RELATIVE INTENSITY
15	10
27	40
29	90
31	10
39	70
40	20
41	410
43	3723
44	130
45	350
46	20
47	130
48	10
50	10
51	20
52	10
53	180
54	30
55	641
56	30
57	60
58	50
59	210
60	40
61	170
62	10
63	20
65	130
66	40
67	661
68	70
69	270
70	30
71	480
72	90
73	3894
74	370
75	2392
76	180
77	571
78	120
79	1041
80	130
81	881
82	80
83	180
84	210
85	1992
86	120
87	30
88	10
89	90
91	1521
92	280
93	1181
94	240
95	1111
96	90
97	100
98	20
99	100
100	10
101	240
102	40
103	210
104	120
105	1581
106	340
107	1281
108	250
109	611
110	110
111	100
112	10
113	120
114	20
115	400
116	230
117	1001
118	260
119	1401
120	601
121	1391
122	220
123	230
124	50
125	100
126	20
127	100
128	280
129	9999
130	1521
131	1341
132	330
133	851
134	200
135	440
136	90
137	240
138	40
139	50
140	10
141	200
142	180
143	961
144	270
145	1501
146	320
147	651
148	170
149	210
150	40
151	130
152	40
153	60
154	50
155	360
156	140
157	490
158	230
159	1061
160	350
161	581
162	100
163	180
164	30
165	90
166	30
167	60
168	50
169	230
170	80
171	500
172	140
173	400
174	100
175	170
176	50
177	180
178	40
179	50
180	20
181	120
182	60
183	180
184	50
185	380
186	110
187	260
188	70
189	591
190	100
191	40
192	10
193	30
194	20
195	100
196	50
197	140
198	50
199	210
200	60
201	140
202	30
203	40
204	40
205	70
206	20
207	10
208	10
209	110
210	30
211	90
212	40
213	430
214	100
215	210
216	50
217	160
218	30
219	20
220	10
221	10
222	10
223	40
224	20
225	80
226	30
227	90
228	70
229	50
230	20
231	60
232	20
233	10
235	10
236	10
237	30
238	10
239	90
240	50
241	1001
242	220
243	60
244	30
245	10
247	10
249	10
251	20
252	10
253	50
254	30
255	250
256	110
257	120
258	480
259	711
260	130
261	20
265	140
266	30
267	10
269	50
270	80
271	20
272	20
273	10
279	10
280	30
281	40
283	731
284	160
285	20
287	10
289	10
290	10
298	1601
299	370
300	50
301	10
303	10
306	10
315	10
316	10
318	10
319	10
329	10
330	10
331	40
332	971
333	270
334	70
335	10
344	10
345	10
346	20
355	10
359	20
360	20
371	10
373	390
374	120
375	30
376	10
386	20
388	1271
389	400
390	110
391	20
