Mass Spectrum: Galactitol, 6TMS derivative
Formula: C24 H62 O6 Si6
CAS: 18919-39-6
Molecular weight: 614
Origin: S. MARKEY UNIV. OF COLO. MED. CTR., DENVER, COLORADO, USA
m/z	RELATIVE INTENSITY
40	440
41	100
43	10
44	30
45	300
47	10
49	10
51	20
52	100
55	10
59	190
61	10
69	80
72	110
73	9999
74	740
75	700
77	70
79	150
89	140
101	180
103	3470
104	350
105	200
113	20
116	40
117	950
118	80
119	70
129	490
130	20
131	200
133	530
134	70
135	20
143	120
145	10
147	3290
148	470
149	360
150	20
153	420
154	180
155	60
157	220
158	10
159	20
161	70
163	50
169	20
175	140
177	70
183	60
189	640
190	130
191	830
192	130
193	30
203	90
204	950
205	4440
206	880
207	450
208	50
215	30
217	6160
218	1260
219	500
220	70
221	180
222	30
229	210
230	80
231	560
232	120
233	40
243	30
255	120
259	170
260	10
265	10
277	310
278	130
279	40
291	230
292	70
293	10
305	340
306	330
307	4780
308	1470
309	690
310	110
318	40
319	4620
320	1380
321	620
322	130
331	450
332	110
333	90
345	430
346	130
347	40
409	100
410	40
419	300
420	100
421	640
422	210
423	120
524	110
525	40
526	10
