Mass Spectrum: 1,3-Propanediamine, N'-(ethylcarbonimidoyl)-N,N-dimethyl-
Formula: C8 H17 N3
CAS: 1892-57-5
Molecular weight: 155
Origin: NIST Mass Spectrometry Data Center, 1994
m/z	RELATIVE INTENSITY
15	335
16	13
26	109
27	570
28	353
29	701
30	634
31	5
32	17
38	18
39	217
40	164
41	597
42	2072
43	597
44	721
45	220
46	22
51	12
52	32
53	117
54	222
55	1425
56	553
57	12
58	9999
59	405
66	19
67	55
68	153
69	214
70	959
71	356
72	156
73	42
81	108
82	163
83	514
84	1770
85	347
86	112
87	60
95	40
97	234
98	49
99	55
100	35
109	136
110	422
111	1324
112	2657
113	201
125	12
126	114
127	61
140	57
155	14
