Mass Spectrum: Benzeneacetic acid, 3-methoxy-, methyl ester
Formula: C10 H12 O3
CAS: 18927-05-4
Molecular weight: 180
m/z	RELATIVE INTENSITY
27	30
28	100
29	571
30	140
31	140
37	70
38	320
39	931
40	170
41	290
42	70
43	190
44	330
45	90
46	20
47	20
48	20
49	30
50	460
51	1171
52	671
53	190
54	30
55	40
56	40
57	30
58	20
59	711
60	60
61	80
62	230
63	581
64	210
65	601
66	100
67	60
68	30
69	60
70	30
71	50
73	30
74	80
75	70
76	130
77	881
78	1732
79	200
80	20
81	40
82	20
83	40
84	20
85	40
86	30
87	30
88	20
89	410
90	320
91	2202
92	220
93	70
94	30
95	50
96	20
97	30
103	20
104	20
105	250
106	240
107	80
108	50
109	80
111	20
117	20
118	20
119	60
120	80
121	9999
122	921
123	90
133	20
135	120
136	40
137	40
138	20
148	170
149	140
150	20
151	30
152	20
165	40
179	30
180	5255
181	500
182	60
