Mass Spectrum: 3-Aminophenanthrene
Formula: C14 H11 N
CAS: 1892-54-2
Molecular weight: 193
Origin: Organic Synthesis Lab, MSU, Moscow.TRC 276
m/z	RELATIVE INTENSITY
26	10
27	60
29	20
37	10
38	30
39	120
40	20
41	30
42	20
43	80
44	10
50	100
51	120
52	40
53	10
54	10
55	20
56	20
57	30
58	10
61	20
62	120
63	230
64	40
65	40
66	10
67	10
68	10
69	70
70	60
71	10
73	10
74	130
75	130
76	50
77	50
78	10
81	100
82	320
83	110
84	70
85	20
86	90
87	120
88	80
89	80
90	10
91	10
95	20
96	130
97	190
98	60
99	50
100	20
101	20
102	20
105	10
110	30
111	40
112	10
113	60
114	20
115	120
116	20
122	10
123	10
124	10
125	10
126	50
127	30
128	20
137	50
138	40
139	300
140	70
141	30
149	10
150	80
151	80
152	80
153	40
154	10
161	20
162	50
163	500
164	400
165	2432
166	460
167	100
168	10
174	40
175	60
176	230
177	80
178	50
188	30
189	20
190	300
191	581
192	731
193	9999
194	1782
195	120
