Mass Spectrum: Benzeneacetamide, N,N-dimethyl-
Formula: C10 H13 N O
CAS: 18925-69-4
Molecular weight: 163
Origin: Zaikin V.G., TIPS RAS, Moscow, Russia
m/z	RELATIVE INTENSITY
39	150
41	50
42	150
43	40
44	240
45	40
50	30
51	90
52	20
56	50
58	20
62	30
63	130
64	40
65	440
66	20
72	9999
73	310
74	20
77	20
80	20
81	100
89	210
90	320
91	1331
92	120
106	30
118	310
119	30
162	40
163	1992
164	200
