Mass Spectrum: Pipamperone
Formula: C21 H30 F N3 O2
CAS: 1893-33-0
Molecular weight: 375
Origin: R.E.Ardrey ET AL.Pharmaceutical Mass Spectra,L.,1985
m/z	RELATIVE INTENSITY
27	601
29	500
30	801
39	400
40	300
41	2502
42	3303
43	601
44	801
50	100
51	200
52	100
53	500
54	1101
55	2002
56	1702
57	701
58	200
62	300
65	100
66	100
67	500
68	500
69	701
70	1101
71	300
72	100
75	300
79	100
80	400
81	500
82	1001
83	300
84	1601
85	200
86	200
90	300
93	100
94	400
95	1802
96	1101
97	200
98	2202
99	200
106	100
107	200
108	601
109	500
110	5305
111	601
112	100
114	100
121	100
122	500
123	5705
124	701
125	601
126	100
134	200
135	300
136	400
137	300
138	7707
139	1201
140	200
141	400
147	100
148	200
149	100
150	200
151	300
152	200
154	400
155	200
163	200
165	9999
166	1001
167	200
175	300
176	200
179	200
193	300
194	3803
195	500
206	701
207	200
208	1101
209	200
220	901
221	200
246	1201
247	300
248	300
288	100
290	1101
291	300
292	1201
293	300
331	7407
332	1501
333	300
