Mass Spectrum: Methyl 3-isothiocyanatopropionate
Formula: C5 H7 N O2 S
CAS: 18967-35-6
Molecular weight: 145
Origin: NIST Mass Spectrometry Data Center, 1994
m/z	RELATIVE INTENSITY
12	43
13	68
15	1275
16	65
25	104
26	1188
27	3854
28	978
29	1421
30	309
31	449
32	129
33	113
34	55
38	123
39	213
40	369
41	382
42	872
43	380
44	554
45	2089
46	230
47	122
51	146
52	239
53	141
54	504
55	1632
56	289
57	426
58	1383
59	4786
60	1775
61	145
62	77
68	26
70	355
72	9999
73	493
74	609
75	76
76	45
82	298
83	91
85	7443
86	2016
87	672
88	404
90	24
102	102
112	125
114	2580
115	357
116	165
117	729
118	47
119	40
145	6058
146	433
147	316
