Mass Spectrum: 2,4-Dichlorobenzyl isothiocyanate
Formula: C8 H5 Cl2 N S
CAS: 18967-41-4
Molecular weight: 217
Origin: NIST Mass Spectrometry Data Center, 1994
m/z	RELATIVE INTENSITY
26	106
27	136
28	347
32	411
35	99
36	118
37	425
38	513
39	814
40	99
43	157
44	456
45	472
46	59
47	151
48	64
49	392
50	894
51	507
52	69
58	595
59	265
60	242
61	675
62	1246
63	1954
64	218
69	103
70	255
71	231
72	568
73	1363
74	947
75	1000
76	165
77	136
78	40
79	59
81	33
83	111
84	272
85	438
86	528
87	606
88	357
89	2086
90	452
91	182
93	53
95	42
96	120
97	462
98	121
99	550
100	169
101	134
102	125
103	49
107	108
109	276
110	102
111	179
112	44
113	46
114	177
115	43
119	101
120	82
121	61
122	43
123	1999
124	728
125	674
126	258
133	361
135	279
136	78
137	156
138	54
139	37
145	33
146	67
147	32
148	41
149	37
150	286
151	50
152	115
153	61
154	64
155	120
156	41
157	103
158	32
159	9999
160	896
161	6271
162	558
163	1037
164	88
171	27
182	36
185	89
187	60
189	117
191	77
217	1190
218	155
219	808
220	113
221	136
