Mass Spectrum: Bicyclo[4.1.0]heptane, 3,7,7-trimethyl-, (1.alpha.,3.alpha.,6.alpha.)-
Formula: C10 H18
CAS: 18968-23-5
Molecular weight: 138
Origin: G.VON BUNAU MAX-PLANCK-INST., MULHEIM-RHUR, GERMANY, FRG
m/z	RELATIVE INTENSITY
15	147
27	1814
28	245
29	1348
39	2353
40	441
41	4730
42	441
43	1054
50	172
51	466
52	245
53	1544
54	637
55	3554
56	441
57	539
63	147
65	539
66	343
67	5123
68	1618
69	2059
70	343
77	931
78	221
79	1446
80	637
81	7328
82	3015
83	735
91	539
92	221
93	931
94	931
95	9999
96	1887
97	245
105	123
107	319
108	123
109	833
110	221
121	343
123	2819
124	392
136	270
138	3946
139	490
