Mass Spectrum: Phenol, 4-propoxy-
Formula: C9 H12 O2
CAS: 18979-50-5
Molecular weight: 152
Origin: Japan AIST/NIMC Database- Spectrum MS-IW- 933
m/z	RELATIVE INTENSITY
15	10
26	40
27	329
28	50
29	30
31	10
38	30
39	299
40	20
41	309
42	30
43	339
50	20
51	40
52	30
53	199
54	169
55	189
56	10
62	20
63	60
64	60
65	179
66	20
67	10
69	30
77	10
81	399
82	439
83	20
92	10
93	80
94	20
95	30
107	10
109	359
110	9999
111	679
112	60
123	50
124	10
151	10
152	3119
153	309
154	20
