Mass Spectrum: Phenol, 3-butoxy-
Formula: C10 H14 O2
CAS: 18979-72-1
Molecular weight: 166
Origin: Japan AIST/NIMC Database- Spectrum MS-NW-3622
m/z	RELATIVE INTENSITY
15	30
18	10
26	60
27	529
28	80
29	1179
30	30
31	10
37	20
38	80
39	599
40	70
41	829
42	50
43	80
50	60
51	99
52	90
53	279
54	99
55	179
56	60
57	399
58	20
61	10
62	40
63	159
64	149
65	389
66	50
67	50
68	80
69	189
70	10
71	30
74	10
75	10
77	40
78	10
79	30
80	10
81	459
82	559
83	30
91	20
92	60
93	259
94	70
95	70
97	10
107	30
108	10
109	50
110	9999
111	779
112	70
121	10
122	10
123	519
124	80
135	10
136	10
137	40
149	10
165	10
166	2189
167	259
168	20
