Mass Spectrum: Tetrachloroisophthalonitrile
Formula: C8 Cl4 N2
CAS: 1897-45-6
Molecular weight: 264
Origin: Japan AIST/NIMC Database- Spectrum MS-NW-3880
m/z	RELATIVE INTENSITY
12	50
24	20
26	20
28	50
35	159
37	40
47	399
48	99
49	139
50	50
59	20
60	219
61	20
62	499
63	30
66	40
67	10
71	249
72	119
73	99
74	379
75	30
76	10
79	10
82	30
83	90
84	99
85	209
86	309
87	50
88	90
89	20
90	10
94	329
95	90
96	209
97	299
98	599
99	119
100	109
101	139
102	139
103	50
106	169
107	80
108	139
109	1569
110	139
111	519
112	119
113	10
114	50
115	40
116	10
117	20
118	219
119	30
120	189
121	119
122	50
123	60
124	1149
125	149
129	20
130	20
131	20
132	449
133	859
134	319
135	239
136	40
141	50
142	40
143	50
144	239
145	50
146	149
147	70
148	20
149	20
153	80
155	80
156	50
157	30
158	30
159	299
160	40
161	109
162	10
168	769
169	60
170	539
171	50
172	109
173	10
177	40
179	169
180	20
181	139
182	20
183	50
188	40
190	50
192	20
194	759
195	90
196	539
197	60
198	109
199	10
203	219
204	20
205	209
206	20
207	70
209	10
214	10
217	30
219	40
221	10
229	1099
230	169
231	1109
232	169
233	369
234	50
235	40
238	20
240	20
242	10
255	10
257	10
264	8149
265	739
266	9999
267	989
268	4859
269	459
270	1069
271	99
272	90
273	80
