Mass Spectrum: Benzonitrile, 2,6-difluoro-
Formula: C7 H3 F2 N
CAS: 1897-52-5
Molecular weight: 139
Origin: RADIAN CORP
m/z	RELATIVE INTENSITY
25	30
26	150
27	30
31	1270
33	50
36	80
37	390
38	330
39	190
40	10
43	10
44	170
45	90
46	20
48	60
49	110
50	560
51	370
52	60
55	90
56	350
57	610
58	40
60	100
61	580
62	630
63	550
64	340
65	10
67	30
68	700
69	490
70	290
71	30
72	30
73	130
74	330
75	890
76	190
77	10
79	60
80	110
81	380
82	300
83	20
85	20
86	160
87	300
88	1380
89	500
90	30
91	10
92	180
93	290
94	550
95	150
98	30
99	300
100	270
101	20
105	20
106	150
107	20
108	200
109	10
110	10
111	80
112	2020
113	460
114	20
117	30
118	70
119	350
120	110
121	10
137	10
139	9999
140	920
141	30
