Mass Spectrum: 1,3-Benzenediol, 4-propyl-
Formula: C9 H12 O2
CAS: 18979-60-7
Molecular weight: 152
Origin: NIST Mass Spectrometry Data Center, 1990.
m/z	RELATIVE INTENSITY
26	60
27	308
28	231
29	212
38	82
39	432
40	116
41	355
42	87
43	217
50	196
51	472
52	172
53	435
54	99
55	562
62	109
63	239
64	86
65	530
66	336
67	912
68	107
69	532
74	66
75	61
77	800
78	160
79	238
80	61
81	270
82	77
89	69
91	101
93	62
94	210
95	702
96	59
103	70
105	79
107	126
110	102
121	104
123	9999
124	762
125	78
152	1999
153	189
