Mass Spectrum: 4,4'-Diisopropylbiphenyl
Formula: C18 H22
CAS: 18970-30-4
Molecular weight: 238
Origin: NIST Mass Spectrometry Data Center, 1994
m/z	RELATIVE INTENSITY
15	369
27	2460
28	68
37	20
39	776
41	1683
42	195
43	3093
44	120
50	117
51	422
52	90
53	163
55	31
62	67
63	293
64	70
65	194
69	47
75	201
76	381
77	884
78	281
79	109
82	134
86	33
87	64
88	142
89	492
90	201
91	380
92	35
95	131
96	243
97	297
99	26
100	44
101	168
102	307
103	613
104	1619
110	25
112	130
113	40
115	615
116	109
117	69
119	114
125	25
126	113
127	214
128	313
129	113
130	20
139	239
140	41
141	222
142	47
150	115
151	297
152	811
153	492
154	148
155	151
156	25
163	115
165	2241
166	1585
167	991
168	117
176	231
178	1493
179	1453
180	484
181	1461
182	234
183	24
187	22
189	246
190	150
191	511
192	325
193	448
194	171
195	410
196	85
201	24
202	116
203	94
204	54
205	81
206	24
207	473
208	389
209	204
210	33
221	92
223	9999
224	1947
225	177
238	3720
239	768
240	80
