Mass Spectrum: 4-Fluoro-2-(trifluoromethyl)benzoyl chloride
Formula: C8 H3 Cl F4 O
CAS: 189807-21-4
Molecular weight: 226
Origin: NIST Mass Spectrometry Data Center, 1994
m/z	RELATIVE INTENSITY
18	26
35	175
37	313
38	148
49	84
50	573
51	204
56	151
57	209
61	200
62	534
63	616
68	424
69	748
72	91
73	148
74	306
75	696
81	116
82	101
86	243
87	100
92	230
93	572
94	563
96	129
99	303
112	207
113	956
114	84
125	215
143	933
144	318
161	90
163	6483
164	437
179	141
191	9999
192	890
207	410
209	127
