Mass Spectrum: Bromoacetic acid, heptyl ester
Formula: C9 H17 Br O2
CAS: 18991-99-6
Molecular weight: 236
Origin: V.Zaikin,Topchiev Inst.Petrochem.Synth.,Moscow
m/z	RELATIVE INTENSITY
27	2292
28	721
29	3263
30	190
31	220
36	60
37	30
38	160
39	2402
40	581
41	7557
42	7216
43	6286
44	641
45	140
48	40
49	40
50	260
51	230
52	70
53	651
54	901
55	7216
56	9438
57	6136
58	200
59	30
60	90
61	20
63	40
65	100
66	20
67	270
68	1311
69	5445
70	9999
71	801
72	70
73	130
77	60
79	80
81	210
82	130
83	1101
84	170
85	160
86	50
87	70
88	130
91	50
92	80
93	1561
94	110
95	1651
96	80
97	901
98	4664
99	310
101	60
109	30
111	50
113	90
115	130
120	100
121	2702
122	210
123	2602
124	70
131	30
138	50
139	981
140	70
141	841
143	200
144	40
151	150
153	150
157	60
165	40
167	40
179	90
181	90
