Mass Spectrum: Bromoacetic acid, tetradecyl ester
Formula: C16 H31 Br O2
CAS: 18992-01-3
Molecular weight: 334
Origin: V.Zaikin,Topchiev Inst.Petrochem.Synth.,Moscow
m/z	RELATIVE INTENSITY
27	1481
28	520
29	3143
30	160
31	130
36	110
37	30
38	250
39	1972
40	240
41	8658
42	4304
43	9999
44	821
45	290
50	80
51	270
52	130
53	981
54	1682
55	9178
56	4454
57	6856
58	280
59	50
60	160
61	480
62	30
63	30
65	160
66	140
67	1922
68	2742
69	6966
70	4034
71	2993
72	180
73	200
75	60
76	30
77	120
78	50
79	130
80	60
81	841
82	3023
83	6996
84	2923
85	1461
86	130
87	70
88	20
90	20
91	120
93	701
94	40
95	1291
96	1401
97	5135
98	1621
99	130
101	30
104	20
105	20
109	300
110	591
111	2582
112	1081
113	210
114	40
115	70
117	20
120	50
121	2432
122	230
123	2232
124	500
125	1041
126	420
127	100
133	20
137	100
138	340
139	731
140	310
141	641
143	50
148	60
149	20
150	80
151	140
152	120
153	280
154	100
162	20
164	40
166	150
167	70
168	681
169	110
179	30
186	40
194	150
195	150
196	350
197	110
241	130
