Mass Spectrum: 2-Heptenoic acid
Formula: C7 H12 O2
CAS: 18999-28-5
Molecular weight: 128
Origin: Japan AIST/NIMC Database- Spectrum MS-NW-4622
m/z	RELATIVE INTENSITY
14	30
15	189
16	20
17	80
18	339
19	10
25	20
26	429
27	4889
28	139
29	2279
30	80
31	289
33	10
34	10
36	30
37	149
38	439
39	3859
40	959
41	9999
42	2099
43	5069
44	259
45	1099
46	40
47	40
49	60
50	319
51	519
52	279
53	1919
54	629
55	2839
56	9059
57	1299
58	319
59	99
60	999
61	129
62	60
63	99
64	20
65	199
66	119
67	1189
68	5009
69	2779
70	189
71	819
72	209
73	9969
74	569
75	70
76	10
77	159
78	60
79	249
80	60
81	1519
82	1159
83	399
84	109
85	289
86	3219
87	1929
88	90
89	20
90	10
91	179
92	99
93	30
94	20
95	269
96	20
97	189
98	40
99	4679
100	489
101	50
102	10
105	20
106	10
107	50
108	60
109	70
110	1659
111	429
112	40
113	329
114	30
115	20
124	10
125	40
126	20
127	40
128	469
129	60
