Mass Spectrum: Ovalene
Formula: C32 H14
CAS: 190-26-1
Molecular weight: 398
Origin: M M BURSEY
m/z	RELATIVE INTENSITY
45	400
55	700
56	400
57	900
70	700
72	500
81	400
83	500
95	500
185	400
186	400
187	700
196	500
197	400
198	1100
199	4900
200	400
375	1300
376	400
394	700
395	500
396	1800
397	1100
398	9999
399	3900
400	800
