Mass Spectrum: Cyclohexanol, 4-(1,1-dimethylethyl)-, acetate, trans-
Formula: C12 H22 O2
CAS: 1900-69-2
Molecular weight: 198
Origin: W.Jennings, T.Shibamoto
m/z	RELATIVE INTENSITY
29	190
41	751
43	1752
54	420
55	751
56	2052
57	9999
58	420
61	1722
67	2752
68	80
69	320
70	80
79	70
80	2923
81	2312
82	4754
83	1341
84	70
95	320
96	190
99	70
110	80
123	1461
124	80
138	581
141	80
142	80
143	80
