Mass Spectrum: Undecyl isothiocyanate
Formula: C12 H23 N S
CAS: 19010-96-9
Molecular weight: 213
Origin: NIST Mass Spectrometry Data Center, 1994
m/z	RELATIVE INTENSITY
15	107
27	2852
28	1035
29	4683
30	462
32	208
39	2146
41	9999
42	1879
43	7302
44	478
45	314
46	51
47	34
51	95
52	89
53	657
54	753
55	6624
56	1775
57	3110
58	345
59	364
60	401
62	85
65	118
66	64
67	757
68	552
69	2450
70	1101
71	792
72	3153
73	264
74	394
75	237
76	62
77	89
79	180
80	71
81	362
82	777
83	761
84	443
85	339
86	328
87	117
88	76
89	45
91	44
93	161
94	82
95	220
96	1541
97	490
98	251
99	44
100	795
101	1204
102	126
103	89
107	111
108	86
109	95
110	584
111	124
112	166
113	86
114	1303
115	7462
116	583
117	349
121	82
122	66
123	80
124	263
126	48
128	930
129	883
130	144
136	34
138	136
142	219
152	137
156	108
170	71
178	35
180	5480
181	771
182	43
184	37
212	123
213	34
