Mass Spectrum: 3-Buten-2-one, 3-methyl-4-phenyl-
Formula: C11 H12 O
CAS: 1901-26-4
Molecular weight: 160
m/z	RELATIVE INTENSITY
14	80
15	230
18	100
26	30
27	270
29	80
36	20
37	30
38	130
39	1221
40	60
41	170
42	40
43	3593
44	90
45	110
50	450
51	1191
52	270
53	200
54	60
55	60
57	110
58	160
59	20
61	80
62	290
63	861
64	210
65	891
66	90
67	30
69	40
70	30
71	20
73	30
74	220
75	250
76	240
77	621
78	280
79	100
80	300
81	90
82	40
83	20
85	30
86	90
87	120
88	80
89	651
90	100
91	2722
92	240
93	30
97	40
98	30
101	50
102	340
103	260
104	40
105	50
113	70
114	90
115	6746
116	2092
117	9999
118	1041
119	50
126	20
127	150
128	210
129	100
131	450
132	70
137	611
138	170
139	40
141	150
142	80
143	190
144	100
145	4664
146	510
147	40
157	30
158	40
159	9378
160	9649
161	1151
162	90
