Mass Spectrum: 2-Propanone, 2-propenylhydrazone
Formula: C6 H12 N2
CAS: 19031-79-9
Molecular weight: 112
Origin: ATLAS OF MASS SPECTRA OF ORGANIC COMPOUNDS, V. A. KOPTYUG, ED.
m/z	RELATIVE INTENSITY
27	2270
28	6000
29	2000
30	5340
31	530
39	3600
40	870
41	5070
42	4600
43	1200
44	870
54	1140
55	1340
56	9999
57	1140
58	600
68	670
69	800
70	1340
71	8670
72	670
80	170
81	150
82	190
83	3740
84	670
85	3070
96	250
97	1340
111	1070
112	8000
113	930
