Mass Spectrum: 1,6-Octadiene, (E)-
Formula: C8 H14
CAS: 19036-81-8
Molecular weight: 110
Origin: D.HENNEBERG, MAX-PLANCK INSTITUTE, MULHEIM, WEST GERMANY
m/z	RELATIVE INTENSITY
23	16
26	238
27	3411
29	3633
30	19
33	30
37	396
38	182
39	4515
40	496
41	9999
42	644
43	92
47	21
48	27
49	34
50	245
51	310
52	86
53	1697
54	4836
55	6269
56	328
58	14
59	12
61	27
62	45
63	90
64	30
65	229
66	478
67	4214
68	8161
69	1760
70	54
73	23
74	30
75	37
77	248
78	111
79	543
80	144
81	3442
82	817
91	57
92	1
93	88
95	681
96	25
105	88
109	45
110	292
111	12
