Mass Spectrum: Cyclopentene, 4,4-dimethyl-
Formula: C7 H12
CAS: 19037-72-0
Molecular weight: 96
Origin: T.A.ELWOOD INDIANA UNIV., INDIANAPOLIS, INDIANA, USA
m/z	RELATIVE INTENSITY
15	200
26	200
27	1900
28	400
29	700
32	100
37	100
38	300
39	2700
40	400
41	2400
42	200
43	200
50	400
51	700
52	300
53	1900
54	800
55	1000
56	200
62	100
63	200
65	400
66	300
67	900
68	400
69	100
70	100
71	100
77	700
78	200
79	1700
80	300
81	9999
82	700
91	100
93	100
95	400
96	2500
97	200
