Mass Spectrum: Carbamodithioic acid, dipropyl-, propyl ester
Formula: C10 H21 N S2
CAS: 19047-79-1
Molecular weight: 219
Origin: F.I.ONUSKA CANADA CENTRE FOR INLAND WATERS, ONTARIO, CANADA
m/z	RELATIVE INTENSITY
41	150
42	3220
43	780
44	9999
55	100
56	70
57	170
59	1140
60	150
61	1980
69	100
71	460
72	80
73	490
76	440
88	60
102	120
103	2730
105	240
117	190
145	3780
146	400
147	230
177	760
178	1530
179	240
180	170
219	940
220	480
221	170
