Mass Spectrum: Beryllium acetate, basic
Formula: C12 H18 Be4 O13
CAS: 19049-40-2
Molecular weight: 406
Origin: ORMSBG, 13(9)491(1978); V. A. SIPACHEV ET AL
m/z	RELATIVE INTENSITY
76	33
93	84
101	252
118	84
136	84
143	420
161	588
178	420
203	1344
220	8403
245	1680
347	9999
