Mass Spectrum: Carbamodithioic acid, dibutyl-, propyl ester
Formula: C12 H25 N S2
CAS: 19047-84-8
Molecular weight: 247
Origin: F.I.ONUSKA CANADA CENTRE FOR INLAND WATERS, ONTARIO, CANADA
m/z	RELATIVE INTENSITY
29	3180
30	1170
39	1170
41	5410
42	1200
43	5110
44	900
55	2130
60	2580
72	1110
102	1020
116	4750
144	123
149	210
172	9999
173	1200
177	510
204	2010
205	3450
206	630
207	390
219	45
220	12
247	3000
248	720
249	390
