Mass Spectrum: 2,6-Diaminopurine
Formula: C5 H6 N6
CAS: 1904-98-9
Molecular weight: 150
Origin: Leung Pu, NIH, Bethesda, Maryland, U.S.
m/z	RELATIVE INTENSITY
42	311
43	1046
44	53
49	45
53	460
54	294
55	102
65	26
66	109
67	73
68	321
69	167
75	136
77	21
78	21
79	21
80	120
81	236
82	43
84	46
92	93
95	118
96	109
105	81
106	172
107	183
108	1195
109	541
122	355
123	116
133	789
134	273
149	135
150	9999
151	829
