Mass Spectrum: Carbamodithioic acid, diethyl-, propyl ester
Formula: C8 H17 N S2
CAS: 19047-77-9
Molecular weight: 191
Origin: F.I.ONUSKA CANADA CENTRE FOR INLAND WATERS, ONTARIO, CANADA
m/z	RELATIVE INTENSITY
27	3800
29	3760
41	120
42	1100
43	2220
44	3690
56	1280
57	180
58	330
59	1100
60	6200
61	690
72	2630
73	220
76	370
88	6240
90	400
91	190
116	9999
117	840
119	260
120	180
148	660
149	3400
150	400
191	2740
192	1100
193	400
