Mass Spectrum: 2,6-Difluorobenzyl alcohol
Formula: C7 H6 F2 O
CAS: 19064-18-7
Molecular weight: 144
Origin: K. Kirk, LC, NIDDK, NIH, Bethesda, MD 20892
m/z	RELATIVE INTENSITY
42	153
43	1015
44	120
45	189
46	32
47	60
48	44
49	230
50	1071
51	1059
52	113
53	79
54	18
55	101
56	293
57	1174
58	59
59	37
60	33
61	433
62	658
63	2176
64	196
65	72
66	39
67	31
68	590
69	653
70	520
71	326
72	16
73	220
74	794
75	3282
76	413
77	936
78	94
79	115
80	162
81	746
82	110
83	240
84	52
85	130
86	126
87	184
88	347
89	90
90	17
91	104
92	180
93	417
94	851
95	4878
96	2176
97	1439
98	110
99	164
100	79
101	1071
102	66
103	91
104	39
105	500
106	85
107	872
108	120
109	303
110	70
111	45
112	127
113	838
114	1187
115	3704
116	478
117	33
119	6
121	36
122	54
123	8137
124	2301
125	1304
126	1331
127	8960
128	711
129	29
131	6
133	15
135	37
137	2
139	23
140	7
141	924
142	118
143	5978
144	9999
145	891
146	57
