Mass Spectrum: 2,6-Difluorobenzoic acid, ethyl ester
Formula: C9 H8 F2 O2
CAS: 19064-14-3
Molecular weight: 186
Origin: Zaikin V.G., TIPS RAS, Moscow, Russia
m/z	RELATIVE INTENSITY
27	110
28	10
29	170
44	30
45	250
50	40
57	40
62	70
63	591
64	30
68	60
69	40
74	50
75	30
81	40
87	40
93	130
94	110
112	90
113	1221
114	250
127	30
140	30
141	9999
142	791
143	150
158	2202
159	240
167	70
185	30
186	661
187	60
