Mass Spectrum: Pyridazine, 3,6-dichloro-4-methyl-
Formula: C5 H4 Cl2 N2
CAS: 19064-64-3
Molecular weight: 162
Origin: J.H.BOWIE UNIVERSITY OF ADELAIDE, AUSTRALIA
m/z	RELATIVE INTENSITY
37	3000
38	3000
39	7500
40	1100
47	1000
49	1300
50	1000
51	1600
52	900
60	800
61	1500
62	2000
63	4200
64	1500
73	3400
74	700
75	1100
84	800
97	700
99	9999
100	600
101	2700
134	600
136	400
162	2600
164	1800
