Mass Spectrum: 3-Ethyl-5-hexen-3-ol
Formula: C8 H16 O
CAS: 1907-46-6
Molecular weight: 128
Origin: NIST Mass Spectrometry Data Center, 1990.
m/z	RELATIVE INTENSITY
15	195
26	236
27	1920
28	1072
29	3539
30	131
31	681
32	137
39	1685
40	357
41	2991
42	496
43	1596
45	5846
46	142
51	208
53	500
55	753
57	9999
58	404
59	137
65	151
67	369
69	2158
70	176
77	155
79	233
81	389
87	5910
88	373
95	139
99	873
110	149
