Mass Spectrum: Benzenesulfonamide, N-butyl-4-methyl-
Formula: C11 H17 N O2 S
CAS: 1907-65-9
Molecular weight: 227
Origin: Japan AIST/NIMC Database- Spectrum MS-IW-5635
m/z	RELATIVE INTENSITY
27	109
28	70
29	90
30	329
38	10
39	259
40	20
41	229
42	30
43	90
44	10
45	10
50	40
51	99
52	30
53	20
55	30
56	40
57	20
62	30
63	169
64	60
65	1059
66	60
67	20
70	10
71	10
72	129
75	10
76	10
77	90
78	30
79	40
80	10
89	259
90	179
91	6509
92	629
93	30
104	10
105	30
106	80
107	80
108	30
111	10
118	20
119	10
120	50
121	10
123	10
124	10
131	20
132	10
133	30
134	10
139	119
140	10
146	90
147	10
154	10
155	9999
156	879
157	519
158	30
162	10
163	10
171	80
172	639
173	60
174	30
183	10
184	9039
185	929
186	489
187	40
198	20
225	10
226	20
227	2319
228	369
229	139
230	10
