Mass Spectrum: Tricyclo[3.2.1.0(1,5)]octane
Formula: C8 H12
CAS: 19074-25-0
Molecular weight: 108
Origin: R.C. DOUGHERTY
m/z	RELATIVE INTENSITY
26	300
27	851
28	450
29	500
37	150
38	450
39	5405
40	801
41	2803
42	250
49	100
50	701
51	1401
52	901
53	1752
54	851
55	400
62	200
63	400
65	1501
66	901
67	2402
68	500
74	100
75	100
77	6406
78	1101
79	9809
80	2903
81	450
91	4504
92	601
93	9999
94	751
105	400
107	851
108	3904
109	350
