Mass Spectrum: 2,2-Dimethyl-3-heptanone
Formula: C9 H18 O
CAS: 19078-97-8
Molecular weight: 142
Origin: NIST Mass Spectrometry Data Center, 1990.
m/z	RELATIVE INTENSITY
15	115
26	120
27	1063
28	752
29	2009
39	1129
41	3649
42	450
43	455
53	122
55	447
57	9999
58	476
67	83
69	77
71	172
84	910
85	4708
86	272
100	88
142	140
