Mass Spectrum: 4-Chloro-indoleacetic acid methyl ester
Formula: C11 H10 Cl N O2
CAS: 19077-78-2
Molecular weight: 223
Origin: N.W. DAVIES, UNIVERSITY OF TASMANIA, TASMANIA, AUSTRALIA
m/z	RELATIVE INTENSITY
27	570
28	10
29	1010
31	240
39	510
40	140
41	2030
42	300
43	2150
44	170
45	210
50	260
51	450
52	170
53	330
54	370
55	2110
56	290
57	760
58	250
59	570
62	110
63	170
64	210
65	150
66	120
67	1090
68	510
69	910
70	260
71	1160
72	150
73	160
74	670
75	590
76	230
77	410
78	190
79	610
80	300
81	970
82	460
83	960
84	560
85	440
86	100
87	420
89	100
91	350
93	410
94	260
95	810
96	520
97	710
98	470
99	1680
100	990
102	700
103	180
105	190
107	280
108	190
109	390
110	150
111	290
112	180
113	170
114	110
115	140
117	140
119	150
121	340
122	130
123	170
124	110
125	320
126	110
127	270
128	1030
129	630
130	190
131	100
133	130
134	120
135	210
136	170
137	150
138	100
139	400
140	450
141	510
142	100
143	130
145	130
147	110
149	140
151	440
152	100
153	120
155	280
157	100
162	130
164	9999
165	1130
166	3250
167	370
169	250
178	130
180	100
185	170
187	100
190	150
195	190
197	180
223	2350
224	330
225	780
226	110
227	130
