Mass Spectrum: 2-Butenoic acid, hexyl ester
Formula: C10 H18 O2
CAS: 19089-92-0
Molecular weight: 170
m/z	RELATIVE INTENSITY
14	10
15	70
16	10
17	30
18	160
26	40
27	591
28	260
29	751
30	30
31	170
32	10
37	20
38	60
39	1121
40	240
41	2963
42	1251
43	2652
44	350
45	200
46	10
47	10
50	10
51	30
52	10
53	100
54	130
55	1651
56	2833
57	470
58	60
59	40
60	40
61	90
65	20
66	10
67	100
68	260
69	9999
70	540
71	150
72	30
73	90
74	40
75	30
76	40
77	20
79	20
81	40
82	70
83	320
84	1541
85	470
86	300
87	7887
88	380
89	50
91	10
92	10
93	10
94	10
95	30
96	20
97	80
98	40
99	190
100	40
101	120
102	70
103	40
105	10
107	10
108	10
109	40
110	90
111	30
112	20
113	70
114	20
115	20
117	30
119	10
121	10
123	10
124	20
125	20
126	10
127	100
128	20
129	50
131	30
132	10
137	30
139	30
140	10
141	20
151	20
155	20
160	10
167	10
168	100
169	20
170	170
