Mass Spectrum: 1-Propanol, 2-ethoxy-
Formula: C5 H12 O2
CAS: 19089-47-5
Molecular weight: 104
m/z	RELATIVE INTENSITY
14	40
15	290
16	10
17	80
18	310
19	250
26	120
27	931
28	260
29	1812
30	100
31	4364
32	80
33	180
37	30
38	20
39	190
40	40
41	591
42	340
43	1121
44	250
45	9999
46	260
47	50
53	10
55	40
56	10
57	360
58	450
59	564
60	350
61	1261
62	40
63	10
71	20
72	80
73	1892
74	100
75	290
76	10
77	10
86	20
87	190
88	10
89	210
90	10
101	20
103	50
104	60
105	20
