Mass Spectrum: 2H-Thiopyran-3(4H)-one, dihydro-
Formula: C5 H8 O S
CAS: 19090-03-0
Molecular weight: 116
Origin: CARL DJERASSI DEPT OF CHEM STANFORD UNIV STANFORD CALIF 94305
m/z	RELATIVE INTENSITY
41	1200
42	2900
43	600
45	1600
46	2500
47	1000
48	100
54	300
55	2100
58	100
59	600
60	3800
61	2600
62	200
63	100
68	400
69	300
70	800
73	200
74	100
87	400
88	700
102	200
116	9999
117	600
118	500
