Mass Spectrum: 2-Chloro-5-iodobenzoic acid
Formula: C7 H4 Cl I O2
CAS: 19094-56-5
Molecular weight: 282
Origin: NIST Mass Spectrometry Data Center, 1994
m/z	RELATIVE INTENSITY
17	55
18	50
25	47
26	70
27	66
28	19
29	128
35	86
36	219
37	931
38	679
39	297
45	959
47	69
48	102
49	647
50	2044
51	382
52	69
53	415
60	149
61	370
62	371
63	1340
64	361
65	63
66	89
72	246
73	2190
74	4638
75	5402
76	553
77	142
84	721
85	225
86	267
87	123
89	38
91	712
92	376
97	36
99	2719
100	233
101	990
102	72
103	38
108	144
109	542
110	2278
111	568
112	776
113	135
119	115
120	43
123	38
125	27
127	1508
128	237
129	49
132	283
133	80
137	250
138	231
139	169
140	70
141	178
142	54
152	80
153	26
155	689
156	103
157	245
176	63
191	44
201	48
202	176
219	53
237	974
238	88
239	276
247	237
254	83
265	4323
266	386
267	1323
268	151
282	9999
283	846
284	3330
285	240
