Mass Spectrum: Diacenaphtho[1,2-j:1',2'-l]fluoranthene
Formula: C36 H18
CAS: 191-48-0
Molecular weight: 450
Origin: D.HENNEBERG, MAX-PLANCK INSTITUTE, MULHEIM, WEST GERMANY
m/z	RELATIVE INTENSITY
27	9
28	79
29	3
32	12
33	5
34	17
39	5
41	8
43	11
44	9
51	5
53	3
55	3
56	4
57	7
65	3
71	5
77	6
78	5
79	3
91	21
100	2
102	4
103	5
104	42
105	3
115	7
116	4
117	5
126	3
127	4
128	16
129	4
131	5
132	23
133	3
141	3
150	4
151	11
152	30
153	29
154	28
155	4
166	8
167	3
168	3
218	3
224	171
225	1121
226	77
240	5
287	3
298	4
300	15
301	12
302	25
303	24
304	31
305	6
330	12
331	5
332	80
333	22
334	8
398	3
411	3
415	3
421	7
422	37
423	17
424	17
425	6
429	4
433	6
434	4
435	11
436	4
446	391
447	266
448	2259
449	969
450	9999
451	4034
452	781
453	89
454	10
