Mass Spectrum: 1,2,9,10-Dibenzopyrene
Formula: C24 H14
CAS: 191-30-0
Molecular weight: 302
Origin: NIST Mass Spectrometry Data Center, 1998.
m/z	RELATIVE INTENSITY
17	30
39	30
51	30
75	30
91	60
92	30
98	10
99	190
100	290
110	30
111	120
118	20
122	30
123	180
124	190
125	60
130	90
132	10
136	440
137	650
138	260
139	30
141	30
143	130
146	30
147	30
148	580
149	1740
150	2370
151	1690
185	20
186	10
223	40
224	40
225	20
233	20
234	30
235	20
236	30
237	20
246	70
247	40
248	120
249	30
251	10
258	10
259	70
260	40
261	130
262	50
263	90
264	20
269	10
271	60
272	170
273	110
274	150
275	60
281	20
284	10
285	50
294	70
296	140
297	110
298	620
299	520
300	3900
301	2370
302	9999
303	2460
304	430
305	40
