Mass Spectrum: 4H-1-Benzopyran-4-one, 5-hydroxy-6,7-dimethoxy-2-(4-methoxyphenyl)-
Formula: C18 H16 O6
CAS: 19103-54-9
Molecular weight: 328
Origin: NIST Mass Spectrometry Data Center
m/z	RELATIVE INTENSITY
27	30
29	40
31	20
37	10
38	40
39	120
40	10
41	50
42	40
43	30
49	10
50	120
51	250
52	50
53	701
54	110
55	90
56	20
57	180
58	20
59	380
61	30
62	140
63	490
64	180
65	180
66	280
67	110
68	40
69	2813
70	140
71	40
72	20
73	20
74	100
75	240
76	170
77	631
78	120
79	250
80	320
81	60
82	110
83	120
84	40
85	200
86	60
87	80
88	100
89	831
90	240
91	120
92	280
93	280
94	100
95	130
96	30
97	100
98	50
99	90
100	40
101	190
102	270
103	200
104	60
105	80
106	60
107	230
108	100
109	70
110	100
111	70
112	40
113	160
114	150
115	420
116	140
117	651
118	530
119	180
120	160
121	150
122	60
123	160
124	50
125	621
126	230
127	340
128	170
129	120
130	80
131	80
132	811
133	2412
134	320
135	1251
136	160
137	100
138	60
139	180
140	90
141	140
142	951
144	110
145	300
146	60
147	40
148	40
149	80
150	340
151	90
152	90
153	4014
154	320
155	180
158	90
159	250
160	30
161	40
163	50
164	230
165	70
166	30
167	370
168	120
169	80
170	40
171	90
172	30
173	260
174	40
176	10
177	40
178	30
179	120
180	40
181	1631
182	170
183	210
184	50
185	110
186	40
187	30
193	60
194	20
195	130
196	40
197	60
198	40
199	150
200	40
201	180
202	30
203	20
207	50
209	30
210	20
211	90
212	30
213	60
214	380
215	70
216	10
217	10
223	20
224	80
225	150
226	110
227	60
228	40
236	10
237	50
238	30
239	90
240	40
241	70
242	250
243	80
244	10
248	10
249	10
250	10
251	30
252	250
253	430
254	330
255	130
256	130
257	50
258	10
264	10
265	30
266	30
267	330
268	721
269	470
270	230
271	60
272	10
279	10
280	280
281	831
282	3153
283	661
284	340
285	3203
286	550
287	80
288	10
292	10
293	20
294	10
295	60
296	70
297	1001
298	320
299	2873
300	530
301	70
302	10
309	711
310	300
311	1341
312	320
313	9959
314	1872
315	280
316	30
325	260
326	80
327	2202
328	9999
329	1922
330	300
331	40
