Mass Spectrum: D-Fructose, 5TMS derivative
Formula: C21 H52 O6 Si5
CAS: 19126-98-8
Molecular weight: 540
Origin: NIST Mass Spectrometry Data Center
m/z	RELATIVE INTENSITY
15	10
27	10
29	20
31	10
39	10
41	50
42	10
43	110
44	110
45	641
46	40
47	70
53	40
54	20
55	90
56	10
57	50
58	90
59	360
60	40
61	70
65	10
66	20
67	20
68	20
69	200
70	40
71	50
73	9999
74	1111
75	1241
76	70
77	50
79	10
81	50
82	10
83	30
84	10
85	60
86	10
87	50
88	60
89	180
90	20
91	20
95	10
97	20
98	10
99	80
101	571
102	140
103	2042
104	210
105	140
106	10
107	10
109	30
111	40
112	10
113	90
114	20
115	120
116	310
117	981
118	110
119	140
120	10
121	10
125	30
126	10
127	80
129	1441
130	210
131	520
132	100
133	1241
134	180
135	130
136	10
137	10
139	10
140	20
141	140
142	100
143	611
144	80
145	180
147	5085
148	851
149	701
150	80
151	60
152	10
153	10
154	10
155	110
156	40
157	520
158	90
159	100
160	20
161	80
162	10
163	100
164	20
165	10
166	10
167	10
169	160
170	30
171	70
172	10
173	50
174	10
175	120
176	20
177	110
178	20
179	10
181	10
183	60
184	10
185	50
186	10
187	50
189	831
190	250
191	931
192	170
193	110
194	20
195	10
199	50
200	10
201	60
202	20
203	150
204	6546
205	3223
206	1011
207	370
208	60
209	20
213	10
215	741
217	9839
218	2873
219	1451
220	230
221	350
222	70
223	40
224	10
227	10
229	260
230	490
231	631
232	170
233	130
234	120
235	40
236	10
237	10
239	10
241	10
243	220
244	50
245	140
246	40
247	290
248	70
249	30
250	10
255	40
256	10
257	370
258	90
259	80
260	20
261	10
263	20
264	10
265	180
266	50
267	20
271	140
272	40
273	230
274	50
275	70
276	20
277	190
278	60
279	40
280	40
281	10
288	10
289	30
291	410
292	470
293	470
294	150
295	50
296	10
303	200
304	80
305	651
306	2182
307	941
308	380
309	100
310	20
317	90
318	60
319	1331
320	410
321	350
322	90
323	30
324	10
331	40
332	20
333	50
334	20
335	30
336	10
337	10
345	240
346	80
347	270
348	80
349	90
350	20
351	10
359	10
361	170
362	60
363	110
364	40
365	380
366	120
367	110
368	30
369	10
378	10
379	10
380	10
381	10
393	40
394	10
395	10
405	20
406	10
407	10
408	10
435	210
436	20
437	3783
438	1511
439	831
440	220
441	60
442	10
450	10
525	10
