Mass Spectrum: Anthracene, tetradecahydro-, (4a.alpha.,8a.alpha.,9a.alpha.,10a.alpha.)-
Formula: C14 H24
CAS: 19128-78-0
Molecular weight: 192
m/z	RELATIVE INTENSITY
53	1301
54	820
55	3102
56	620
57	500
67	5204
68	1301
69	1301
77	750
79	1901
80	690
81	3903
82	1201
83	310
91	720
93	1601
94	1601
95	2602
96	2702
97	1501
107	670
108	810
109	610
110	1000
111	340
121	2502
122	470
123	370
135	9999
136	1601
149	910
150	1601
163	560
164	140
177	130
192	5705
193	880
194	60
