Mass Spectrum: Ethanesulfonic acid, methyl ester
Formula: C3 H8 O3 S
CAS: 1912-28-3
Molecular weight: 124
m/z	RELATIVE INTENSITY
14	127
15	3934
26	2092
27	8327
28	2888
29	9999
30	1211
31	5985
32	1103
33	338
45	5555
46	240
47	210
48	1401
49	370
50	861
57	190
58	240
59	711
60	370
64	621
65	931
66	1381
79	2092
80	991
81	260
93	470
94	190
95	280
96	2883
97	370
109	410
110	130
124	220
125	130
