Mass Spectrum: Methanesulfonic acid, butyl ester
Formula: C5 H12 O3 S
CAS: 1912-32-9
Molecular weight: 152
m/z	RELATIVE INTENSITY
15	1742
18	190
27	2217
28	497
29	2511
31	452
32	110
39	1380
41	4977
42	430
43	2059
45	747
55	1335
56	9999
57	2081
79	5678
80	950
81	679
97	1289
109	3982
110	249
111	475
123	249
152	45
