Mass Spectrum: Trietazine
Formula: C9 H16 Cl N5
CAS: 1912-26-1
Molecular weight: 229
Origin: NIST Mass Spectrometry Data Center, 1998.
m/z	RELATIVE INTENSITY
15	110
26	90
27	1160
28	890
29	2180
30	190
39	30
40	120
41	260
42	1350
43	2080
44	900
52	10
53	380
54	260
55	1990
56	610
57	150
58	140
62	540
64	160
66	40
67	220
68	2580
69	1550
70	210
71	1510
72	1650
73	100
78	70
79	80
80	210
81	160
82	80
83	200
85	60
87	480
88	100
89	140
90	160
91	550
92	100
93	780
94	600
95	150
96	1380
97	220
98	60
99	590
100	90
104	380
105	320
106	150
107	240
108	90
109	80
116	110
117	100
118	30
119	90
120	10
121	110
122	670
123	260
124	270
129	150
130	350
131	110
132	1010
133	90
134	260
135	40
136	100
137	10
143	110
144	80
145	40
150	110
151	90
155	50
156	40
157	180
158	300
159	140
160	130
164	160
165	30
166	60
170	1080
171	170
172	740
173	140
174	120
178	10
182	20
184	320
185	310
186	5109
187	480
188	1660
189	120
194	250
195	10
198	180
200	9999
201	1320
202	3200
203	350
212	70
214	4390
215	420
216	1370
217	120
226	60
227	30
228	300
229	4320
230	540
231	1440
232	150
