Mass Spectrum: Benzene, 1,1',1''-(1-propanyl-3-ylidene)tris-
Formula: C21 H20
CAS: 19120-39-9
Molecular weight: 272
Origin: M.C. HAMMING CONTINENTAL OIL CO., PONCA CITY, OKLA., USA
m/z	RELATIVE INTENSITY
12	3
14	14
15	11
16	3
26	15
27	232
28	89
29	13
30	3
37	4
38	24
39	398
40	33
41	101
42	6
43	11
44	3
49	4
50	100
51	412
52	90
53	47
54	6
55	22
56	4
57	7
60	5
61	5
62	31
63	172
64	37
65	388
66	26
67	9
68	3
69	8
70	4
74	26
75	47
76	60
77	549
78	162
79	151
80	11
81	8
82	13
83	18
84	3
87	21
88	18
89	106
90	35
91	1280
92	816
93	59
94	5
95	6
96	5
97	14
98	12
99	12
100	9
101	38
102	162
103	765
104	365
105	883
106	76
107	5
109	4
110	5
111	8
112	4
113	35
114	26
115	386
116	67
117	33
118	5
119	3
120	3
124	4
125	7
126	77
127	54
128	191
129	31
130	4
136	10
137	10
138	24
139	162
140	35
141	132
142	21
143	8
149	7
150	27
151	122
152	1093
153	188
154	29
155	8
160	3
161	12
162	19
163	113
164	174
165	2097
166	855
167	9999
168	1867
169	156
170	9
172	4
173	4
174	4
175	7
176	40
177	39
178	217
179	162
180	176
181	367
182	54
183	4
187	6
188	5
189	31
190	10
191	24
192	16
193	52
194	72
195	12
196	3
200	3
201	7
202	3
213	4
215	5
216	1
225	4
228	4
229	5
239	6
241	4
252	4
253	3
270	3
271	6
272	1742
273	396
274	43
275	4
