Mass Spectrum: 9-Methoxyfluorene
Formula: C14 H12 O
CAS: 19126-15-9
Molecular weight: 196
Origin: ASES Database, Dalian Institute, P.R. China
m/z	RELATIVE INTENSITY
51	360
63	740
74	370
75	430
76	830
77	310
89	340
91	280
101	220
102	220
113	320
115	550
126	500
127	310
137	280
138	270
139	740
150	420
151	840
152	2812
153	1861
154	310
162	310
163	1581
164	1271
165	9999
166	1681
167	280
180	1611
181	3543
182	840
195	3282
196	6485
197	1211
198	190
