Mass Spectrum: Dihexyl fumarate
Formula: C16 H28 O4
CAS: 19139-31-2
Molecular weight: 284
Origin: NIST Mass Spectrometry Data Center, 1994
m/z	RELATIVE INTENSITY
14	40
15	155
16	25
26	766
27	3621
28	1160
29	4146
30	128
31	213
32	33
39	1551
41	6483
42	3078
43	9999
44	435
45	233
50	25
51	50
53	973
54	2253
55	6378
56	5646
57	1505
58	61
59	34
65	49
67	416
68	265
69	2235
70	213
71	547
72	187
73	120
79	47
81	787
82	1664
83	929
84	2608
85	4570
86	320
87	31
93	16
94	42
95	78
96	57
97	101
98	16
99	2971
100	1905
101	369
102	41
108	31
109	233
110	48
111	57
112	189
113	86
114	45
115	31
116	31
117	4237
118	271
119	144
122	19
123	30
124	26
125	68
126	76
127	43
128	20
129	21
136	50
137	118
139	244
140	91
141	101
142	29
143	47
152	22
153	91
154	110
155	192
157	162
158	20
164	47
165	30
171	19
181	27
183	1766
184	344
185	48
201	1024
202	125
203	15
227	28
241	76
