Mass Spectrum: 1,3-Dioxane, 2,4,6-trimethyl-, (2.alpha.,4.alpha.,6.alpha.)-
Formula: C7 H14 O2
CAS: 19145-91-6
Molecular weight: 130
Origin: K. PIHLAJA
m/z	RELATIVE INTENSITY
41	500
42	1600
43	1900
44	600
45	5600
68	600
69	6200
71	1300
73	600
86	600
87	1100
101	500
115	9999
116	900
129	1200
