Mass Spectrum: Sucrose, 8TMS derivative
Formula: C36 H86 O11 Si8
CAS: 19159-25-2
Molecular weight: 918
Origin: WASHINGTON UNIVERSITY MEDICAL SCHOOL W.R. SHERMAN
m/z	RELATIVE INTENSITY
55	66
59	66
69	86
72	51
73	6066
74	457
75	355
79	37
81	61
89	37
101	56
102	37
103	1399
104	139
105	66
109	32
113	51
116	42
117	286
129	991
130	149
131	208
132	32
133	223
141	42
142	46
143	144
145	46
147	1585
148	247
149	193
155	120
157	213
163	32
169	907
170	139
171	81
173	37
175	32
177	32
183	42
189	262
190	56
191	526
192	95
193	42
199	37
203	125
204	301
205	369
206	81
207	61
215	86
217	3004
218	761
219	355
220	61
221	120
227	32
229	223
230	218
231	179
232	51
233	71
241	56
243	673
244	169
245	223
246	42
247	81
257	149
258	32
259	120
271	1370
272	340
273	159
289	76
291	120
292	42
293	46
303	37
305	139
306	61
307	46
317	37
319	624
320	242
321	100
331	296
332	95
333	66
345	86
346	32
347	56
361	9999
362	3121
363	1458
364	345
365	95
435	61
437	1216
438	472
439	257
440	61
451	1035
452	423
453	223
454	61
