Mass Spectrum: trans-3-Decene
Formula: C10 H20
CAS: 19150-21-1
Molecular weight: 140
Origin: NIST Mass Spectrometry Data Center, 1990.
m/z	RELATIVE INTENSITY
15	91
27	2636
28	1145
29	2731
30	66
39	3204
40	883
41	9999
42	3110
43	4836
44	246
50	107
51	292
52	219
53	1168
54	1331
55	8684
56	6309
57	1626
58	70
65	305
66	186
67	1605
68	902
69	6917
70	4823
71	783
77	164
79	185
81	225
82	407
83	1352
84	1267
85	312
96	165
97	1190
98	421
110	59
111	476
112	240
140	1622
141	186
