Mass Spectrum: Benzoic acid, 3,4,5-trimethoxy-, methyl ester
Formula: C11 H14 O5
CAS: 1916-07-0
Molecular weight: 226
Origin: NIST Mass Spectrometry Data Center, 1998.
m/z	RELATIVE INTENSITY
14	10
15	280
26	10
27	120
28	20
29	120
30	20
31	30
37	60
38	380
39	290
40	20
41	60
42	20
43	130
44	10
45	160
46	10
47	10
49	70
50	570
51	280
52	120
53	1010
54	70
55	80
56	20
57	30
58	10
59	1280
60	30
61	100
62	210
63	320
64	110
65	340
66	1290
67	190
68	40
69	530
70	30
71	10
73	10
74	80
75	210
76	250
77	770
78	320
79	520
80	100
81	710
82	100
83	50
84	10
85	30
89	20
90	40
91	160
92	290
93	430
94	220
95	500
96	170
97	90
99	30
101	10
102	20
103	70
104	100
105	90
106	200
107	570
108	370
109	840
110	120
111	80
112	140
113	80
118	10
119	240
120	120
121	180
122	460
123	590
124	820
125	1270
126	90
127	30
132	10
133	50
134	160
135	380
136	310
137	650
138	120
139	140
140	590
141	60
142	10
147	10
148	10
149	110
150	190
151	960
152	590
153	780
154	80
155	2750
156	240
157	20
161	10
162	10
163	30
164	20
165	440
166	400
167	210
168	580
169	60
170	10
178	10
179	240
180	90
181	80
182	20
183	730
184	70
185	10
193	30
195	2770
196	470
197	80
198	10
209	40
210	100
211	4430
212	480
213	70
226	9999
227	1220
228	160
229	10
