Mass Spectrum: Benzofurazan, 5-methyl-, 1-oxide
Formula: C7 H6 N2 O2
CAS: 19164-41-1
Molecular weight: 150
Origin: NIST Mass Spectrometry Data Center, 1994
m/z	RELATIVE INTENSITY
12	42
13	25
14	118
15	145
16	87
17	60
18	199
25	44
26	431
27	916
28	1160
29	25
30	3077
31	44
32	202
36	41
37	735
38	1182
39	4878
40	654
41	593
42	91
43	48
44	61
48	31
49	306
50	1834
51	2193
52	760
53	169
54	66
55	20
60	64
61	582
62	1380
63	3439
64	1705
65	9999
66	1844
67	96
68	31
73	128
74	515
75	574
76	541
77	880
78	311
79	164
80	52
84	39
85	140
86	355
87	317
88	39
89	6843
90	1931
91	324
92	196
93	25
94	35
99	30
102	100
103	105
104	117
105	300
106	70
116	21
117	42
118	52
119	38
120	76
122	19
134	412
135	41
136	35
148	35
150	7503
151	608
152	82
