Mass Spectrum: 3-Hydroxy-4,5-dimethoxybenzoic acid
Formula: C9 H10 O5
CAS: 1916-08-1
Molecular weight: 198
Origin: NIST Mass Spectrometry Data Center, 1994
m/z	RELATIVE INTENSITY
15	2102
17	109
18	26
27	48
29	744
31	210
37	330
39	125
42	79
43	592
44	133
45	760
49	194
50	923
51	1015
52	262
53	1556
54	170
55	660
59	84
61	169
62	372
63	371
64	125
65	1098
66	1147
67	1702
68	307
69	1135
70	84
71	425
77	491
78	279
79	758
80	178
81	1279
82	252
83	180
84	1141
85	158
91	110
92	146
93	1150
94	151
95	603
96	110
97	549
98	89
99	83
107	207
108	267
109	2789
110	380
111	549
112	1238
113	100
119	102
121	101
123	428
124	112
125	172
126	100
127	3739
128	224
135	194
136	147
137	1032
138	260
139	234
140	483
141	214
151	186
152	177
153	366
154	132
155	857
156	77
165	203
169	120
181	642
183	6937
184	680
185	113
198	9999
199	999
200	162
