Mass Spectrum: 2-Thiophenecarboxylic acid, 5-methyl-
Formula: C6 H6 O2 S
CAS: 1918-79-2
Molecular weight: 142
Origin: Japan AIST/NIMC Database- Spectrum MS-NW-7258
m/z	RELATIVE INTENSITY
15	20
17	10
18	50
25	30
26	119
27	629
28	129
29	40
31	20
32	50
33	20
34	10
36	30
37	239
38	339
39	799
40	40
41	50
43	30
44	169
45	2179
46	90
47	239
48	209
49	119
50	349
51	509
52	219
53	2989
54	149
55	70
56	30
57	459
58	359
59	509
60	70
61	159
62	529
63	229
64	30
65	60
66	10
67	10
68	60
69	889
70	429
71	349
72	60
73	20
74	10
76	10
77	10
79	20
80	20
81	119
82	179
83	30
84	20
85	139
86	30
87	10
91	10
92	40
93	199
94	30
95	369
96	519
97	8969
98	629
99	429
100	30
109	10
111	10
113	399
114	70
115	20
124	119
125	5959
126	479
127	299
128	20
140	20
141	3159
142	9999
143	919
144	519
145	30
