Mass Spectrum: Pentanedioic acid, 3,3-dimethyl-, dimethyl ester
Formula: C9 H16 O4
CAS: 19184-67-9
Molecular weight: 188
Origin: INST.OF CLINICAL BIOCHEM,RIKSHOSP,UNIV.OF OSLO,E.JELLUM,ET.A
m/z	RELATIVE INTENSITY
27	1600
29	2600
31	600
39	1800
41	3700
42	1400
43	2900
45	800
53	1000
55	5300
56	1600
59	3700
69	2300
73	9999
74	2900
81	600
82	700
83	4900
87	800
97	1600
109	700
113	1200
114	700
115	5400
128	3100
129	1400
141	1700
156	1400
157	4600
158	500
