Mass Spectrum: 2-Thiopheneacetic acid
Formula: C6 H6 O2 S
CAS: 1918-77-0
Molecular weight: 142
Origin: Japan AIST/NIMC Database- Spectrum MS-NW-1408
m/z	RELATIVE INTENSITY
25	10
26	70
27	299
28	70
29	40
31	20
32	20
33	10
36	10
37	119
38	209
39	609
40	30
41	30
42	20
43	20
44	90
45	1969
46	60
47	149
48	99
49	50
50	159
51	239
52	119
53	1159
54	60
55	50
56	10
57	159
58	259
59	90
60	30
61	70
62	90
63	179
64	20
65	30
67	40
68	30
69	379
70	169
71	179
72	20
73	10
75	10
76	10
78	20
79	20
81	30
82	60
83	20
84	10
85	60
92	10
93	50
95	109
96	109
97	9999
98	679
99	469
100	40
111	50
113	30
124	40
142	4009
143	309
144	209
145	10
