Mass Spectrum: Dicamba
Formula: C8 H6 Cl2 O3
CAS: 1918-00-9
Molecular weight: 220
Origin: NIST Mass Spectrometry Data Center, 1990.
m/z	RELATIVE INTENSITY
12	192
14	4
15	1518
25	114
28	40
29	483
30	61
31	470
35	103
36	394
37	996
38	678
39	366
40	87
42	97
44	508
45	902
47	264
48	257
49	532
50	824
51	893
52	249
53	1207
60	590
61	1622
62	2523
63	1653
64	195
65	464
66	175
69	111
70	72
71	266
72	710
73	2337
74	2496
75	1958
76	265
77	1258
78	164
79	397
82	155
83	241
84	557
85	935
86	413
87	676
88	123
89	295
90	547
91	290
94	119
95	242
96	706
97	3338
98	603
99	1438
100	225
101	258
105	160
106	89
107	245
108	567
109	2125
110	1304
111	2844
112	732
113	2214
114	415
115	519
117	97
118	120
119	147
120	174
121	270
122	89
123	411
124	171
125	1358
126	504
127	583
128	147
131	169
132	946
133	2509
134	905
135	1423
136	225
137	335
138	355
139	689
140	289
141	2114
142	646
143	704
144	1050
145	1103
146	1217
147	2281
148	597
149	1991
150	212
151	697
152	185
153	1181
154	171
155	702
156	120
157	115
158	268
159	115
160	2700
161	871
162	2001
163	450
164	442
165	109
166	615
167	681
168	416
169	250
170	577
171	171
172	109
173	9999
174	4793
175	7854
176	4311
177	2657
178	1536
179	592
180	361
181	141
183	187
185	314
188	2821
189	1234
190	2642
191	3196
192	1162
193	2051
194	332
195	318
200	124
201	718
202	2628
203	4039
204	2074
205	2550
206	544
207	567
220	7769
221	1058
222	5116
223	567
224	678
