Mass Spectrum: Picloram
Formula: C6 H3 Cl3 N2 O2
CAS: 1918-02-1
Molecular weight: 240
Origin: Japan AIST/NIMC Database- Spectrum MS-IW- 93
m/z	RELATIVE INTENSITY
16	10
17	30
18	159
25	10
26	10
27	30
28	269
29	10
35	40
36	269
37	139
38	199
39	99
40	50
41	20
43	149
44	779
45	209
46	10
47	279
48	90
49	129
50	70
51	239
52	309
53	139
54	10
59	30
60	60
61	40
62	449
63	359
64	229
65	159
66	279
67	60
68	30
71	179
72	199
73	329
74	259
75	489
76	139
77	229
78	50
79	20
80	299
81	209
82	60
83	90
84	50
85	139
86	819
87	189
88	319
89	149
90	459
91	159
92	20
94	70
95	40
96	40
97	229
98	649
99	669
100	479
101	259
102	99
103	30
106	129
107	389
108	149
109	369
110	90
111	90
112	40
113	60
114	50
115	20
116	20
117	10
118	60
119	10
120	119
121	20
122	159
123	50
124	189
125	959
126	449
127	399
128	139
129	30
132	369
133	369
134	1249
135	319
136	709
137	90
138	109
139	10
141	389
142	40
143	369
144	90
145	129
146	50
147	20
148	40
149	70
150	60
151	60
152	80
153	30
154	20
155	10
158	10
159	169
160	859
161	3889
162	889
163	2449
164	299
165	399
166	30
167	10
168	679
169	579
170	689
171	559
172	239
173	179
174	30
175	20
177	10
178	10
179	30
180	10
181	20
183	10
184	10
186	30
187	20
188	20
189	20
190	10
194	40
195	769
196	9999
197	1389
198	9739
199	869
200	3149
201	229
202	349
203	50
204	10
205	50
206	90
207	30
208	50
209	10
210	10
222	10
223	249
224	30
225	239
226	20
227	80
229	10
230	329
231	20
232	419
233	30
234	199
235	10
236	40
239	10
240	4349
241	639
242	4259
243	609
244	1389
245	189
246	159
247	20
