Mass Spectrum: Phenol, 2,6-bis(1,1-dimethylethyl)-4-methyl-, methylcarbamate
Formula: C17 H27 N O2
CAS: 1918-11-2
Molecular weight: 277
m/z	RELATIVE INTENSITY
39	600
41	3200
42	100
43	600
51	200
53	400
55	1700
56	100
57	5299
58	2600
65	300
67	200
69	200
77	700
78	100
79	400
91	1000
93	200
103	100
105	1200
107	100
115	700
116	200
117	300
119	600
121	600
127	100
128	500
129	500
130	200
131	400
133	400
135	200
141	300
142	200
143	100
145	700
146	100
147	200
149	200
161	600
163	200
177	500
189	500
205	9999
206	1500
220	4900
