Mass Spectrum: Dibenzo[fg,op]naphthacene
Formula: C24 H14
CAS: 192-51-8
Molecular weight: 302
Origin: P. C. GOODLEY, C. H. MIDGETT, M. GORDON, MURRAY STATE UNIV., MURRAY, KY. USA.
m/z	RELATIVE INTENSITY
136	260
137	460
138	360
149	650
150	960
151	1520
298	690
300	2110
302	9999
303	2620
304	370
