Mass Spectrum: 2H-Pyran-2-carboxaldehyde, 3,4-dihydro-2,5-dimethyl-
Formula: C8 H12 O2
CAS: 1920-21-4
Molecular weight: 140
Origin: T.A.BLAZER DU PONT, GIBBSTOWN, N.J., USA
m/z	RELATIVE INTENSITY
12	22
13	14
15	317
16	114
24	4
25	16
26	180
27	1035
28	201
29	962
30	27
31	88
36	26
37	66
38	165
39	1529
40	226
41	1999
42	438
43	4059
44	131
45	76
46	3
47	5
49	11
50	74
51	190
52	75
53	431
54	99
55	1299
56	105
57	174
58	58
59	12
61	7
62	18
63	39
64	11
65	92
66	52
67	268
68	68
69	518
70	198
71	666
72	32
73	5
74	11
75	9
76	6
77	228
78	45
79	148
80	22
81	135
82	85
83	248
84	27
85	36
87	9
91	125
92	19
93	552
94	172
95	331
96	129
97	418
98	41
99	76
107	40
108	45
109	212
110	190
111	9999
112	898
113	59
123	22
124	8
125	29
139	7
140	2285
141	215
142	20
