Mass Spectrum: Pentadecane, 2,6,10,14-tetramethyl-
Formula: C19 H40
CAS: 1921-70-6
Molecular weight: 268
Origin: Japan AIST/NIMC Database- Spectrum MS-NW-1461
m/z	RELATIVE INTENSITY
26	10
27	379
28	60
29	1039
30	20
39	229
40	50
41	2119
42	469
43	5069
44	169
53	109
54	60
55	1509
56	1779
57	9999
58	449
65	10
67	99
68	99
69	929
70	759
71	7339
72	399
73	10
77	10
79	20
81	40
82	30
83	289
84	479
85	2699
86	179
95	30
96	109
97	399
98	149
99	1129
100	90
110	20
111	139
112	1219
113	1819
114	159
125	30
126	299
127	689
128	70
139	10
140	30
141	299
142	30
154	149
155	299
156	30
168	10
169	70
170	10
182	399
183	1029
184	149
185	10
196	20
197	60
198	10
211	20
224	10
225	40
238	20
239	30
252	10
253	80
254	20
268	50
269	10
