Mass Spectrum: (S)-(+)-2-Chloro-1-propanol
Formula: C3 H7 Cl O
CAS: 19210-21-0
Molecular weight: 94
Origin: Chuck Anderson, Aldrich Chemical Co.
m/z	RELATIVE INTENSITY
15	15
26	225
27	890
28	410
29	944
30	131
31	9999
32	155
33	42
36	57
37	88
38	150
39	555
40	81
41	772
42	121
43	370
44	37
48	38
49	107
51	40
53	18
55	72
57	474
58	1394
59	158
60	19
61	91
62	901
63	836
64	292
65	718
67	149
76	33
78	8
94	62
