Mass Spectrum: Benzene, (2-ethylbutyl)-
Formula: C12 H18
CAS: 19219-85-3
Molecular weight: 162
m/z	RELATIVE INTENSITY
2	60
12	10
13	30
14	60
15	250
16	20
26	160
27	2012
28	430
29	2512
30	80
37	40
38	90
39	1431
40	120
41	1471
42	400
43	7697
44	390
50	170
51	631
52	170
53	240
54	40
55	921
56	60
57	60
58	30
60	20
61	20
62	60
63	310
64	90
65	1181
66	60
67	40
69	70
70	721
71	2052
72	130
74	40
75	50
76	40
77	390
78	240
79	90
89	160
90	160
91	6436
92	9999
93	801
98	20
99	20
102	60
103	100
104	100
105	110
106	30
115	220
116	70
117	220
118	40
119	60
131	70
132	30
133	80
162	1792
163	190
