Mass Spectrum: 2,6-Bis(chloromethyl)-p-tolyl acetate
Formula: C11 H12 Cl2 O2
CAS: 19228-70-7
Molecular weight: 246
Origin: NIST Mass Spectrometry Data Center, 1994
m/z	RELATIVE INTENSITY
13	78
14	421
15	2061
26	136
27	787
29	119
35	122
36	76
37	128
38	386
39	1921
40	280
41	308
42	76
43	9999
44	223
45	41
49	169
50	454
51	1169
52	349
53	467
54	37
55	32
60	24
61	115
62	354
63	1107
64	277
65	877
66	168
67	24
73	222
74	171
75	339
76	24
77	2630
78	831
79	1032
80	80
85	32
86	74
87	97
88	32
89	353
90	110
91	668
92	48
97	23
98	33
99	117
101	123
102	321
103	1398
104	800
105	3874
106	433
107	29
111	29
113	32
114	40
115	186
116	57
117	59
119	58
125	288
126	37
127	95
131	43
133	5406
134	668
135	68
139	593
140	434
141	229
142	122
168	3486
169	1387
170	1317
171	413
172	42
175	41
187	31
189	22
204	3610
206	2372
207	285
208	384
209	43
211	233
212	33
213	82
246	129
248	101
