Mass Spectrum: 4,5,6,7-Tetrafluorobenzo-2,1,3-selenazole
Formula: C6 F4 N2 Se
CAS: 19227-22-6
Molecular weight: 256
Origin: Institute of Organic Chemistry, USSR, 1990
m/z	RELATIVE INTENSITY
50	140
55	180
57	100
62	190
69	700
74	370
76	1140
77	750
78	2290
80	4890
81	340
82	830
86	60
88	160
93	580
94	60
100	1610
101	60
107	550
109	80
111	160
116	60
118	110
124	90
126	60
127	60
128	140
131	330
145	60
150	430
176	440
250	150
252	1770
253	1590
254	4890
255	320
256	9999
257	680
258	1690
259	100
