Mass Spectrum: Benzene, 2-chloro-4-isothiocyanato-1-methyl-
Formula: C8 H6 Cl N S
CAS: 19241-37-3
Molecular weight: 183
Origin: NIST Mass Spectrometry Data Center, 1994
m/z	RELATIVE INTENSITY
14	80
15	116
18	94
25	80
26	487
27	899
28	179
32	607
33	41
35	125
36	116
37	802
38	1161
39	3084
40	232
41	89
43	170
44	926
45	1809
46	87
47	200
48	89
49	610
50	2273
51	2496
52	617
53	104
56	66
57	107
58	452
59	271
60	577
61	1146
62	2151
63	4702
64	1035
65	398
69	479
70	1162
71	192
72	385
73	1314
74	1152
75	1493
76	976
77	1264
78	338
79	184
81	130
82	137
83	288
84	339
85	518
86	582
87	750
88	627
89	4096
90	948
91	130
92	704
93	354
94	214
95	225
96	385
97	345
98	167
99	770
100	180
101	266
102	552
103	623
104	895
105	123
106	86
107	75
108	136
111	135
112	93
113	69
114	280
115	204
116	347
117	63
118	55
119	243
120	636
121	1037
122	275
123	357
124	55
125	4414
126	520
127	1257
128	131
132	63
138	190
140	114
146	737
147	791
148	8570
149	889
150	567
151	245
152	62
153	89
154	62
155	310
156	105
157	150
182	2676
183	9999
184	1979
185	3665
186	393
187	159
