Mass Spectrum: Hexanal, 3-methyl-
Formula: C7 H14 O
CAS: 19269-28-4
Molecular weight: 114
m/z	RELATIVE INTENSITY
14	20
15	220
26	180
27	2472
28	420
29	2422
30	50
31	130
37	40
38	140
39	1972
40	330
41	4324
42	3904
43	7427
44	2152
45	621
50	70
51	110
52	30
53	360
54	180
55	5485
56	410
57	1501
58	721
59	40
65	30
67	140
68	170
69	520
70	9999
71	3283
72	611
73	30
79	40
81	621
82	30
83	30
85	110
86	230
95	30
96	180
97	30
99	20
114	30
