Mass Spectrum: 2H-Pyran, tetrahydro-2-(1-methylethoxy)-
Formula: C8 H16 O2
CAS: 1927-70-4
Molecular weight: 144
Origin: CARL DJERASSI DEPT OF CHEM STANFORD UNIV STANFORD CALIF 94305
m/z	RELATIVE INTENSITY
41	9999
42	2200
43	8500
44	2400
45	6300
50	400
51	400
52	100
53	900
54	700
55	4900
56	5900
57	2700
58	400
59	200
67	800
68	100
69	300
74	100
75	200
83	400
84	800
85	4400
86	300
101	1100
102	400
129	100
143	200
144	300
