Mass Spectrum: 2,4,5-T Methyl ester
Formula: C9 H7 Cl3 O3
CAS: 1928-37-6
Molecular weight: 268
Origin: NIST Mass Spectrometry Data Center, 1990.
m/z	RELATIVE INTENSITY
12	35
13	88
14	556
15	3291
16	19
17	33
18	57
25	20
26	51
28	358
29	1633
30	332
31	202
32	39
33	25
35	84
36	115
37	347
38	125
39	28
40	12
41	110
42	1384
43	1021
44	12
45	5480
46	127
47	115
48	102
49	238
50	261
51	70
52	21
53	111
54	31
55	54
56	31
57	181
58	21
59	1874
60	239
61	854
62	1242
63	365
65	97
66	16
71	145
72	608
73	3875
74	1902
75	439
76	50
77	41
81	15
83	351
84	588
85	357
86	221
87	131
88	21
89	43
90	25
91	23
92	92
94	75
95	109
96	473
97	1859
98	236
99	610
100	44
101	20
104	109
105	126
107	793
108	1021
109	2105
110	526
111	894
112	93
113	141
115	24
117	50
118	85
119	149
120	77
121	80
122	20
123	56
124	29
125	66
126	31
127	42
128	17
129	12
130	33
131	227
132	349
133	215
134	232
135	104
136	37
137	18
139	63
140	21
141	81
142	12
143	1821
144	1179
145	2917
146	1985
147	1422
148	1027
149	277
150	141
151	21
159	145
160	217
161	135
162	220
163	74
164	63
165	26
166	21
167	1809
168	272
169	1846
170	149
171	587
172	53
173	247
174	125
175	262
176	106
177	141
178	26
179	2194
180	21
181	2552
182	306
183	1214
184	110
185	281
186	18
187	23
189	91
190	109
191	74
192	74
193	61
194	18
195	1131
196	416
197	1093
198	357
199	362
200	115
201	73
202	22
203	25
205	27
207	133
209	3393
210	594
211	3184
212	402
213	1058
214	128
215	108
216	18
217	33
218	32
219	26
220	20
223	13
225	16
233	9999
234	1412
235	6393
236	662
237	1064
238	120
239	33
241	11
253	21
255	19
257	13
268	4535
269	605
270	4291
271	553
272	1366
273	169
274	173
