Mass Spectrum: Tricosane, 2-methyl-
Formula: C24 H50
CAS: 1928-30-9
Molecular weight: 338
m/z	RELATIVE INTENSITY
12	10
13	10
14	20
15	60
16	10
17	10
18	20
19	10
20	10
24	10
25	10
26	60
27	861
28	240
29	2152
30	50
31	10
32	10
33	10
34	10
35	10
36	10
37	10
38	20
39	350
40	90
41	3433
42	1261
43	9999
44	330
45	10
46	10
47	10
49	10
50	10
51	10
52	10
53	270
54	360
55	3413
56	2102
57	9438
58	420
59	10
60	10
61	10
62	10
63	10
64	10
65	30
66	30
67	320
68	310
69	1722
70	931
71	4874
72	270
73	10
74	10
75	10
76	10
77	20
78	10
79	40
80	20
81	120
82	220
83	1071
84	460
85	3343
86	220
87	10
88	10
89	10
90	10
91	10
92	10
93	10
94	10
95	50
96	100
97	661
98	260
99	851
100	70
101	10
102	10
103	10
104	10
105	10
106	10
107	10
108	10
109	20
110	40
111	280
112	170
113	500
114	50
115	10
116	10
117	10
118	10
119	10
120	10
121	10
122	10
123	10
124	20
125	110
126	120
127	360
128	40
129	10
130	10
131	10
132	10
133	10
134	10
135	10
136	10
137	10
138	20
139	50
140	90
141	280
142	30
143	10
144	10
145	10
146	10
147	10
151	10
152	10
153	30
154	80
155	230
156	30
157	10
165	10
166	10
167	20
168	60
169	190
170	30
171	10
180	10
181	10
182	50
183	170
184	20
185	10
194	10
195	10
196	40
197	150
198	20
199	10
208	10
209	10
210	40
211	130
212	20
213	10
222	10
223	10
224	30
225	120
226	20
227	10
236	10
237	10
238	30
239	100
240	20
241	10
250	10
251	10
252	20
253	80
254	20
255	10
265	10
266	30
267	70
268	10
269	10
280	20
281	50
282	10
294	200
295	741
296	170
297	20
308	10
309	20
310	10
322	30
323	330
324	80
325	10
336	10
337	10
338	60
340	10
341	10
342	10
