Mass Spectrum: 2,4-D methyl ester
Formula: C9 H8 Cl2 O3
CAS: 1928-38-7
Molecular weight: 234
Origin: NIST Mass Spectrometry Data Center, 1990.
m/z	RELATIVE INTENSITY
12	35
13	128
14	860
15	4985
16	65
17	64
18	243
25	40
26	128
27	196
28	348
29	2206
30	487
31	316
33	29
35	90
36	117
37	503
38	482
39	162
40	3
41	3
42	1847
43	1007
44	3
45	1350
46	158
47	161
48	74
49	377
50	964
51	443
52	63
53	184
55	114
57	213
59	1687
60	214
61	807
62	1416
63	2731
64	151
65	114
66	22
68	10
69	17
70	36
71	133
72	625
73	3599
74	2754
75	3141
76	291
77	433
78	38
79	45
83	425
84	607
85	718
86	248
87	225
88	98
90	20
91	107
92	36
93	30
94	28
95	51
96	150
97	716
98	530
99	334
100	159
101	49
105	32
106	74
107	417
108	28
109	3619
110	1042
111	4471
112	1087
113	1130
114	254
115	39
116	10
118	20
119	73
120	25
121	63
123	25
124	27
125	193
126	342
127	124
128	187
129	46
130	37
133	2985
134	324
135	1985
136	123
137	366
138	45
139	211
140	93
141	180
142	68
143	64
144	37
145	3563
146	466
147	3322
148	330
149	1067
150	88
151	124
155	144
156	144
157	67
158	39
159	56
160	39
161	2851
162	669
163	1876
164	371
165	360
166	73
167	23
168	14
169	27
171	31
173	111
175	5814
176	784
177	3567
178	441
179	599
180	57
183	43
184	36
185	22
189	12
191	20
193	10
199	9999
200	1196
201	3221
202	349
203	42
205	20
219	18
221	12
234	4762
235	679
236	3215
237	347
238	558
239	56
