Mass Spectrum: Diborane
Formula: B2 H6
CAS: 19287-45-7
Molecular weight: 28
Origin: API 0333
m/z	RELATIVE INTENSITY
10	631
11	2843
12	1812
13	2442
14	70
15	10
21	190
22	1121
23	4574
24	8968
25	5675
26	9999
27	9749
28	30
