Mass Spectrum: Carbamothioic acid, dipropyl-, S-propyl ester
Formula: C10 H21 N O S
CAS: 1929-77-7
Molecular weight: 203
Origin: ACCUSTANDARD Chemicals / NIST MS Data Center.
m/z	RELATIVE INTENSITY
14	13
15	131
17	2
18	28
27	1694
28	459
29	381
30	562
31	33
33	7
34	9
35	9
37	9
39	600
41	2899
42	1458
43	9999
44	546
45	159
46	115
47	267
48	15
49	10
51	4
52	7
53	13
54	61
55	50
56	276
57	41
58	328
59	69
60	43
61	89
62	36
63	6
68	36
69	42
70	349
71	73
72	379
73	42
74	27
75	65
76	77
77	14
78	9
80	6
82	11
84	75
86	4201
87	195
88	43
89	202
90	28
91	10
98	44
100	145
101	16
103	148
104	154
105	14
106	6
112	9
114	53
115	6
116	13
117	23
118	26
119	21
128	4917
129	358
130	33
132	34
144	6
146	891
147	82
148	47
160	171
161	634
162	105
163	40
170	19
174	228
175	23
176	12
203	505
204	65
205	38
