Mass Spectrum: Acetamide, N-(4-ethoxyphenyl)-N-hydroxy-
Formula: C10 H13 N O3
CAS: 19315-64-1
Molecular weight: 195
Origin: N.W. DAVIES, UNIVERSITY OF TASMANIA, TASMANIA, AUSTRALIA
m/z	RELATIVE INTENSITY
26	310
27	1130
29	1100
31	340
38	210
39	530
41	130
42	260
43	6170
44	120
45	170
50	200
51	430
52	1090
53	970
54	170
55	110
62	120
63	420
64	350
65	610
66	100
77	100
78	200
79	450
80	1090
81	1330
82	110
91	170
92	150
93	250
94	370
106	130
107	730
108	9999
109	8070
110	650
123	120
124	1130
125	190
135	360
136	1460
137	4370
138	480
149	690
150	230
151	250
152	360
153	1440
154	130
177	230
178	130
179	6410
180	195
195	740
