Mass Spectrum: Cyclobutane, 1,2-diethyl-, trans-
Formula: C8 H16
CAS: 19341-98-1
Molecular weight: 112
Origin: D.HENNEBERG, MAX-PLANCK INSTITUTE, MULHEIM, WEST GERMANY
m/z	RELATIVE INTENSITY
27	3003
28	1721
29	2232
30	10
38	40
39	2652
40	410
41	9869
42	3523
43	1301
44	290
50	40
51	140
52	30
53	570
54	600
55	6486
56	9999
57	2032
58	20
63	20
65	20
66	10
67	320
68	130
69	1911
70	2472
71	280
77	20
78	20
79	20
81	668
82	170
83	1551
84	2012
85	70
97	20
112	170
113	20
