Mass Spectrum: Furan, tetrahydro-2-(methoxymethyl)-
Formula: C6 H12 O2
CAS: 19354-27-9
Molecular weight: 116
Origin: Japan AIST/NIMC Database- Spectrum MS-NW-8943
m/z	RELATIVE INTENSITY
14	10
15	209
18	20
26	40
27	779
28	229
29	579
30	30
31	209
32	20
33	20
38	20
39	439
40	90
41	1889
42	559
43	4479
44	189
45	2239
46	50
47	20
51	20
52	10
53	109
54	50
55	239
56	80
57	90
58	379
59	109
61	10
67	30
68	20
69	109
70	1129
71	9999
72	469
73	50
74	50
75	40
82	10
83	40
84	60
85	99
86	40
87	80
114	10
115	10
116	20
