Mass Spectrum: Iron, tetracarbonyl(hexamethylphosphorous triamide-P)-
Formula: C10 H18 Fe N3 O4 P
CAS: 19372-47-5
Molecular weight: 331
Origin: R.B.KING UNIVERSITY OF GEORGIA, ATHENS, GEORGIA, USA
m/z	RELATIVE INTENSITY
56	770
60	1500
76	5400
100	2800
119	5700
132	1500
142	8900
163	730
176	8400
195	190
203	230
219	9999
231	2600
247	3900
275	4100
287	220
303	1400
331	1800
