Mass Spectrum: Iron, tricarbonylbis(hexamethylphosphorous triamide-P)-
Formula: C15 H36 Fe N6 O3 P2
CAS: 19372-46-4
Molecular weight: 466
Origin: R.B.KING DEPT. CHEM., UNIV. OF GEORGIA, ATHENS, GEORGIA, USA
m/z	RELATIVE INTENSITY
60	269
76	2581
100	538
119	4839
132	215
142	1075
143	645
163	484
174	215
175	269
176	1075
219	2151
247	161
251	161
252	215
263	1129
294	161
295	269
296	430
339	1505
366	161
382	9999
410	1075
422	430
438	215
466	4301
