Mass Spectrum: 1,2-Ethanediol, 1-(2-furanyl)-
Formula: C6 H8 O3
CAS: 19377-75-4
Molecular weight: 128
Origin: R.C. DOUGHERTY
m/z	RELATIVE INTENSITY
28	2702
29	1952
31	1401
38	801
39	3904
40	601
41	6606
42	500
43	701
50	400
51	1001
52	500
53	1301
55	500
69	1201
81	1601
94	801
95	1601
96	601
97	9999
98	1501
110	601
128	4204
129	300
