Mass Spectrum: Bicyclo[3.1.0]hexan-2-one, 1,5-bis(1,1-dimethylethyl)-3,3-dimethyl-
Formula: C16 H28 O
CAS: 19377-95-8
Molecular weight: 236
Origin: T.H.WHITESIDES, STANFORD UNIV., CALIFORNIA, USA
m/z	RELATIVE INTENSITY
41	3000
43	1000
55	1500
57	9999
67	600
69	1000
81	500
83	900
109	1000
123	1000
137	2000
165	5000
180	7700
236	40
