Mass Spectrum: 2H,8H-Benzo[1,2-b:3,4-b']dipyran-2-one, 9,10-dihydro-9-hydroxy-8,8-dimethyl-, (R)-
Formula: C14 H14 O4
CAS: 19380-05-3
Molecular weight: 246
m/z	RELATIVE INTENSITY
76	400
77	1280
78	400
89	680
90	680
91	1720
92	400
102	400
103	400
118	520
119	480
131	920
133	360
146	760
147	1200
148	800
159	320
160	440
175	6879
176	9999
177	1200
187	800
188	1160
203	400
213	1080
228	80
246	3600
247	560
