Mass Spectrum: Benzenemethanesulfonyl chloride
Formula: C7 H7 Cl O2 S
CAS: 1939-99-7
Molecular weight: 190
Origin: Japan AIST/NIMC Database- Spectrum MS-NW-2249
m/z	RELATIVE INTENSITY
16	20
18	20
24	10
26	40
27	80
28	169
29	10
32	90
35	20
36	90
37	70
38	159
39	589
40	50
41	109
43	50
44	60
45	149
48	1019
49	40
50	239
51	379
52	119
53	20
60	10
61	80
62	199
63	499
64	2399
65	1059
66	109
69	10
73	40
74	40
75	40
76	40
77	219
78	70
79	10
84	10
85	30
86	40
87	30
88	10
89	459
90	219
91	9999
92	849
93	30
97	10
99	50
101	20
103	10
104	10
105	189
106	189
107	20
108	10
109	10
121	50
122	30
123	10
125	449
126	1559
127	249
128	489
129	30
137	10
138	20
144	10
145	10
160	10
162	10
163	10
165	30
166	10
167	80
168	10
169	10
170	50
171	10
172	50
190	10
