Mass Spectrum: 2-Biphenylisothiocyanate
Formula: C13 H9 N S
CAS: 19394-61-7
Molecular weight: 211
Origin: NIST Mass Spectrometry Data Center, 1994
m/z	RELATIVE INTENSITY
15	63
26	385
27	1053
28	49
32	497
33	53
37	285
38	803
39	1929
40	145
44	363
45	673
46	53
47	40
50	2197
51	2537
52	534
53	63
56	55
57	89
58	399
59	439
60	97
61	408
62	992
63	1919
64	393
65	163
66	56
69	411
70	557
72	70
74	1393
75	1604
76	1386
77	1059
78	193
79	300
81	60
82	164
84	506
85	225
86	506
87	788
88	409
89	472
90	124
91	343
92	174
93	154
94	55
95	72
96	62
97	55
98	486
99	419
100	276
101	400
102	445
103	83
104	55
105	1309
107	77
108	62
109	57
110	112
111	144
112	96
113	411
114	231
115	326
116	84
117	34
120	39
121	48
122	79
123	53
124	77
125	294
126	883
127	651
128	130
133	31
134	30
137	83
139	809
140	568
141	97
145	70
146	44
150	1115
151	3935
152	3418
153	501
154	39
164	186
165	133
166	525
167	900
168	119
178	9999
179	1540
180	135
183	230
184	196
185	44
209	364
211	9441
212	1566
213	550
214	71
