Mass Spectrum: Pentanamide, N-(2-methyl-3-trifluoromethyl)phenyl-
Formula: C13 H16 F3 N O
CAS: 1939-26-0
Molecular weight: 259
Origin: NIST Mass Spectrometry Data Center, 1994
m/z	RELATIVE INTENSITY
15	168
16	6
17	23
18	39
20	34
27	2303
28	828
29	2549
30	62
37	33
38	165
39	1375
40	261
41	2940
42	759
43	9999
44	421
46	12
50	143
51	157
52	104
53	205
54	12
55	1420
56	406
57	206
61	19
62	74
63	403
64	243
65	197
66	35
67	61
68	19
69	1622
70	12
71	8102
72	470
73	3
75	272
76	81
77	56
80	116
81	61
82	34
83	274
84	40
85	12
87	26
88	140
89	43
90	97
91	183
92	40
93	63
94	44
95	282
96	36
97	12
98	1348
99	1014
100	111
101	27
102	27
104	13
105	18
106	12
107	31
108	22
109	76
111	182
112	58
113	402
114	528
115	65
117	21
118	33
119	68
120	172
121	34
122	20
125	185
126	53
127	56
128	11
130	16
131	16
132	85
133	208
134	70
137	15
139	91
140	400
141	134
142	318
143	46
144	11
145	832
146	85
147	13
148	16
153	16
154	20
159	165
160	846
161	4062
162	424
163	20
166	19
168	55
169	7
172	63
173	44
174	95
186	48
187	155
188	519
189	51
196	16
198	18
200	20
201	11
202	56
214	30
215	26
217	2300
218	239
219	17
230	77
231	18
240	515
241	87
244	20
259	363
260	71
