Mass Spectrum: Benzene, 1-bromo-2,6-dichloro-
Formula: C6 H3 Br Cl2
CAS: 19393-92-1
Molecular weight: 224
Origin: Japan AIST/NIMC Database- Spectrum MS-NW-2798
m/z	RELATIVE INTENSITY
12	10
24	10
25	10
26	30
27	10
28	20
35	80
36	99
37	309
38	129
39	50
44	20
47	60
48	30
49	319
50	409
51	80
54	139
55	169
56	40
60	60
61	129
62	60
63	40
71	30
72	229
73	489
74	1959
75	1699
76	99
77	30
78	10
79	99
80	20
81	90
82	30
83	30
84	839
85	309
86	289
87	90
91	10
93	10
94	99
95	129
96	50
97	20
99	10
100	10
106	30
107	20
108	179
109	2299
110	949
111	779
112	409
113	389
114	169
115	30
116	20
117	10
118	40
119	80
120	20
121	40
128	60
129	30
130	70
131	20
138	10
140	10
141	10
142	10
143	10
144	99
145	3679
146	309
147	2359
148	159
149	379
150	30
151	10
152	20
153	99
154	30
155	90
156	10
163	10
164	10
165	10
177	10
187	10
188	20
189	239
190	40
191	309
192	30
193	80
223	20
224	6229
225	429
226	9999
227	639
228	4429
229	289
230	619
231	40
