Mass Spectrum: cis-4-Decene
Formula: C10 H20
CAS: 19398-88-0
Molecular weight: 140
Origin: NIST Mass Spectrometry Data Center, 1990.
m/z	RELATIVE INTENSITY
15	93
26	223
27	2557
28	841
29	2759
39	2819
41	7324
42	1897
43	2030
44	130
50	103
51	327
52	193
53	1074
54	1841
55	9999
56	4984
57	1325
65	331
66	171
67	1350
68	683
69	5801
70	3947
71	585
77	244
79	244
81	261
82	407
83	1530
84	1211
85	292
96	169
97	1198
98	396
111	406
112	217
140	2115
141	232
