Mass Spectrum: 3-Decene
Formula: C10 H20
CAS: 19398-37-9
Molecular weight: 140
Origin: D.HENNEBERG, MAX-PLANCK INSTITUTE, MULHEIM, WEST GERMANY
m/z	RELATIVE INTENSITY
22	8
24	14
26	123
27	2649
29	3241
30	111
34	8
35	26
36	3
37	101
38	77
39	2238
40	194
41	9999
42	4159
43	6649
44	80
46	8
47	9
50	67
51	141
52	94
53	709
54	892
55	9280
56	7041
57	1947
58	87
63	68
65	166
66	115
67	1123
68	660
69	7021
70	4821
71	791
72	35
77	122
78	13
79	85
80	9
81	153
82	304
83	1344
84	1405
85	268
86	20
91	14
95	20
96	116
97	1038
98	483
99	31
110	34
111	424
112	147
113	7
140	1231
141	124
