Mass Spectrum: cis-3-Decene
Formula: C10 H20
CAS: 19398-86-8
Molecular weight: 140
Origin: NIST Mass Spectrometry Data Center, 1990.
m/z	RELATIVE INTENSITY
15	86
27	2429
28	782
29	2678
39	3739
40	886
41	9944
42	2985
43	4570
44	198
50	138
51	404
52	249
53	1556
54	1763
55	9999
56	6862
57	1802
63	91
65	420
66	270
67	2041
68	1205
69	7708
70	5661
71	905
77	272
78	77
79	304
80	77
81	355
82	588
83	1807
84	1816
85	455
96	251
97	1797
98	618
110	92
111	738
112	386
140	2985
141	299
