Mass Spectrum: 3-Hexanol, 3,4-diethyl-,
Formula: C10 H22 O
CAS: 19398-78-8
Molecular weight: 158
Origin: NIST Mass Spectrometry Data Center, 1990.
m/z	RELATIVE INTENSITY
15	119
27	1618
28	902
29	3073
31	737
39	1048
41	3379
43	3270
45	5273
51	143
53	595
55	2164
56	245
57	1858
59	3510
67	361
69	5612
70	465
71	1215
73	353
77	143
79	197
81	161
83	236
85	733
87	9999
88	507
111	690
129	3279
130	276
140	260
