Mass Spectrum: p-Toluidine, 3,5-dinitro-
Formula: C7 H7 N3 O4
CAS: 19406-51-0
Molecular weight: 197
Origin: NIST Mass Spectrometry Data Center, 1998.
m/z	RELATIVE INTENSITY
14	10
15	20
16	10
25	10
26	90
27	400
28	1020
29	160
30	1220
31	20
36	10
37	150
38	390
39	1590
40	610
41	1830
42	680
43	650
44	820
45	30
46	290
47	10
48	30
49	120
50	1840
51	5129
52	5539
53	1810
54	2320
55	340
56	40
57	10
60	40
61	340
62	1170
63	2160
64	740
65	2390
66	3070
67	1910
68	850
69	190
70	60
72	10
73	90
74	540
75	720
76	1530
77	5099
78	6689
79	1260
80	700
81	310
82	70
83	60
84	20
85	50
86	120
87	150
88	150
89	570
90	520
91	700
92	1250
93	3530
94	3140
95	480
96	60
97	50
98	10
99	50
100	80
101	30
102	400
103	270
104	9999
105	5359
106	1270
107	330
108	110
109	160
110	20
111	10
114	20
116	20
117	20
118	60
119	400
120	970
121	700
122	600
123	180
124	20
125	40
131	10
132	160
133	640
134	880
135	190
136	170
137	20
138	20
139	20
141	10
148	10
149	210
150	1550
151	220
152	70
162	20
163	1690
164	190
165	20
167	60
168	10
177	10
179	70
180	9719
181	900
182	100
183	10
197	5809
198	550
199	70
