Mass Spectrum: Cyclohexanol, 1-ethyl-
Formula: C8 H16 O
CAS: 1940-18-7
Molecular weight: 128
Origin: NIST Mass Spectrometry Data Center, 1990.
m/z	RELATIVE INTENSITY
14	49
15	358
16	75
17	79
18	243
26	284
27	2906
28	966
29	3257
30	109
31	693
32	39
37	51
39	2545
40	603
41	4271
42	1118
43	6823
44	308
45	299
50	208
51	522
52	246
53	1334
54	601
55	2852
56	410
57	3791
58	180
59	113
63	133
65	382
66	283
67	1828
68	444
69	804
70	307
71	685
72	2333
73	399
74	46
77	455
78	205
79	1451
80	46
81	9601
82	981
83	262
84	46
85	7544
86	1011
87	58
91	276
93	60
95	463
97	110
99	9999
100	710
103	45
106	50
110	710
111	145
128	60
