Mass Spectrum: 1,2,3,7,8,9-Hexachlorodibenzo-p-dioxin
Formula: C12 H2 Cl6 O2
CAS: 19408-74-3
Molecular weight: 388
Origin: W. MILES, AGRIC. CAN., LAB. SERV. DIV., OTTAWA, ONT., CAN.
m/z	RELATIVE INTENSITY
96	360
108	1330
110	430
119	370
121	290
131	890
132	470
133	550
143	640
147	690
149	520
156	220
163	310
164	230
178	300
180	230
194	1040
195	1300
196	1100
227	360
228	160
229	340
255	260
257	270
262	1430
264	1840
266	900
290	160
292	200
299	220
301	130
318	270
320	350
325	1810
327	2910
329	1900
353	340
355	550
357	370
388	5180
389	690
390	9999
391	1330
392	8030
393	1080
394	3470
396	850
