Mass Spectrum: 4-Octyne
Formula: C8 H14
CAS: 1942-45-6
Molecular weight: 110
Origin: Japan AIST/NIMC Database- Spectrum MS-NW-4272
m/z	RELATIVE INTENSITY
14	10
15	70
26	199
27	1979
28	60
29	1349
30	30
31	10
37	70
38	189
39	2089
40	539
41	4729
42	589
43	449
44	10
45	10
49	30
50	379
51	859
52	789
53	3789
54	1429
55	2599
56	309
57	60
58	10
60	20
61	40
62	99
63	229
64	50
65	869
66	799
67	9999
68	2659
69	459
70	30
71	20
73	20
74	60
75	30
76	10
77	879
78	169
79	2399
80	389
81	5679
82	1459
83	99
85	10
86	10
91	169
92	20
93	289
94	40
95	1949
96	179
97	20
107	10
108	10
109	80
110	3769
111	359
112	10
