Mass Spectrum: Hexanenitrile, 5-methyl-
Formula: C7 H13 N
CAS: 19424-34-1
Molecular weight: 111
m/z	RELATIVE INTENSITY
41	9999
42	1441
43	5353
44	180
50	129
51	180
52	167
53	373
54	811
55	3449
56	322
57	463
67	77
68	515
69	3706
70	232
71	193
79	193
82	180
83	1596
84	77
85	77
96	2342
97	180
110	193
112	90
