Mass Spectrum: 5-Decyne
Formula: C10 H18
CAS: 1942-46-7
Molecular weight: 138
Origin: S.A. Rang et al., IR & MS of Unsatd. Hydrocarbons, 1977
m/z	RELATIVE INTENSITY
15	37
25	12
26	140
27	2601
29	1270
30	40
37	19
38	79
39	1936
40	442
41	4174
42	474
43	1754
44	44
45	5
49	5
50	140
51	531
52	785
53	1936
54	9999
55	3630
56	442
57	147
58	16
59	7
61	5
62	28
63	147
64	47
65	605
66	327
67	6316
68	1815
69	458
70	58
71	19
72	5
74	9
75	28
76	9
77	545
78	131
79	752
80	311
81	5790
82	1149
83	172
84	26
85	9
86	5
87	5
89	9
90	5
91	213
92	33
93	213
94	93
95	2904
96	1331
97	147
98	12
99	5
100	12
103	7
105	19
107	28
108	12
109	968
110	204
111	21
121	5
123	213
124	26
138	605
139	63
140	5
