Mass Spectrum: 1,5-Cyclododecadiene, (E,Z)-
Formula: C12 H20
CAS: 19428-99-0
Molecular weight: 164
Origin: D.HENNEBERG, MAX-PLANCK INSTITUTE, MULHEIM, WEST GERMANY
m/z	RELATIVE INTENSITY
25	18
26	70
27	1543
28	248
29	1205
30	20
35	15
37	60
38	64
39	3217
40	512
41	6203
42	409
43	423
46	7
50	93
51	357
52	269
53	1790
54	8904
55	4453
56	335
57	91
60	3
62	13
63	122
64	50
65	706
66	925
67	9999
68	4048
69	1250
70	63
71	26
74	44
75	56
76	23
77	827
78	556
79	3877
80	4024
81	6898
82	3067
83	761
84	42
89	38
90	14
91	525
92	147
93	2533
94	2440
95	2367
96	1054
97	346
98	21
103	16
104	6
105	75
106	40
107	1723
108	954
109	827
110	388
111	40
113	2
117	5
119	10
120	77
121	3929
122	963
123	285
124	16
133	5
134	15
135	1428
136	996
137	94
149	288
150	25
163	4
164	599
165	68
