Mass Spectrum: Cholesta-8,14-dien-3-ol, (3.beta.,5.alpha.)-
Formula: C27 H44 O
CAS: 19431-20-0
Molecular weight: 384
Origin: DR GLENN PATTERSON
m/z	RELATIVE INTENSITY
39	400
41	2800
42	300
43	4300
53	400
55	2600
56	300
57	2000
67	1100
69	1400
71	800
77	700
79	1200
81	1300
83	600
91	1800
92	300
93	1300
95	1000
97	300
105	1900
106	300
107	1200
109	500
110	800
115	500
116	300
117	1000
118	400
119	1300
120	300
121	500
128	700
129	1200
130	500
131	1500
132	300
133	800
135	300
141	700
142	600
143	1500
144	600
145	1900
146	500
147	800
153	300
154	300
155	900
156	500
157	1100
158	400
159	2100
160	500
161	800
165	300
167	400
168	300
169	800
170	300
171	900
172	400
173	600
181	400
183	800
184	400
185	800
186	300
187	500
195	400
197	800
198	400
199	900
200	300
211	900
212	300
213	500
217	700
218	300
223	300
225	400
227	300
229	400
237	500
238	1800
239	1300
240	300
241	300
243	300
253	1100
254	400
255	900
256	1100
257	1200
258	400
269	500
270	400
271	2500
272	900
273	300
285	300
299	400
312	300
325	300
351	3800
352	1200
353	300
367	600
368	300
369	8699
370	2700
371	500
382	500
383	500
384	9999
385	3000
386	600
