Mass Spectrum: Methane, chlorotrinitro-
Formula: C Cl N3 O6
CAS: 1943-16-4
Molecular weight: 185
Origin: J.T.LARKINS U.S. DEPT. OF COMMERCE, WASHINGTON, D.C., USA
m/z	RELATIVE INTENSITY
30	130
35	9999
37	3247
42	649
46	5238
51	87
53	43
61	43
63	43
93	2468
95	823
104	476
139	7576
141	2338
150	173
