Mass Spectrum: 2-Ethynyl pyridine
Formula: C7 H5 N
CAS: 1945-84-2
Molecular weight: 103
Origin: NIST Mass Spectrometry Data Center, 1994
m/z	RELATIVE INTENSITY
12	55
13	50
14	20
16	9
17	25
18	13
24	52
25	166
26	781
27	237
28	464
32	29
36	179
37	922
38	625
39	569
40	61
48	107
49	682
50	5095
51	2279
52	1559
53	144
60	72
61	220
62	225
63	596
64	136
65	15
72	38
73	355
74	1118
75	1209
76	5632
77	754
78	55
87	11
88	23
98	17
99	73
100	33
103	9999
104	794
105	33
