Mass Spectrum: o-Toluic acid, octyl ester
Formula: C16 H24 O2
CAS: 194725-26-3
Molecular weight: 248
Origin: Zaikin V.G., TIPS RAS, Moscow, Russia
m/z	RELATIVE INTENSITY
27	150
28	10
29	110
39	260
40	40
41	791
42	220
43	911
44	60
50	30
51	80
53	60
54	50
55	520
56	320
57	1051
58	40
62	30
63	140
64	50
65	701
66	40
67	70
68	70
69	320
70	350
71	751
72	40
77	170
79	110
82	70
83	270
84	200
89	320
90	550
91	3183
92	340
93	200
97	30
105	60
112	230
118	5145
119	5745
120	470
121	40
135	300
136	9999
137	4044
138	330
149	40
248	1331
249	260
