Mass Spectrum: 3,3'-Diaminodiphenylmethane
Formula: C13 H14 N2
CAS: 19471-12-6
Molecular weight: 198
Origin: NIST Mass Spectrometry Data Center, 1994
m/z	RELATIVE INTENSITY
15	92
17	131
18	359
27	332
28	501
30	820
36	22
37	101
38	613
39	2746
40	335
41	748
42	529
50	513
51	1265
52	1178
53	853
54	687
55	76
56	45
58	63
59	96
61	66
62	424
63	1104
64	659
65	2016
66	641
67	243
68	59
69	42
71	119
72	231
75	280
76	572
77	2405
78	926
79	894
80	548
81	158
82	34
83	34
84	350
85	167
86	86
87	125
88	124
89	645
90	723
91	707
92	223
93	683
94	93
98	1182
99	786
101	156
102	282
103	346
104	688
105	93
106	3136
107	312
113	118
114	142
115	643
116	207
117	214
118	73
119	52
121	66
126	153
127	424
128	383
129	169
130	640
131	166
132	51
139	230
140	203
141	215
142	98
143	327
144	257
145	58
150	109
151	409
152	1107
153	821
154	458
155	167
156	351
157	101
158	54
163	139
164	155
165	510
166	301
167	526
168	533
169	230
170	148
171	72
177	62
178	198
180	3659
181	1785
182	1732
183	1023
184	114
195	663
196	577
197	3730
198	9999
199	1460
200	105
