Mass Spectrum: L-Alanine, N-L-alanyl-
Formula: C6 H12 N2 O3
CAS: 1948-31-8
Molecular weight: 160
m/z	RELATIVE INTENSITY
15	695
27	618
28	4710
29	309
40	232
41	425
42	1313
43	965
44	9999
45	347
54	116
55	193
56	1158
57	232
58	154
70	386
71	1004
72	154
98	154
99	4633
100	386
114	386
142	4517
143	270
