Mass Spectrum: 4-Nitro-4'-aminodiphenylsulfone
Formula: C12 H10 N2 O4 S
CAS: 1948-92-1
Molecular weight: 278
Origin: Japan AIST/NIMC Database- Spectrum MS-NW-7912
m/z	RELATIVE INTENSITY
15	20
18	10
26	20
27	80
28	299
29	20
30	479
32	30
36	10
37	50
38	209
39	1099
40	80
41	339
42	109
43	30
44	30
45	80
46	20
48	10
49	10
50	629
51	219
52	319
53	279
54	139
55	30
57	10
58	30
59	10
60	10
61	40
62	159
63	609
64	489
65	3609
66	479
67	40
68	30
69	80
70	99
71	30
72	10
73	20
74	199
75	409
76	409
77	90
78	90
79	60
80	909
81	70
82	30
83	119
84	70
85	30
86	30
87	20
88	30
89	60
90	99
91	259
92	4799
93	629
94	30
95	70
96	99
97	30
98	10
99	20
100	10
101	20
102	20
103	10
104	10
106	10
107	20
108	7539
109	569
110	40
111	10
112	129
113	30
114	30
115	70
116	40
117	30
120	10
121	10
122	80
123	149
124	199
125	30
126	20
127	40
128	50
129	20
130	99
131	10
138	20
139	179
140	1739
141	209
142	99
143	10
149	10
150	20
151	80
152	70
153	30
154	50
155	20
156	2769
157	259
158	159
159	20
164	10
165	10
166	119
167	519
168	389
169	60
170	509
171	60
172	30
181	10
182	20
183	40
184	119
185	30
186	40
187	10
196	20
197	20
198	20
199	20
200	20
213	20
214	259
215	50
216	10
228	20
231	30
232	99
233	20
244	10
246	30
247	10
248	70
249	10
260	20
261	20
262	80
263	10
277	70
278	9999
279	1529
280	659
281	80
282	10
