Mass Spectrum: 1-Tridecanethiol
Formula: C13 H28 S
CAS: 19484-26-5
Molecular weight: 216
Origin: Japan AIST/NIMC Database- Spectrum MS-NW-5104
m/z	RELATIVE INTENSITY
14	20
15	60
16	20
17	10
18	30
26	80
27	1959
28	399
29	3699
30	90
31	30
32	109
33	20
34	60
35	189
36	50
37	20
38	30
39	1279
40	259
41	7709
42	2199
43	9779
44	349
45	409
46	129
47	1799
48	80
49	99
50	30
51	70
52	50
53	569
54	1099
55	9999
56	7299
57	8499
58	429
59	169
60	519
61	1429
62	109
63	90
64	10
65	90
66	139
67	1359
68	3269
69	9069
70	7319
71	3499
72	229
73	189
74	109
75	169
76	30
77	70
78	30
79	129
80	40
81	629
82	3119
83	8799
84	4929
85	1969
86	119
87	339
88	409
89	2199
90	149
91	139
92	20
93	30
94	20
95	259
96	1549
97	6099
98	3029
99	449
100	40
101	149
102	50
103	319
104	30
105	30
106	10
108	10
109	70
110	579
111	3099
112	2009
113	259
114	20
115	60
116	10
117	70
119	20
123	30
124	259
125	1429
126	1089
127	179
128	20
129	40
130	10
131	30
133	10
134	90
136	90
137	20
138	119
139	409
140	519
141	99
142	10
143	20
145	20
148	20
151	20
152	90
153	279
154	1309
155	179
156	20
157	10
159	20
167	20
171	20
173	20
178	10
180	40
181	10
182	2799
183	469
184	50
185	10
187	40
188	10
199	10
201	10
210	10
212	20
213	30
214	50
215	379
216	1839
217	349
218	99
219	20
