Mass Spectrum: 4-Fluoro-2-(trifluoromethyl)benzonitrile
Formula: C8 H3 F4 N
CAS: 194853-86-6
Molecular weight: 189
Origin: NIST Mass Spectrometry Data Center
m/z	RELATIVE INTENSITY
17	20
18	30
19	20
20	20
25	30
26	100
28	250
31	1171
32	80
33	30
36	50
37	370
38	250
39	90
40	10
44	90
45	40
46	50
48	20
49	190
50	871
51	300
52	60
55	60
56	220
57	310
58	10
60	70
61	290
62	290
63	260
64	130
68	510
69	2362
70	120
72	80
73	170
74	420
75	1181
76	270
77	20
79	60
80	80
81	130
82	70
85	220
86	90
87	180
88	350
89	60
92	200
93	771
94	410
99	611
100	1151
101	110
102	10
103	10
104	30
105	50
106	80
107	10
108	10
110	10
111	50
112	360
113	160
117	110
118	140
119	260
120	671
121	70
122	10
123	70
124	70
125	120
126	10
130	10
132	10
136	10
137	40
139	4534
140	350
141	10
143	460
144	891
145	70
148	10
150	220
151	20
157	10
161	60
162	270
163	340
164	20
168	90
170	4504
171	390
172	10
188	1762
189	9999
190	891
191	40
