Mass Spectrum: cis-1-Ethyl-3-methyl-cyclohexane
Formula: C9 H18
CAS: 19489-10-2
Molecular weight: 126
Origin: NIST Mass Spectrometry Data Center, 1990.
m/z	RELATIVE INTENSITY
27	880
28	370
29	944
39	1600
40	344
41	2930
42	549
43	624
50	76
51	231
52	118
53	714
54	76
55	8293
56	1030
57	221
65	203
66	88
67	760
68	322
69	2430
70	326
77	186
79	228
81	981
82	130
83	246
84	61
91	69
96	2010
97	9999
98	793
111	286
126	2289
127	229
