Mass Spectrum: Acetic acid, methoxy-, anhydride
Formula: C6 H10 O5
CAS: 19500-95-9
Molecular weight: 162
m/z	RELATIVE INTENSITY
13	40
14	160
15	1431
16	50
17	50
18	80
27	20
28	320
29	1882
30	130
31	841
32	60
33	50
36	20
41	50
42	400
43	90
44	210
45	9999
46	280
47	30
56	20
57	30
59	110
60	2232
61	80
72	20
75	20
100	20
