Mass Spectrum: n-Butylethylenediamine
Formula: C6 H16 N2
CAS: 19522-69-1
Molecular weight: 116
Origin: NIST Mass Spectrometry Data Center
m/z	RELATIVE INTENSITY
11	20
15	220
16	10
17	70
18	450
25	20
26	150
27	1121
28	1772
29	1922
30	6116
38	60
39	561
40	170
41	2022
42	1211
43	1091
44	9999
45	250
50	30
51	30
52	20
53	80
54	80
55	250
56	490
57	941
58	80
68	40
69	50
70	100
71	60
72	150
73	380
83	20
84	80
86	4844
87	330
99	40
116	190
117	20
