Mass Spectrum: N-Isopropylethylenediamine
Formula: C5 H14 N2
CAS: 19522-67-9
Molecular weight: 102
Origin: Japan AIST/NIMC Database- Spectrum MS-NW-8528
m/z	RELATIVE INTENSITY
14	10
15	199
16	10
17	40
18	59
26	40
27	559
28	759
29	189
30	9999
31	189
32	10
37	10
38	20
39	259
40	80
41	909
42	689
43	1519
44	2409
45	90
51	10
52	10
53	10
54	60
55	40
56	269
57	109
58	1039
59	139
68	40
69	20
70	289
71	129
72	5739
73	299
81	30
82	10
83	20
84	40
85	40
86	30
87	90
101	10
102	60
103	40
