Mass Spectrum: 1H-Indol-5-ol
Formula: C8 H7 N O
CAS: 1953-54-4
Molecular weight: 133
Origin: NIST Mass Spectrometry Data Center, 1994
m/z	RELATIVE INTENSITY
26	130
27	184
28	273
29	145
37	154
38	241
39	280
40	66
41	60
42	23
43	17
49	117
50	779
51	1389
52	1018
53	395
54	69
55	85
61	141
62	253
63	309
64	99
65	90
66	535
73	58
74	226
75	263
76	527
77	1497
78	1786
79	788
80	134
81	29
85	42
86	52
87	67
88	65
89	100
102	100
104	3718
105	2277
106	396
107	24
114	26
115	59
132	1273
133	9999
134	902
135	57
