Mass Spectrum: 3-Heptanol, 3,5-dimethyl-
Formula: C9 H20 O
CAS: 19549-74-7
Molecular weight: 144
Origin: NIST Mass Spectrometry Data Center, 1990.
m/z	RELATIVE INTENSITY
15	187
18	115
27	1320
28	785
29	2382
30	115
31	379
32	106
39	992
41	2897
42	510
43	2850
44	154
45	852
51	101
53	360
55	3968
56	597
57	2256
58	349
59	1997
67	237
69	875
70	1091
71	2137
72	237
73	9999
74	421
79	77
85	186
97	1264
98	99
115	1642
116	141
126	223
129	404
