Mass Spectrum: 2-Heptanone, 4,6-dimethyl-
Formula: C9 H18 O
CAS: 19549-80-5
Molecular weight: 142
Origin: NIST Mass Spectrometry Data Center, 1990.
m/z	RELATIVE INTENSITY
15	463
27	1179
28	606
29	820
39	1427
40	312
41	2902
43	9999
44	296
53	247
55	755
56	537
57	1671
58	5244
59	1712
67	383
69	3132
70	218
71	628
82	201
83	782
84	2990
85	3149
86	214
99	152
109	524
127	163
