Mass Spectrum: 4-Heptanol, 3,5-dimethyl-
Formula: C9 H20 O
CAS: 19549-79-2
Molecular weight: 144
Origin: NIST Mass Spectrometry Data Center, 1990.
m/z	RELATIVE INTENSITY
26	127
27	1343
28	959
29	2839
30	175
31	627
32	135
39	1076
41	3705
42	323
43	1543
45	9999
46	232
53	302
55	821
56	478
57	2602
58	823
59	242
67	182
69	4717
70	450
71	741
85	242
86	1518
87	7320
88	430
