Mass Spectrum: 3-Heptanone, 2,6-dimethyl-
Formula: C9 H18 O
CAS: 19549-83-8
Molecular weight: 142
Origin: NIST Mass Spectrometry Data Center, 1990.
m/z	RELATIVE INTENSITY
15	197
27	2136
28	1024
29	926
32	98
39	1525
41	3363
42	983
43	9999
44	372
53	255
55	994
56	447
57	503
58	153
68	146
69	231
71	5010
72	275
81	5010
82	339
86	2421
87	248
99	2231
100	157
142	1472
143	127
