Mass Spectrum: 3-Heptanol, 2,6-dimethyl-
Formula: C9 H20 O
CAS: 19549-73-6
Molecular weight: 144
m/z	RELATIVE INTENSITY
12	10
13	10
14	40
15	390
16	20
17	20
18	50
19	60
25	10
26	270
27	3833
28	671
29	2732
30	160
31	791
32	20
33	10
36	60
37	50
38	120
39	1822
40	330
41	4694
42	641
43	4934
44	611
45	1011
46	30
47	10
48	10
49	10
50	50
51	100
52	50
53	340
54	100
55	5495
56	1111
57	2983
58	390
59	420
60	20
61	10
62	10
63	20
64	10
65	40
67	140
69	1301
70	290
71	911
72	340
73	5515
74	250
75	20
77	30
78	10
79	30
81	390
82	80
83	9999
84	681
85	90
86	270
87	270
88	20
89	10
91	10
92	10
93	10
95	10
97	110
98	30
99	340
100	611
101	2712
102	170
103	10
105	10
107	10
109	10
111	90
112	10
113	10
115	90
116	10
117	10
119	10
123	10
125	10
126	120
127	30
128	10
129	20
131	10
132	10
140	10
141	10
142	170
143	50
