Mass Spectrum: 3-Heptanol, 2,2-dimethyl-
Formula: C9 H20 O
CAS: 19549-70-3
Molecular weight: 144
Origin: NIST Mass Spectrometry Data Center, 1990.
m/z	RELATIVE INTENSITY
15	132
27	1004
28	762
29	1627
31	341
32	128
39	898
41	4120
42	294
43	1545
44	441
45	1267
53	208
55	645
56	926
57	3696
58	275
59	393
67	182
69	9999
70	714
71	372
73	120
85	415
86	2242
87	5419
88	304
129	119
