Mass Spectrum: 3,3-Dimethyl-4-heptanol
Formula: C9 H20 O
CAS: 19549-78-1
Molecular weight: 144
Origin: NIST Mass Spectrometry Data Center, 1990.
m/z	RELATIVE INTENSITY
27	1307
28	151
29	1445
30	151
31	585
39	1410
40	370
41	3194
42	836
43	7262
44	651
45	2120
51	159
52	83
53	631
54	83
55	9999
56	790
57	1739
58	83
59	1505
65	136
67	402
69	1629
70	7223
71	5910
72	2744
73	5568
74	235
77	88
79	101
81	107
83	834
84	594
85	188
97	685
98	80
101	1343
102	119
115	191
126	214
129	122
