Mass Spectrum: 1-Butanol, 2,3-dimethyl-
Formula: C6 H14 O
CAS: 19550-30-2
Molecular weight: 102
Origin: Japan AIST/NIMC Database- Spectrum MS-IW-5278
m/z	RELATIVE INTENSITY
14	10
15	109
17	20
18	70
26	99
27	1679
28	319
29	1899
30	119
31	2369
32	30
33	10
37	40
38	99
39	1569
40	279
41	5529
42	4259
43	9999
44	569
45	2139
46	50
50	70
51	119
52	40
53	369
54	99
55	2479
56	1349
57	1309
58	339
59	1119
60	109
61	189
62	10
63	10
65	30
66	10
67	129
68	50
69	5199
70	2459
71	9739
72	589
73	99
77	10
79	10
81	10
82	20
83	219
84	4339
85	699
86	40
87	99
97	80
98	20
99	40
100	10
101	40
