Mass Spectrum: 3-Hexanone, 4,4-dimethyl-
Formula: C8 H16 O
CAS: 19550-14-2
Molecular weight: 128
Origin: NIST Mass Spectrometry Data Center, 1990.
m/z	RELATIVE INTENSITY
14	114
15	194
26	265
27	2394
28	1203
29	3325
32	134
39	1553
40	292
41	2329
42	134
43	9971
44	401
51	140
53	375
55	1780
57	3132
58	112
70	2764
71	9999
72	602
99	233
100	841
128	850
129	93
