Mass Spectrum: trans-4,4-Dimethyl-2-hexene
Formula: C8 H16
CAS: 19550-83-5
Molecular weight: 112
Origin: NIST Mass Spectrometry Data Center, 1990.
m/z	RELATIVE INTENSITY
15	132
26	114
27	931
28	344
29	790
39	1897
40	392
41	2945
42	246
43	851
44	94
50	172
51	368
52	163
53	858
54	94
55	9068
56	528
57	129
63	124
65	377
66	147
67	1073
68	262
69	1176
70	315
71	107
77	222
78	62
79	322
81	270
83	9999
84	719
97	819
112	1599
113	157
