Mass Spectrum: Octane, 3,7-dimethyl-1-(2,5-xylyl)-
Formula: C18 H30
CAS: 19550-60-8
Molecular weight: 246
Origin: NIST Mass Spectrometry Data Center, 1990.
m/z	RELATIVE INTENSITY
27	469
28	119
29	596
39	373
41	1565
42	210
43	1443
44	71
51	104
53	152
55	347
56	96
57	290
65	172
67	50
69	104
71	176
77	422
78	188
79	251
85	55
91	1312
92	118
93	121
102	64
103	298
104	315
105	1613
106	393
107	86
115	382
116	155
117	698
118	64
119	4352
120	9999
121	1013
128	100
129	75
131	147
132	254
133	455
134	57
145	83
246	1326
247	267
