Mass Spectrum: trans-3,4-Dimethylcyclopentanone
Formula: C7 H12 O
CAS: 19550-73-3
Molecular weight: 112
Origin: NIST Mass Spectrometry Data Center, 1990.
m/z	RELATIVE INTENSITY
15	349
27	1320
28	1112
29	478
38	443
39	3099
40	803
41	4191
42	8224
43	825
53	537
54	304
55	2532
56	421
67	309
69	9999
70	2602
83	341
112	3958
