Mass Spectrum: 5-Hexen-3-ol, 2,3-dimethyl-
Formula: C8 H16 O
CAS: 19550-90-4
Molecular weight: 128
Origin: NIST Mass Spectrometry Data Center, 1990.
m/z	RELATIVE INTENSITY
15	338
27	1084
28	715
29	557
31	227
32	137
38	206
39	1834
40	322
41	3746
43	9999
44	357
45	2078
51	135
53	336
55	441
57	303
59	235
65	164
67	490
69	3767
70	275
71	848
85	1471
87	5990
88	378
95	358
110	117
