Mass Spectrum: 2,2-Dimethyl-5-hexen-3-ol
Formula: C8 H16 O
CAS: 19550-89-1
Molecular weight: 128
Origin: NIST Mass Spectrometry Data Center, 1990.
m/z	RELATIVE INTENSITY
14	152
15	416
26	196
27	2026
28	1310
29	2253
31	504
32	233
39	2940
41	8027
42	905
43	6657
44	455
45	2877
51	270
53	581
54	182
55	673
56	864
57	4666
58	229
59	318
67	404
69	5286
70	1091
71	3405
72	237
77	140
85	148
87	9999
88	531
95	276
