Mass Spectrum: 2,2-Dimethyl-3-heptene trans
Formula: C9 H18
CAS: 19550-75-5
Molecular weight: 126
Origin: NIST Mass Spectrometry Data Center, 1990.
m/z	RELATIVE INTENSITY
15	106
26	93
27	874
28	390
29	954
39	1688
41	4034
42	384
43	558
44	71
50	117
51	309
52	164
53	896
54	71
55	5661
56	457
57	870
63	100
65	330
66	148
67	1245
68	100
69	9999
70	1494
71	109
77	304
78	78
79	327
81	254
83	5630
84	1586
85	111
95	121
97	662
111	797
126	1027
127	100
