Mass Spectrum: 8-Decen-3-ol, 5,9-dimethyl-
Formula: C12 H24 O
CAS: 19550-54-0
Molecular weight: 184
Origin: NIST Mass Spectrometry Data Center, 1990.
m/z	RELATIVE INTENSITY
27	2041
28	1154
29	2548
31	2284
39	2393
41	9999
42	1044
43	2507
44	879
45	403
53	1629
54	638
55	5559
56	1814
57	2641
59	3163
65	375
67	5776
68	1964
69	7297
70	1074
71	696
72	483
73	497
77	408
79	620
81	8201
82	8611
83	1408
95	6131
96	1247
97	451
99	6199
100	456
109	4644
110	3470
111	528
112	472
123	1484
137	596
155	1492
