Mass Spectrum: 2,9-Dimethyl-5-decyne
Formula: C12 H22
CAS: 19550-56-2
Molecular weight: 166
Origin: NIST Mass Spectrometry Data Center
m/z	RELATIVE INTENSITY
15	170
16	10
18	30
26	90
27	2202
28	240
29	2582
30	50
37	20
38	100
39	2352
40	611
41	5745
42	460
43	3103
44	80
50	150
51	561
52	611
53	1131
54	2252
55	2682
56	2702
57	1601
58	70
61	10
62	40
63	190
64	60
65	851
66	390
67	4694
68	1321
69	2262
70	290
71	30
74	10
75	10
77	821
78	170
79	1041
80	240
81	4304
82	2102
83	300
84	20
85	10
89	20
91	500
92	70
93	460
95	9999
96	1621
97	310
98	40
103	20
105	40
107	110
109	1191
110	1511
111	180
112	10
121	10
122	40
123	490
124	100
135	10
137	10
151	420
152	40
166	20
