Mass Spectrum: 2-Hexanone, 3,4-dimethyl-
Formula: C8 H16 O
CAS: 19550-10-8
Molecular weight: 128
Origin: CONTINENTAL OIL CO., PONCA CITY, OKLA, USA
m/z	RELATIVE INTENSITY
18	37
19	6
25	8
26	162
27	1518
28	414
29	1441
30	37
31	27
32	9
37	24
38	64
39	841
40	119
41	1648
42	243
43	9999
44	293
45	95
49	7
50	54
51	92
52	35
53	195
54	67
55	470
56	249
57	1249
58	69
59	28
62	8
63	15
65	21
66	11
67	50
68	14
69	227
70	36
71	193
72	4090
73	214
74	18
77	14
78	6
79	14
80	5
81	25
82	6
83	34
84	77
85	654
86	47
87	16
93	5
95	21
97	14
98	5
99	207
100	18
104	8
105	35
106	6
110	8
111	6
113	59
114	6
117	19
118	6
119	18
128	23
129	8
