Mass Spectrum: 4-Benzyloxyiodobenzene
Formula: C13 H11 I O
CAS: 19578-68-8
Molecular weight: 310
Origin: NIST Mass Spectrometry Data Center, 1994
m/z	RELATIVE INTENSITY
26	58
27	93
29	32
37	143
38	556
39	905
40	67
41	189
46	18
50	525
51	511
52	141
53	52
55	11
61	158
62	476
63	1432
64	1083
65	1858
66	114
73	30
74	157
75	117
76	271
77	189
78	32
79	13
86	21
87	23
89	370
91	9999
92	1085
93	57
105	30
115	15
127	143
128	36
151	16
152	40
153	39
154	21
164	16
165	42
181	29
183	11
191	224
192	11
203	14
219	147
220	17
310	499
311	67
