Mass Spectrum: Benzene, 1-bromo-2-(methylthio)-
Formula: C7 H7 Br S
CAS: 19614-16-5
Molecular weight: 202
Origin: Japan AIST/NIMC Database- Spectrum MS-NW-8611
m/z	RELATIVE INTENSITY
14	10
15	90
26	30
27	80
28	30
29	10
32	30
36	10
37	179
38	329
39	489
40	20
41	30
43	99
44	80
45	2769
46	379
47	469
48	40
49	149
50	1309
51	899
52	90
53	80
54	119
55	10
56	10
57	109
58	429
59	40
60	179
61	229
62	339
63	1009
64	169
65	99
66	10
68	40
69	1799
70	119
71	139
72	30
73	149
74	729
75	889
76	649
77	1809
78	529
79	499
80	60
81	429
82	839
83	70
84	50
85	20
86	10
89	159
90	239
91	169
92	20
93	139
94	20
95	60
96	30
97	80
100	10
101	90
102	99
104	10
105	70
106	99
107	279
108	6699
109	539
110	309
111	20
116	10
117	50
118	10
119	50
120	30
121	1039
122	1339
123	1189
124	189
125	60
126	10
128	30
129	40
130	30
131	40
135	10
137	10
141	10
143	40
145	30
149	10
155	90
156	819
157	139
158	809
159	60
160	10
169	1739
170	129
171	1699
172	129
186	40
187	1009
188	119
189	1039
190	80
191	40
199	10
201	199
202	9779
203	1009
204	9999
205	849
206	459
207	30
