Mass Spectrum: Pyridine, 1-acetyl-1,2,3,4-tetrahydro-
Formula: C7 H11 N O
CAS: 19615-27-1
Molecular weight: 125
Origin: CARL DJERASSI DEPT OF CHEM STANFORD UNIV STANFORD CALIF 94305
m/z	RELATIVE INTENSITY
41	594
42	396
43	3960
53	594
54	1980
55	1188
67	396
68	3663
80	891
82	9999
83	9405
84	594
125	7029
126	594
