Mass Spectrum: Imidodicarbonic acid, diethyl ester
Formula: C6 H11 N O4
CAS: 19617-44-8
Molecular weight: 161
Origin: Leung Pu, NIH, Bethesda, Maryland, U.S.
m/z	RELATIVE INTENSITY
41	373
42	566
43	2753
44	8404
45	9999
46	1002
47	377
49	80
50	24
51	23
53	14
54	44
55	95
56	262
57	103
58	158
59	390
60	8
61	112
62	647
63	151
64	35
65	19
69	26
70	1052
71	122
72	524
73	110
74	739
75	56
76	6
77	17
78	18
81	9
82	11
83	9
85	4
87	40
88	3102
89	2145
90	475
91	51
97	8
99	38
100	20
102	61
104	30
105	17
106	279
107	74
108	46
109	39
110	5
111	5
114	42
115	31
116	2395
117	2104
118	129
119	18
120	5
127	45
131	22
132	142
133	6902
134	32
143	13
144	16
145	5
146	62
147	7
160	25
161	220
162	17
