Mass Spectrum: Androst-5-ene-3,17-diol, (3.beta.,17.alpha.)-
Formula: C19 H30 O2
CAS: 1963-03-7
Molecular weight: 290
Origin: H. ALDERCREUTZ, UNIVERSITY OF HELSINKI, HELSINKI, FINLAND
m/z	RELATIVE INTENSITY
61	1286
65	214
67	557
69	410
70	986
73	395
77	55
78	49
79	1525
80	116
81	1749
82	134
83	346
84	202
85	484
88	465
91	2803
92	2150
93	2254
94	1176
95	1712
96	321
97	560
98	61
104	330
105	2818
106	1145
107	5881
108	1317
109	1436
110	382
111	202
117	796
118	631
119	2708
120	2475
121	2407
122	722
123	778
124	980
125	931
129	759
130	330
131	2518
132	925
133	2940
134	1213
135	1537
136	309
137	361
138	428
141	422
142	214
143	2714
144	1010
145	4215
146	1709
147	2996
148	1880
149	563
150	459
151	1905
152	410
155	330
156	257
157	1752
158	1311
159	2217
160	2156
161	8822
162	1470
163	790
164	796
165	1017
166	925
169	698
170	263
171	1574
172	925
173	1635
174	882
175	551
176	349
177	490
178	2266
179	4999
180	759
181	202
183	1427
184	459
185	1813
186	1164
187	4411
188	961
189	447
190	312
191	263
192	257
197	1752
198	563
199	1445
200	870
201	575
202	294
203	502
204	477
205	4215
206	778
208	110
211	771
212	771
213	2750
214	906
215	1470
216	441
217	526
218	398
225	778
226	416
227	275
228	1023
229	741
230	1194
231	1286
232	477
233	300
237	245
238	220
239	9999
240	2101
241	294
243	588
244	373
246	851
247	422
253	281
254	4215
255	1225
256	294
257	6960
258	1525
259	238
270	214
272	7842
273	1740
274	336
275	1543
276	312
288	300
289	189
290	7450
291	1617
292	294
