Mass Spectrum: Benzo[b]thiophene, 3,5-dimethyl-
Formula: C10 H10 S
CAS: 1964-45-0
Molecular weight: 162
Origin: Organic Synthesis Lab, MSU, Moscow.TRC 320
m/z	RELATIVE INTENSITY
40	100
63	120
67	110
69	180
77	170
79	170
80	290
81	180
89	130
91	170
93	80
102	200
103	90
115	991
116	200
117	130
121	170
127	210
128	1141
129	380
134	210
135	100
145	150
147	2292
148	260
149	120
159	270
160	460
161	9999
162	8127
163	1301
164	430
