Mass Spectrum: Quinoline, 6-ethyl-
Formula: C11 H11 N
CAS: 19655-60-8
Molecular weight: 157
m/z	RELATIVE INTENSITY
62	397
63	993
64	397
65	397
70	265
73	497
74	728
75	497
76	927
77	265
87	331
88	662
101	331
102	397
103	265
114	265
115	728
116	662
127	397
128	596
129	728
130	497
140	265
141	828
142	9999
143	993
156	1324
157	5297
158	728
