Mass Spectrum: 1-Piperidinepropanoic acid, ethyl ester
Formula: C10 H19 N O2
CAS: 19653-33-9
Molecular weight: 185
Origin: Japan AIST/NIMC Database- Spectrum MS-NW-9223
m/z	RELATIVE INTENSITY
15	50
18	10
26	20
27	229
28	319
29	329
30	149
31	80
32	10
39	99
40	20
41	549
42	709
43	129
44	279
45	80
46	10
51	10
52	10
53	40
54	119
55	749
56	409
57	90
58	30
59	30
67	40
68	80
69	249
70	259
71	20
73	80
74	50
79	10
80	20
81	20
82	119
83	90
84	419
85	60
86	20
88	10
94	20
95	10
96	539
97	80
98	9999
99	719
100	60
101	20
102	10
110	40
111	20
112	80
113	10
114	10
116	10
128	30
129	10
130	10
138	10
140	80
141	10
142	20
144	10
154	10
156	219
157	20
170	10
183	10
184	169
185	399
186	50
