Mass Spectrum: Quinoline, 8-ethyl-
Formula: C11 H11 N
CAS: 19655-56-2
Molecular weight: 157
m/z	RELATIVE INTENSITY
62	345
63	862
64	345
65	345
74	276
75	621
76	345
77	1034
78	414
87	276
89	414
101	276
102	690
103	414
114	276
115	517
116	345
117	172
127	345
128	862
129	3448
130	862
141	276
142	1034
154	1552
155	690
156	9999
157	6896
158	862
