Mass Spectrum: 3-Bromo-5-chloro-2-hydroxybenzaldehyde
Formula: C7 H4 Br Cl O2
CAS: 19652-32-5
Molecular weight: 234
Origin: NIST Mass Spectrometry Data Center, 1994
m/z	RELATIVE INTENSITY
12	77
13	62
17	64
18	88
25	195
26	172
29	2439
30	86
35	167
36	371
37	1570
38	1184
39	716
41	25
42	159
46	121
47	224
48	204
49	876
50	827
51	276
52	25
53	1736
54	90
55	115
60	623
61	2497
62	3832
63	5912
64	775
65	170
66	331
67	52
71	297
72	730
73	1999
74	1269
75	890
76	101
77	139
78	83
79	406
80	113
81	344
82	127
84	155
85	325
86	273
87	111
89	167
90	380
91	682
92	291
93	100
95	55
96	167
97	1575
98	1031
99	2327
100	442
101	597
102	86
103	211
104	302
105	104
108	94
109	801
110	114
111	240
116	90
117	399
118	282
119	299
125	232
126	2296
127	390
128	812
129	201
130	60
131	86
137	151
139	75
140	68
141	214
142	116
143	307
144	62
145	105
151	135
153	316
154	249
155	132
156	109
172	65
177	1014
178	159
179	1455
180	89
181	323
188	910
190	1128
191	107
192	279
204	88
205	164
206	517
207	229
208	538
209	90
210	143
216	1210
218	1284
219	127
220	398
233	5247
234	7069
235	7050
236	9999
237	2424
238	2497
239	193
