Mass Spectrum: Dichlormate
Formula: C9 H9 Cl2 N O2
CAS: 1966-58-1
Molecular weight: 233
Origin: J. SHAW, BORRISTON RESEARCH, ROCKVILLE, MD, USA
m/z	RELATIVE INTENSITY
12	40
15	5185
16	150
17	280
18	730
19	10
26	330
28	9999
29	2972
30	2102
31	460
32	50
35	190
36	100
37	320
38	490
39	1091
40	60
41	80
42	110
44	1321
45	180
47	70
49	320
50	1101
51	770
52	90
53	40
55	90
56	180
58	5775
59	880
60	160
62	1741
63	1861
64	110
65	20
69	10
73	1141
74	1121
75	1521
77	980
78	90
79	40
80	20
81	10
83	60
84	260
85	350
86	370
87	440
89	2322
90	120
91	10
94	10
96	70
97	380
99	380
101	90
103	10
105	30
107	110
109	520
110	140
111	1051
112	210
113	590
114	70
115	90
119	10
120	10
121	30
123	1981
124	530
125	680
126	160
127	20
133	260
135	170
137	30
139	80
141	2202
143	850
145	330
147	450
148	50
149	170
150	30
151	20
157	10
159	3603
161	2532
163	490
164	30
173	120
175	390
176	2162
177	320
178	1431
179	110
180	210
181	10
233	160
234	40
235	100
236	20
237	10
