Mass Spectrum: 4-Decene
Formula: C10 H20
CAS: 19689-18-0
Molecular weight: 140
Origin: CARL DJERASSI DEPT OF CHEM STANFORD UNIV STANFORD CALIF 94305
m/z	RELATIVE INTENSITY
41	5400
42	2600
43	3100
44	300
50	100
51	100
52	100
53	500
54	1000
55	9999
56	6000
57	1800
58	100
65	100
66	100
67	800
68	500
69	5800
70	4700
71	700
77	100
79	100
81	200
82	400
83	2000
84	2000
85	500
95	100
96	100
97	1800
98	700
99	100
111	600
112	400
140	3200
141	400
