Mass Spectrum: Heptane, 1-ethoxy-
Formula: C9 H20 O
CAS: 1969-43-3
Molecular weight: 144
Origin: CARL DJERASSI DEPT OF CHEM STANFORD UNIV STANFORD CALIF 94305
m/z	RELATIVE INTENSITY
29	2500
31	7800
39	400
41	2900
42	1400
43	1800
45	200
47	2400
54	100
55	2000
56	2600
57	2800
58	100
59	9999
60	300
68	600
69	1500
70	4500
71	200
83	300
97	200
98	1200
99	100
129	100
144	100
