Mass Spectrum: Dibenzo[fg,ij]pentaphene
Formula: C28 H16
CAS: 197-69-3
Molecular weight: 352
Origin: D.HENNEBERG, MAX-PLANCK INSTITUTE, MULHEIM, WEST GERMANY
m/z	RELATIVE INTENSITY
36	3
91	4
115	5
117	4
164	4
176	814
177	47
178	17
179	3
193	9
207	3
214	9
215	4
278	3
279	2
289	4
298	2
299	4
300	10
301	7
302	17
303	10
304	5
305	4
311	4
313	19
314	10
315	41
316	35
317	11
318	3
319	6
320	4
321	6
322	6
323	13
324	70
325	38
326	76
327	46
328	75
329	24
330	6
331	3
332	6
333	4
334	4
335	6
336	5
337	14
338	8
339	32
340	23
341	14
342	9
343	7
346	28
348	184
349	167
350	1293
351	564
352	9999
353	3066
354	508
355	90
