Mass Spectrum: Carbonodithioic acid, O,S-dimethyl ester
Formula: C3 H6 O S2
CAS: 19708-81-7
Molecular weight: 122
m/z	RELATIVE INTENSITY
27	337
28	2303
29	4662
30	730
31	7640
32	5000
33	449
34	393
35	337
43	449
44	899
45	4101
46	3090
47	7078
48	506
49	393
58	281
59	562
60	786
61	730
62	1236
64	899
75	9999
76	2696
77	1348
78	393
79	449
91	2303
92	112
93	393
106	56
107	112
122	8651
123	562
124	899
