Mass Spectrum: Propanal, propylhydrazone
Formula: C6 H14 N2
CAS: 19718-39-9
Molecular weight: 114
Origin: ATLAS OF MASS SPECTRA OF ORGANIC COMPOUNDS, V. A. KOPTYUG, ED.
m/z	RELATIVE INTENSITY
27	1600
28	3400
29	1800
30	7140
31	160
38	50
39	470
40	110
41	1370
42	350
43	1030
44	230
45	30
52	30
54	200
55	120
56	1670
57	280
58	280
69	80
70	30
71	140
72	220
73	30
83	30
85	9999
86	470
99	50
113	50
114	2760
115	240
