Mass Spectrum: 9-Ethyl-10-methylanthracene
Formula: C17 H16
CAS: 19713-49-6
Molecular weight: 220
Origin: Organic Synthesis Lab, MSU, Moscow.TRC 283
m/z	RELATIVE INTENSITY
26	10
27	140
29	40
38	10
39	150
40	10
41	50
42	20
43	80
44	10
50	70
51	160
52	30
53	20
55	20
56	10
57	40
58	10
61	10
62	50
63	180
64	20
65	40
69	10
70	30
71	20
74	90
75	140
76	230
77	230
78	30
79	10
81	30
82	80
83	70
85	10
86	50
87	110
88	321
89	441
90	10
91	50
93	20
94	160
95	331
96	531
97	10
98	40
99	40
100	190
101	952
102	531
103	160
105	10
106	30
107	80
108	90
109	60
110	411
111	30
112	10
113	30
114	10
115	110
116	10
122	10
123	10
125	10
126	60
127	331
128	140
129	10
137	20
138	10
139	120
140	10
141	20
149	10
150	90
151	110
152	170
153	30
161	20
162	30
163	160
164	60
165	461
166	80
174	40
175	50
176	220
177	100
178	651
179	170
180	20
186	10
187	160
188	90
189	972
190	391
191	391
192	120
193	30
198	10
199	20
200	210
201	230
202	1623
203	1483
204	1032
205	9999
206	1874
207	150
208	10
209	10
211	20
212	10
213	120
214	30
215	190
216	130
217	90
218	90
219	130
220	7454
221	1343
222	110
