Mass Spectrum: 2,4-Di-tert-butylthiophenol
Formula: C14 H22 S
CAS: 19728-43-9
Molecular weight: 222
Origin: NIST Mass Spectrometry Data Center, 1994
m/z	RELATIVE INTENSITY
15	923
17	12
18	132
26	11
27	844
29	3302
30	56
34	69
35	30
39	1636
41	5793
42	247
43	138
44	30
45	497
46	49
47	126
50	127
51	593
52	127
53	411
54	59
55	601
56	49
57	9497
58	533
61	70
62	81
63	405
64	203
65	575
66	117
67	316
68	593
69	350
70	59
71	158
72	65
73	487
74	483
75	294
76	140
77	842
78	297
79	393
80	289
81	505
82	1153
84	34
85	79
86	76
87	159
88	155
89	362
90	104
91	1364
92	157
93	94
94	33
95	151
96	548
97	138
101	65
102	200
103	300
104	100
105	325
106	82
107	37
108	70
109	171
110	54
111	151
113	55
115	1468
116	497
117	636
118	139
119	123
121	203
122	110
123	1122
124	114
125	104
126	62
127	249
128	874
129	557
130	187
131	274
132	71
133	79
134	520
135	507
136	111
137	223
138	39
139	71
140	30
141	264
142	191
143	177
144	87
145	77
146	30
147	569
148	244
149	920
150	30
151	2117
152	262
153	136
157	48
158	68
159	127
160	61
161	181
162	49
163	439
164	87
165	439
166	76
171	45
173	69
174	40
175	172
176	41
177	121
178	40
179	316
180	43
189	64
191	226
205	82
207	9999
208	1496
209	533
210	86
222	2673
223	456
224	156
