Mass Spectrum: Diethyl azodicarboxylate
Formula: C6 H10 N2 O4
CAS: 1972-28-7
Molecular weight: 174
Origin: Japan AIST/NIMC Database- Spectrum MS-NW-1286
m/z	RELATIVE INTENSITY
13	10
14	70
15	219
16	20
18	10
26	109
27	1499
28	2039
29	9999
30	219
31	219
32	439
40	20
42	40
43	159
44	109
45	199
46	20
51	10
56	10
57	10
59	20
63	10
73	50
74	10
77	20
78	50
91	20
102	20
103	10
104	10
112	20
