Mass Spectrum: 2-tert-Butylthiophenol
Formula: C10 H14 S
CAS: 19728-41-7
Molecular weight: 166
Origin: NIST Mass Spectrometry Data Center
m/z	RELATIVE INTENSITY
12	10
13	40
15	1411
16	30
27	1551
28	520
29	1101
30	30
31	10
32	30
33	140
34	160
35	40
36	10
37	110
39	2893
41	2632
42	140
43	60
45	2983
46	110
47	250
48	10
50	821
51	1601
52	340
53	460
54	80
55	571
57	460
58	360
59	310
60	80
61	160
62	390
63	1131
64	240
65	1341
66	320
67	340
68	420
69	951
70	150
71	270
73	1672
74	651
75	601
76	370
77	1742
78	530
79	410
80	50
81	160
82	270
83	110
84	150
85	70
86	70
87	170
89	731
91	2682
92	310
93	180
94	50
95	110
96	30
97	110
98	40
99	30
100	10
101	70
102	370
103	440
104	160
105	561
106	90
107	180
108	260
109	1091
110	430
111	751
112	60
113	70
115	1942
116	631
117	1091
118	510
119	70
121	280
123	6836
124	661
125	410
126	60
127	50
128	130
129	70
130	30
131	50
132	70
134	1752
135	941
136	250
137	160
138	20
144	10
145	20
147	380
149	4694
151	9999
152	1161
153	480
154	40
163	70
164	180
166	5065
167	581
168	250
169	20
