Mass Spectrum: Dronabinol
Formula: C21 H30 O2
CAS: 1972-08-3
Molecular weight: 314
Origin: NIST Mass Spectrometry Data Center
m/z	RELATIVE INTENSITY
15	10
26	10
27	320
29	961
30	20
31	20
39	510
40	90
41	2762
42	160
43	2542
44	60
45	10
50	30
51	200
52	110
53	671
54	80
55	1281
56	170
57	200
58	20
59	80
62	20
63	110
64	60
65	540
66	140
67	1181
68	110
69	1061
70	60
71	200
72	20
74	10
75	40
76	80
77	1251
78	330
79	971
80	180
81	1371
82	170
83	150
84	30
85	20
86	20
87	40
88	30
89	190
90	90
91	1912
92	310
93	811
94	160
95	971
96	100
97	80
98	30
99	50
100	140
102	150
103	430
104	150
105	1071
106	270
107	1131
108	310
109	400
110	50
111	50
112	20
115	1391
116	360
117	510
118	130
119	891
120	250
121	861
122	420
123	621
124	220
125	30
126	60
127	480
128	1191
129	821
130	190
131	561
132	160
133	440
134	230
135	360
136	240
137	230
138	70
139	140
140	60
141	661
142	320
143	320
144	270
145	520
146	160
147	881
148	220
149	300
150	150
151	160
152	520
153	490
154	240
155	360
156	130
157	470
158	230
159	480
160	460
161	651
162	190
163	240
164	110
165	801
166	240
167	200
168	180
169	340
170	160
171	380
172	200
173	731
174	1581
175	831
176	300
177	170
178	220
179	170
180	70
181	350
182	190
183	360
184	160
185	380
186	200
187	1001
188	440
189	300
190	160
191	190
192	60
193	1181
194	200
195	210
196	110
197	320
198	180
199	581
200	360
201	991
202	310
203	130
204	40
205	60
206	30
207	200
208	70
209	80
210	80
211	220
212	140
213	510
214	360
215	611
216	170
217	891
218	190
219	100
220	30
221	380
222	70
223	50
224	60
225	160
226	90
227	270
228	180
229	400
230	160
231	7897
232	1431
233	450
234	70
235	10
237	20
238	20
239	60
240	70
241	180
242	270
243	3293
244	751
245	420
246	380
247	70
248	10
251	10
252	10
253	60
254	20
255	160
256	150
257	891
258	2632
259	571
260	70
261	10
265	10
266	10
267	20
268	10
269	120
270	140
271	4794
272	1131
273	190
274	20
279	10
281	50
282	20
283	80
284	30
285	400
286	260
287	50
288	10
293	10
295	40
296	20
297	761
298	190
299	9999
300	2202
301	280
302	30
310	10
312	20
313	310
314	7957
315	1862
316	240
317	20
