Mass Spectrum: Heptane, 2-bromo-
Formula: C7 H15 Br
CAS: 1974-04-5
Molecular weight: 178
Origin: RADIAN CORP
m/z	RELATIVE INTENSITY
15	90
26	140
27	1760
29	1940
30	40
37	20
38	90
39	2190
40	330
41	5810
42	1450
43	3000
44	90
50	70
51	130
52	70
53	450
54	220
55	2050
56	1370
57	9999
58	440
63	30
65	70
67	160
68	50
69	750
70	320
71	100
79	40
81	20
83	50
93	10
98	150
99	860
100	60
107	90
109	90
121	20
