Mass Spectrum: 2,5-di-(3-Methoxyphenyl)-1,3,4-oxadiazole
Formula: C16 H14 N2 O3
CAS: 19748-58-4
Molecular weight: 282
Origin: NIST Mass Spectrometry Data Center, 1994
m/z	RELATIVE INTENSITY
15	192
17	110
18	157
37	59
38	265
39	565
40	61
41	7
50	839
51	561
52	165
53	165
61	64
62	257
63	1028
64	1113
65	405
66	74
75	354
76	1110
77	2379
78	334
79	151
86	41
87	64
88	72
89	214
90	427
91	201
92	1681
93	175
102	91
103	316
104	175
105	123
106	114
107	1910
108	170
118	71
119	225
120	140
133	216
135	4248
136	362
137	44
139	144
140	134
141	317
151	63
152	286
153	264
154	46
165	338
166	80
167	106
168	228
180	133
181	274
182	127
183	308
184	62
194	89
195	987
196	667
197	412
198	53
209	46
210	127
211	948
212	137
223	218
225	1853
226	352
239	159
253	105
282	9999
283	1869
284	161
