Mass Spectrum: 2-Methyl-5-nitrobenzoic acid
Formula: C8 H7 N O4
CAS: 1975-52-6
Molecular weight: 181
Origin: NIST Mass Spectrometry Data Center, 1998.
m/z	RELATIVE INTENSITY
26	50
27	230
29	100
30	660
31	20
37	140
38	380
39	2140
40	200
41	260
42	30
43	560
44	20
45	480
46	250
47	10
49	120
50	1020
51	2050
52	780
53	1350
54	90
55	290
56	10
57	10
58	30
60	30
61	410
62	1340
63	3810
64	810
65	1000
66	210
67	360
68	40
69	50
72	10
73	90
74	470
75	400
76	280
77	9999
78	1650
79	3830
80	270
81	70
84	40
85	190
86	420
87	390
88	210
89	3910
90	1290
91	260
92	110
93	50
94	30
95	100
96	10
99	10
101	10
102	20
103	40
104	190
105	3150
106	510
107	230
108	20
109	10
115	10
116	120
117	280
118	530
119	90
120	40
121	30
122	20
123	40
131	10
132	20
133	1240
134	790
135	3180
136	350
137	40
147	10
148	20
149	10
150	30
151	300
152	30
163	7719
164	1690
165	440
166	50
179	10
181	7099
182	680
183	90
