Mass Spectrum: 5-Ethyl-3-nonanol
Formula: C11 H24 O
CAS: 19780-71-3
Molecular weight: 172
Origin: NIST Mass Spectrometry Data Center, 1990.
m/z	RELATIVE INTENSITY
27	1344
28	1396
29	2285
31	1068
32	338
39	1311
41	4861
42	799
43	3123
44	449
45	223
51	169
53	815
55	5433
56	2486
57	9999
58	1245
59	5845
60	182
65	221
67	868
69	6071
70	2512
71	819
72	386
73	350
77	189
79	232
81	394
83	2809
84	819
85	730
96	178
97	1095
98	3315
99	384
111	204
112	644
113	205
125	384
143	1014
154	426
