Mass Spectrum: 2,3-Dimethyl-4-penten-2-ol
Formula: C7 H14 O
CAS: 19781-52-3
Molecular weight: 114
Origin: NIST Mass Spectrometry Data Center, 1990.
m/z	RELATIVE INTENSITY
15	98
26	77
27	611
28	74
29	418
30	74
31	1146
38	124
39	924
40	223
41	1341
42	74
43	3485
44	124
45	84
50	144
51	254
52	105
53	482
54	166
55	722
56	714
57	152
58	84
59	9999
60	395
65	97
66	53
67	157
69	202
70	63
71	120
77	138
79	369
81	704
82	62
96	213
97	75
99	234
