Mass Spectrum: Methyl ethyl cyclopentene
Formula: C8 H14
CAS: 19780-56-4
Molecular weight: 110
Origin: NIST Mass Spectrometry Data Center, 1990.
m/z	RELATIVE INTENSITY
15	176
26	106
27	829
28	367
29	373
32	56
39	1899
40	377
41	1644
42	132
43	139
44	65
50	346
51	801
52	366
53	1416
54	310
55	1291
56	118
62	116
63	290
65	764
67	4292
68	836
69	377
74	60
77	1237
78	331
79	2359
80	60
81	9999
82	1074
83	53
91	649
92	94
93	684
94	53
95	5162
96	382
109	442
110	3119
111	251
