Mass Spectrum: 5-Dodecanone
Formula: C12 H24 O
CAS: 19780-10-0
Molecular weight: 184
Origin: Japan AIST/NIMC Database- Spectrum MS-NW-3423
m/z	RELATIVE INTENSITY
14	10
15	149
18	10
26	219
27	2939
28	799
29	4939
30	129
31	80
37	10
38	70
39	1589
40	289
41	5379
42	999
43	2609
44	99
45	60
50	50
51	109
52	50
53	369
54	169
55	1399
56	329
57	9999
58	5319
59	669
60	40
63	20
65	60
66	30
67	369
68	99
69	209
70	139
71	1389
72	319
73	30
74	10
77	50
78	10
79	70
80	20
81	159
82	359
83	179
84	179
85	3959
86	269
87	20
91	20
93	20
94	10
95	159
96	40
97	40
98	70
99	159
100	1029
101	399
102	30
109	269
110	30
111	20
113	709
114	80
115	10
120	10
123	10
124	80
125	20
127	2589
128	229
129	20
141	40
142	409
143	50
155	279
156	40
169	10
184	379
185	50
