Mass Spectrum: 3-Isoxazolecarboxylic acid, 5-methyl-, methyl ester
Formula: C6 H7 N O3
CAS: 19788-35-3
Molecular weight: 141
m/z	RELATIVE INTENSITY
43	4804
44	1201
45	200
54	1201
55	200
59	9999
60	701
68	1001
69	200
81	400
82	3003
83	400
110	1001
111	200
141	1001
142	200
