Mass Spectrum: Tridecane, 7-methylene-
Formula: C14 H28
CAS: 19780-80-4
Molecular weight: 196
Origin: NIST Mass Spectrometry Data Center, 1990.
m/z	RELATIVE INTENSITY
27	1517
28	671
29	2873
32	143
39	1840
40	611
41	6679
42	1200
43	3372
44	147
51	191
52	174
53	1302
54	797
55	6900
56	9999
57	4594
58	203
65	336
66	237
67	2013
68	1786
69	6770
70	3083
71	1115
77	326
79	619
80	120
81	734
82	614
83	2677
84	1700
85	508
95	245
97	891
98	1619
99	140
110	596
111	3335
112	549
126	525
127	174
196	563
