Mass Spectrum: 2,4-Dimethyl-1-penten-3-ol
Formula: C7 H14 O
CAS: 19781-54-5
Molecular weight: 114
Origin: NIST Mass Spectrometry Data Center, 1990.
m/z	RELATIVE INTENSITY
26	109
27	893
28	268
29	502
31	216
38	249
39	1887
40	368
41	2714
42	539
43	5615
44	271
45	269
50	131
51	201
52	131
53	582
54	236
55	862
56	211
57	1258
58	130
65	113
67	212
69	276
71	9999
72	1328
73	189
77	139
79	365
81	788
82	76
96	218
99	266
114	353
