Mass Spectrum: 3-Ethyl-2-methyl-1-heptene
Formula: C10 H20
CAS: 19780-60-0
Molecular weight: 140
Origin: NIST Mass Spectrometry Data Center, 1990.
m/z	RELATIVE INTENSITY
27	1115
28	207
29	1313
39	1894
40	467
41	4236
42	443
43	922
44	47
51	76
52	278
53	165
54	1065
55	9144
56	1681
57	605
65	66
66	275
67	172
68	1508
69	9999
70	1699
71	148
77	243
78	54
79	316
80	50
81	305
82	50
83	2204
84	9395
85	714
91	63
95	91
97	528
98	335
111	160
112	47
140	199
