Mass Spectrum: 4-Heptyn-2-ol
Formula: C7 H12 O
CAS: 19781-81-8
Molecular weight: 112
Origin: Japan AIST/NIMC Database- Spectrum MS-NW-2211
m/z	RELATIVE INTENSITY
14	40
15	309
16	10
17	20
18	70
26	119
27	1319
28	109
29	439
30	10
31	129
32	20
37	90
38	219
39	1829
40	1609
41	2899
42	1049
43	2389
44	169
45	8279
46	179
47	30
49	40
50	289
51	559
52	389
53	4109
54	219
55	349
56	60
57	139
58	70
59	10
61	60
62	129
63	229
64	50
65	449
66	509
67	7969
68	9999
69	819
70	329
71	30
74	20
75	10
77	359
78	50
79	379
80	40
81	50
82	119
83	139
84	50
85	10
91	90
92	10
93	60
94	109
95	90
96	10
97	869
98	60
110	20
111	30
112	30
