Mass Spectrum: 6-Hepten-3-ol
Formula: C7 H14 O
CAS: 19781-77-2
Molecular weight: 114
Origin: NIST Mass Spectrometry Data Center, 1990.
m/z	RELATIVE INTENSITY
14	95
15	398
16	100
18	280
19	108
26	619
27	4734
28	2014
29	5896
30	489
31	5723
32	91
37	121
38	410
39	4864
40	1103
41	9999
42	1089
43	4890
44	979
45	356
50	375
51	515
52	253
53	1279
54	4747
55	4864
56	2599
57	5262
58	721
59	8182
60	293
65	494
67	6465
68	708
69	143
71	191
72	1453
73	115
77	211
79	440
81	4387
82	296
83	201
84	115
85	1954
86	115
96	1551
97	133
