Mass Spectrum: 3-Hexanol, 4-ethyl-
Formula: C8 H18 O
CAS: 19780-44-0
Molecular weight: 130
Origin: NIST Mass Spectrometry Data Center, 1990.
m/z	RELATIVE INTENSITY
15	109
27	1307
28	669
29	1625
30	109
31	1918
32	110
39	810
41	2257
42	413
43	1787
44	139
45	512
53	233
55	1882
56	206
57	1169
58	2075
59	9999
60	334
69	175
70	1293
71	473
72	142
83	925
84	96
101	961
102	84
