Mass Spectrum: 3-Ethyl-3-heptanol
Formula: C9 H20 O
CAS: 19780-41-7
Molecular weight: 144
Origin: NIST Mass Spectrometry Data Center, 1990.
m/z	RELATIVE INTENSITY
15	219
26	306
27	3060
28	1454
29	4346
30	162
31	1012
32	173
39	1895
41	4910
42	704
43	3534
45	5060
51	256
53	804
55	9999
56	1127
57	3347
59	5046
65	216
67	585
69	3984
70	459
71	660
72	280
73	974
83	242
84	1310
85	502
87	9142
88	580
97	2040
115	8382
116	662
126	732
