Mass Spectrum: 4-Ethyl-3-octanol
Formula: C10 H22 O
CAS: 19781-26-1
Molecular weight: 158
Origin: NIST Mass Spectrometry Data Center, 1990.
m/z	RELATIVE INTENSITY
27	1188
28	670
29	2097
30	670
31	1758
39	764
41	3109
42	524
43	1772
44	138
45	198
53	238
55	1897
56	1037
57	2835
58	2812
59	9999
60	358
67	169
69	2767
70	718
71	343
72	208
73	176
83	191
84	122
85	181
87	150
98	1066
99	133
100	158
111	463
129	855
130	74
140	98
