Mass Spectrum: 4-Ethyl-2-hexene
Formula: C8 H16
CAS: 19780-46-2
Molecular weight: 112
Origin: NIST Mass Spectrometry Data Center, 1990.
m/z	RELATIVE INTENSITY
26	109
27	845
28	330
29	739
39	1540
40	299
41	2436
42	346
43	423
44	85
50	164
51	288
52	149
53	772
54	85
55	9999
56	575
63	85
65	283
66	120
67	917
68	295
69	546
70	498
77	173
79	185
81	174
83	5690
84	840
85	48
97	114
112	1680
113	152
