Mass Spectrum: 5-Hexyn-3-ol
Formula: C6 H10 O
CAS: 19780-84-8
Molecular weight: 98
Origin: Japan AIST/NIMC Database- Spectrum MS-NW-1218
m/z	RELATIVE INTENSITY
14	30
15	189
17	20
18	70
25	10
26	149
27	809
28	379
29	1089
30	80
31	5039
32	70
33	10
36	10
37	139
38	309
39	1819
40	739
41	3749
42	159
43	509
44	60
45	30
49	30
50	129
51	169
52	80
53	179
54	20
55	90
56	40
57	609
58	169
59	9999
60	339
61	20
62	20
63	30
65	50
66	20
67	20
68	80
69	799
70	80
71	10
72	10
73	10
74	20
77	70
78	10
79	149
80	30
81	20
83	70
85	50
97	10
99	10
