Mass Spectrum: 3,3-Dimethyl-2-pentanol
Formula: C7 H16 O
CAS: 19781-24-9
Molecular weight: 116
Origin: NIST Mass Spectrometry Data Center, 1990.
m/z	RELATIVE INTENSITY
15	151
27	1396
28	242
29	1356
31	248
39	1889
40	417
41	3924
42	1145
43	9999
44	708
45	6105
46	151
50	143
51	232
53	604
55	3849
56	459
57	1305
59	1344
65	108
67	235
69	2248
70	8923
71	8590
72	525
83	913
87	1177
98	272
101	544
