Mass Spectrum: Cyclopropane, 1-ethyl-2-methyl-, cis-
Formula: C6 H12
CAS: 19781-68-1
Molecular weight: 84
Origin: NIST Mass Spectrometry Data Center, 1990.
m/z	RELATIVE INTENSITY
15	745
26	745
27	3984
28	1148
29	2293
37	258
38	633
39	5518
40	1353
41	9999
42	8114
43	1693
50	551
51	725
52	274
53	1652
54	1063
55	9369
56	6566
57	287
65	284
67	604
69	4429
70	264
84	2827
