Mass Spectrum: 3-Ethyl-2-heptanol
Formula: C9 H20 O
CAS: 19780-39-3
Molecular weight: 144
Origin: NIST Mass Spectrometry Data Center, 1990.
m/z	RELATIVE INTENSITY
15	185
19	209
27	1618
28	812
29	1920
31	225
39	1055
41	3676
42	736
43	3463
44	1167
45	9999
46	232
53	366
55	2130
56	2106
57	4245
58	258
59	285
67	189
69	1785
70	1854
71	896
72	118
83	261
84	295
85	155
86	405
96	104
97	450
98	2926
99	265
126	190
129	132
