Mass Spectrum: 2,3-Dimethyl-2-octene
Formula: C10 H20
CAS: 19781-18-1
Molecular weight: 140
Origin: NIST Mass Spectrometry Data Center, 1990.
m/z	RELATIVE INTENSITY
26	118
27	1342
28	547
29	1457
39	2041
40	482
41	4339
42	493
43	1008
51	287
52	143
53	927
55	9999
56	813
57	295
65	341
66	159
67	1425
68	381
69	3708
70	1948
71	222
77	248
79	288
81	460
83	8094
84	2677
85	357
95	136
96	304
97	1729
98	320
140	2543
141	270
