Mass Spectrum: 6-Heptene-2,4-diol
Formula: C7 H14 O2
CAS: 19781-76-1
Molecular weight: 130
Origin: NIST Mass Spectrometry Data Center, 1990.
m/z	RELATIVE INTENSITY
14	57
15	443
16	15
18	175
19	604
26	195
27	1594
28	560
29	1181
30	15
31	431
32	54
38	232
39	1850
40	508
41	2952
42	1720
43	5508
44	759
45	9999
46	198
47	309
51	135
53	407
55	397
57	187
58	91
67	1008
68	787
69	538
70	252
71	2475
72	120
73	122
77	139
79	232
87	107
89	2013
97	125
