Mass Spectrum: 2-Pentanol, 3-ethyl-2-methyl-
Formula: C8 H18 O
CAS: 19780-63-3
Molecular weight: 130
Origin: NIST Mass Spectrometry Data Center, 1990.
m/z	RELATIVE INTENSITY
14	58
15	136
26	68
27	686
28	500
29	707
30	58
31	774
32	88
39	659
40	140
41	1348
42	212
43	1527
44	83
45	530
51	71
53	174
55	1419
56	111
57	279
58	71
59	9999
60	340
67	120
69	340
70	120
71	410
72	111
73	410
83	558
84	226
97	131
112	79
115	583
