Mass Spectrum: 3,5-Dimethyl-2-octanone
Formula: C10 H20 O
CAS: 19781-14-7
Molecular weight: 156
Origin: NIST Mass Spectrometry Data Center, 1990.
m/z	RELATIVE INTENSITY
15	335
27	1019
28	664
29	1014
39	978
41	2441
43	9999
44	272
45	104
53	306
55	1375
57	2873
58	169
67	193
69	610
70	287
71	2074
72	9813
73	518
83	132
84	552
85	1480
86	138
113	186
