Mass Spectrum: Cyclohexane, 1,3-dimethyl-2-methylene-, cis-
Formula: C9 H16
CAS: 19781-47-6
Molecular weight: 124
Origin: NIST Mass Spectrometry Data Center, 1990.
m/z	RELATIVE INTENSITY
27	1297
28	151
29	675
39	3059
40	717
41	3709
42	573
43	511
50	350
51	931
52	458
53	2179
54	778
55	2294
56	256
57	88
62	90
63	272
64	108
65	936
66	88
67	9999
68	8137
69	1666
70	489
77	1205
78	295
79	1822
80	582
81	4983
82	5362
83	617
91	786
92	127
93	458
94	127
95	3238
96	1415
97	113
105	195
107	235
109	8092
110	705
124	1797
125	177
