Mass Spectrum: Ethylidenecyclooctane
Formula: C10 H18
CAS: 19780-51-9
Molecular weight: 138
Origin: NIST Mass Spectrometry Data Center, 1990.
m/z	RELATIVE INTENSITY
14	139
15	124
16	81
26	259
27	2214
28	198
29	1564
39	4495
40	1043
41	6291
42	982
43	685
50	309
51	905
52	548
53	2699
54	2178
55	5147
56	764
57	139
63	254
65	1141
67	9999
68	2834
69	1743
70	1497
71	380
77	1153
78	325
79	2097
80	1083
81	8337
82	2936
83	927
84	150
91	526
92	93
93	437
94	93
95	3246
96	1383
97	164
107	118
109	3936
110	3300
111	301
123	128
138	2131
139	251
