Mass Spectrum: 2-Hexyl-1-octanol
Formula: C14 H30 O
CAS: 19780-79-1
Molecular weight: 214
Origin: NIST Mass Spectrometry Data Center, 1990.
m/z	RELATIVE INTENSITY
27	1615
28	882
29	3498
30	155
31	947
39	1020
41	6323
42	1305
43	8049
44	418
53	497
54	648
55	5491
56	3129
57	9999
58	487
66	234
67	1077
68	906
69	4185
70	2586
71	5229
72	347
79	196
81	698
82	1107
83	2724
84	1641
85	2948
86	274
95	305
96	549
97	2097
98	1014
99	721
110	746
111	2075
112	750
113	365
124	221
125	636
126	463
127	267
128	203
139	206
168	254
196	263
