Mass Spectrum: 3-Ethyl-4-methyl-2-pentene
Formula: C8 H16
CAS: 19780-68-8
Molecular weight: 112
Origin: NIST Mass Spectrometry Data Center, 1990.
m/z	RELATIVE INTENSITY
15	204
27	977
28	405
29	622
39	2288
40	502
41	4023
42	430
43	898
44	95
50	220
51	522
52	250
53	1132
54	95
55	9999
56	744
57	381
62	81
63	188
65	478
66	213
67	1154
68	371
69	3195
70	938
77	306
78	94
79	443
80	93
81	367
82	93
83	7049
84	578
91	64
95	81
97	1539
98	122
112	2621
113	261
