Mass Spectrum: 3-Octanol, 2,3-dimethyl-
Formula: C10 H22 O
CAS: 19781-10-3
Molecular weight: 158
Origin: NIST Mass Spectrometry Data Center, 1990.
m/z	RELATIVE INTENSITY
15	221
27	1856
28	927
29	1980
31	315
39	1371
41	4540
42	666
43	5158
45	3138
53	410
55	5812
56	575
57	1444
58	1132
59	1111
67	393
69	4729
70	810
71	1734
73	329
83	1242
84	627
85	263
87	9999
88	600
97	2120
98	202
115	5506
116	395
140	405
143	641
