Mass Spectrum: 4-Heptanol, 3-ethyl-
Formula: C9 H20 O
CAS: 19780-42-8
Molecular weight: 144
Origin: NIST Mass Spectrometry Data Center, 1990.
m/z	RELATIVE INTENSITY
15	118
27	1709
28	730
29	1906
31	1005
39	1022
41	2369
42	560
43	4222
44	574
45	699
53	360
55	9999
56	608
57	1327
59	2394
67	169
69	385
70	1436
71	1219
72	2213
73	6222
74	268
83	954
84	181
97	195
99	115
101	1177
