Mass Spectrum: 4-Ethyl-2-octanol
Formula: C10 H22 O
CAS: 19780-78-0
Molecular weight: 158
Origin: NIST Mass Spectrometry Data Center, 1990.
m/z	RELATIVE INTENSITY
15	268
19	280
27	2357
28	1278
29	3321
31	343
39	1722
41	6120
42	1217
43	6220
45	9999
53	539
55	5270
56	4184
57	6254
58	1073
59	920
67	418
69	5430
70	3525
71	1296
81	174
83	2074
84	1958
85	1704
98	6675
99	734
111	784
112	393
143	188
