Mass Spectrum: 4-Octanol, 2,7-dimethyl-
Formula: C10 H22 O
CAS: 19781-11-4
Molecular weight: 158
Origin: NIST Mass Spectrometry Data Center, 1990.
m/z	RELATIVE INTENSITY
27	1757
28	1020
29	2120
31	405
39	1558
41	5475
42	742
43	5580
44	984
45	2769
53	402
55	5007
56	1791
57	3295
58	1057
59	341
67	342
69	9999
70	863
71	681
72	183
81	327
83	9217
84	846
85	567
87	4289
88	228
100	424
101	2239
140	328
