Mass Spectrum: o-Chlorophenethyl alcohol
Formula: C8 H9 Cl O
CAS: 19819-95-5
Molecular weight: 156
Origin: NIST Mass Spectrometry Data Center
m/z	RELATIVE INTENSITY
15	10
26	40
27	120
28	90
29	170
30	30
31	801
35	10
36	20
37	90
38	180
39	871
40	90
41	80
43	110
44	50
45	60
46	20
47	10
49	100
50	591
51	831
52	120
53	70
55	10
56	10
59	30
60	40
61	180
62	480
63	1471
64	320
65	781
66	40
67	10
72	20
73	360
74	270
75	500
76	120
77	530
78	100
79	30
84	50
85	100
86	130
87	140
88	30
89	3223
90	951
91	9999
92	861
93	50
96	10
97	70
98	30
99	821
100	70
101	410
102	260
103	360
104	50
111	40
112	130
113	30
114	50
115	10
118	10
119	60
120	260
121	90
122	20
123	40
125	8668
126	5105
127	3093
128	1692
129	130
136	20
137	90
138	150
139	40
140	50
152	10
154	40
156	3163
157	320
158	1031
159	80
