Mass Spectrum: 1,14-Tetradecanediol
Formula: C14 H30 O2
CAS: 19812-64-7
Molecular weight: 230
Origin: RADIAN CORP
m/z	RELATIVE INTENSITY
27	440
29	1440
31	3980
39	720
41	5790
42	1280
43	2950
44	290
45	300
53	380
54	2080
55	9999
56	2090
57	2240
66	350
67	5240
68	4730
69	5740
70	1430
71	940
73	450
79	210
81	4390
82	6720
83	3550
84	640
85	390
95	3040
96	2930
97	1600
98	160
109	1100
110	780
111	380
123	290
124	120
