Mass Spectrum: Benzeneethanol, 2-methyl-
Formula: C9 H12 O
CAS: 19819-98-8
Molecular weight: 136
Origin: Japan AIST/NIMC Database- Spectrum MS-NW-5466
m/z	RELATIVE INTENSITY
15	20
18	20
26	30
27	429
28	80
29	80
30	10
31	259
32	10
37	30
38	90
39	629
40	80
41	129
42	10
43	60
44	10
45	10
49	10
50	219
51	559
52	169
53	229
54	20
55	20
57	40
58	20
59	10
61	30
62	109
63	319
64	80
65	479
66	60
67	20
73	10
74	80
75	70
76	70
77	1389
78	439
79	1389
80	90
85	10
86	20
87	30
89	159
90	60
91	2109
92	339
93	70
94	10
98	10
101	20
102	109
103	839
104	379
105	9999
106	3209
107	289
108	10
115	259
116	90
117	1019
118	1049
119	299
120	30
121	10
133	10
134	50
135	30
136	3499
137	359
138	30
