Mass Spectrum: Chloroxuron
Formula: C15 H15 Cl N2 O2
CAS: 1982-47-4
Molecular weight: 290
Origin: MASS SPECTROMETRY CENTER, UNIV. OF UTAH EPA-PTSEL 1460
m/z	RELATIVE INTENSITY
15	1507
17	84
18	112
26	162
27	446
28	180
29	200
30	158
36	124
37	180
38	412
39	834
40	200
41	341
42	985
43	873
44	3982
45	2258
46	128
49	33
50	962
51	887
52	677
53	375
54	89
55	204
56	551
57	437
58	41
61	175
62	310
63	1238
64	729
65	273
66	15
67	16
69	83
70	50
71	391
72	9999
73	1468
74	464
75	1872
76	525
77	332
78	442
79	161
80	241
81	112
83	52
84	59
85	408
87	113
88	20
89	33
90	1188
91	210
92	104
93	16
94	20
97	19
99	411
100	48
101	255
102	140
103	17
104	186
105	45
106	484
107	110
108	221
109	58
110	37
111	1233
112	148
113	452
114	47
115	70
118	39
122	187
123	15
125	18
126	85
127	628
128	561
129	124
130	45
133	57
134	689
135	250
136	53
137	64
139	213
140	71
141	28
147	91
149	57
152	61
153	129
154	499
155	161
156	102
162	370
163	181
164	39
165	142
167	60
168	166
169	18
175	47
181	40
182	1437
183	244
184	19
188	37
190	54
207	57
209	95
210	66
211	49
216	222
217	330
218	375
219	225
220	396
221	67
222	110
232	130
233	58
234	27
244	111
245	7948
246	268
247	2837
248	411
249	35
256	20
289	15
290	5975
291	597
292	1863
293	328
