Mass Spectrum: Methdilazine
Formula: C18 H20 N2 S
CAS: 1982-37-2
Molecular weight: 296
Origin: NIST Mass Spectrometry Data Center, 1998.
m/z	RELATIVE INTENSITY
15	60
26	10
27	230
29	600
30	120
37	10
38	30
39	680
40	60
41	890
42	3210
43	340
44	1840
45	410
46	10
47	20
49	10
50	190
51	380
52	100
53	430
54	250
55	4890
56	480
57	920
58	300
59	30
60	10
61	10
62	70
63	370
64	90
65	390
66	70
67	350
68	540
69	910
70	1690
71	230
72	20
73	10
74	90
75	180
76	190
77	630
78	190
79	70
80	200
81	320
82	5179
83	2070
84	1330
85	120
86	30
87	50
88	60
89	200
90	100
91	90
92	40
93	130
94	390
95	230
96	6569
97	9999
98	8239
99	640
101	160
102	170
103	80
104	70
105	50
106	50
107	40
108	350
109	560
110	70
111	40
113	130
114	130
115	280
116	120
117	60
118	30
119	20
120	70
121	110
122	70
123	10
124	20
125	80
126	230
127	850
128	570
129	90
130	50
132	60
133	30
134	150
135	60
136	120
137	60
138	130
139	750
140	590
141	120
142	20
143	20
144	30
145	120
146	120
148	130
149	20
150	80
151	470
152	1270
153	690
154	1620
155	210
156	20
157	10
158	80
159	120
160	50
161	10
162	20
163	20
164	230
165	160
166	930
167	1020
168	170
169	110
170	160
171	750
172	290
173	110
174	40
175	20
176	30
177	130
178	580
179	1160
180	5739
181	900
182	110
183	180
184	510
185	170
186	80
187	20
188	10
189	20
190	30
191	70
192	30
193	20
194	10
195	40
196	470
197	870
198	6409
199	8639
200	1460
201	480
202	70
203	40
204	310
205	110
206	100
207	20
208	30
209	80
210	270
211	160
212	4850
213	2320
214	520
215	180
216	30
217	50
218	60
219	30
220	60
221	20
222	70
223	350
224	210
225	100
226	20
227	10
232	10
234	20
235	20
236	290
237	130
238	790
239	180
240	100
241	20
247	10
248	10
249	10
250	40
251	20
252	280
253	110
254	20
255	10
264	50
265	20
266	10
267	50
268	20
292	10
293	10
294	10
296	7119
297	1600
298	520
299	80
300	10
