Mass Spectrum: Benzeneacetic acid, .alpha.-cyclopentyl-.alpha.-hydroxy-, methyl ester
Formula: C14 H18 O3
CAS: 19833-96-6
Molecular weight: 234
Origin: L.Matassa ET AL.J.Chromatogr.,573,43(1992)
m/z	RELATIVE INTENSITY
70	290
71	90
75	130
76	200
77	3213
78	991
79	1581
80	310
83	130
89	40
91	2162
92	470
97	130
103	200
104	450
105	5815
106	1672
107	2252
108	380
115	470
128	220
129	691
133	130
155	130
156	270
157	1742
158	380
166	530
173	130
174	911
175	9999
215	160
216	400
217	3723
218	240
