Mass Spectrum: Naphthalene, 1-isocyano-
Formula: C11 H7 N
CAS: 1984-04-9
Molecular weight: 153
m/z	RELATIVE INTENSITY
125	500
126	2302
127	801
151	300
152	701
153	9999
154	1301
155	60
