Mass Spectrum: Benzene, 1,2-dichloro-3-methoxy-
Formula: C7 H6 Cl2 O
CAS: 1984-59-4
Molecular weight: 176
Origin: Japan AIST/NIMC Database- Spectrum MS-NW-6549
m/z	RELATIVE INTENSITY
14	40
15	279
25	10
26	70
27	50
28	70
29	139
30	30
31	80
35	60
36	149
37	409
38	179
39	229
43	30
44	20
47	60
48	99
49	219
50	409
51	239
52	60
53	90
54	10
55	40
56	20
59	10
60	70
61	369
62	629
63	1619
64	99
65	80
66	20
71	60
72	469
73	829
74	699
75	939
76	239
77	589
78	80
83	249
84	299
85	239
86	119
87	119
88	60
89	50
90	20
91	20
94	20
95	20
96	90
97	489
98	389
99	189
100	119
101	10
105	30
106	20
107	439
108	70
109	629
110	229
111	879
112	259
113	549
114	90
115	129
116	10
119	30
120	10
121	30
122	10
123	20
124	10
125	10
126	529
127	50
128	189
129	20
131	10
132	30
133	5109
134	339
135	3299
136	199
137	549
138	40
139	30
140	10
141	269
142	30
143	80
144	20
145	289
146	1369
147	399
148	889
149	169
150	159
151	30
152	10
154	10
155	10
156	10
157	10
158	10
159	10
160	40
161	3349
162	259
163	2129
164	159
165	359
166	30
171	10
173	10
174	10
175	70
176	9999
177	839
178	6439
179	539
180	1069
181	99
