Mass Spectrum: Benzene, 1-isocyano-4-nitro-
Formula: C7 H4 N2 O2
CAS: 1984-23-2
Molecular weight: 148
m/z	RELATIVE INTENSITY
50	4104
51	4804
52	500
74	1902
75	6906
76	3904
77	400
90	2702
91	300
102	9999
103	1201
104	100
118	2702
119	300
148	9208
149	801
