Mass Spectrum: 3-Methoxy-2,5-dimethylpyrazine
Formula: C7 H10 N2 O
CAS: 19846-22-1
Molecular weight: 138
Origin: W.V. BROWN, CSIRO, BLACK MOUNTAIN, CANBERRA CITY, AUSTRALIA
m/z	RELATIVE INTENSITY
37	172
38	448
39	1793
40	345
41	655
42	3103
43	172
50	69
51	310
52	1379
53	1000
54	3793
55	966
56	690
58	241
64	172
65	103
66	310
67	414
68	655
69	172
70	207
78	69
79	414
80	414
81	345
82	931
83	69
93	241
94	103
95	1310
96	172
105	69
106	138
107	1759
108	1655
109	3793
110	310
123	3793
124	276
137	3966
138	9999
139	828
