Mass Spectrum: Benzene, 1,3-dichloro-2-methoxy-
Formula: C7 H6 Cl2 O
CAS: 1984-65-2
Molecular weight: 176
Origin: NIST Mass Spectrometry Data Center
m/z	RELATIVE INTENSITY
14	50
15	340
25	20
26	40
27	30
28	20
29	220
30	50
31	30
35	70
36	80
37	460
38	330
39	130
40	10
43	20
47	160
48	110
49	390
50	601
51	390
52	60
53	350
54	20
55	20
59	10
60	250
61	881
62	1321
63	2843
64	160
65	100
66	30
67	10
71	70
72	510
73	2032
74	1521
75	2372
76	250
77	520
78	70
79	10
83	380
84	561
85	540
86	210
87	180
88	20
89	20
90	30
91	30
95	40
96	170
97	901
98	540
99	330
100	170
101	20
105	20
106	40
107	581
108	140
109	1271
110	350
111	1331
112	270
113	651
114	80
115	110
116	10
118	20
119	50
120	10
121	30
123	10
126	550
127	40
128	180
129	10
130	10
131	20
133	8348
134	520
135	5495
136	310
137	881
138	50
139	40
140	10
141	170
142	10
143	50
144	10
145	370
146	70
147	270
148	80
149	60
150	30
161	9098
162	641
163	5935
164	380
165	981
166	60
173	20
176	9999
177	891
178	6586
179	520
180	1081
181	80
182	10
