Mass Spectrum: 2H-Azepin-2-one, hexahydro-7-methyl-
Formula: C7 H13 N O
CAS: 1985-48-4
Molecular weight: 127
Origin: V.KUBELKA INST. OF CHEM. TECH., PRAGUE, CZECHOSLOVAKIA
m/z	RELATIVE INTENSITY
14	60
15	440
17	110
18	500
26	250
27	1370
28	1510
29	690
30	500
31	60
36	120
37	60
38	120
39	1120
40	310
41	2190
42	1560
43	810
44	9999
45	380
46	60
50	100
51	120
52	100
53	250
54	250
55	2920
56	1270
57	440
58	90
59	90
60	60
65	60
66	60
67	840
68	190
69	620
70	370
71	60
72	60
79	60
80	60
81	130
82	130
83	250
84	1060
85	2010
86	190
94	60
95	90
96	60
97	60
98	130
99	190
100	60
110	60
112	1440
113	160
125	60
126	90
127	1970
128	310
