Mass Spectrum: Phenol, 4-heptyl-
Formula: C13 H20 O
CAS: 1987-50-4
Molecular weight: 192
Origin: A.A.Kutin, Moscow, Russia
m/z	RELATIVE INTENSITY
33	1
34	3
35	37
36	21
37	17
38	31
39	381
40	87
41	556
42	66
43	388
44	31
45	12
47	89
48	37
49	30
50	54
51	162
52	94
53	184
54	28
55	241
56	30
57	55
58	9
59	6
60	9
61	7
62	18
63	62
64	29
65	174
66	46
67	34
68	12
69	30
70	14
71	20
73	38
74	10
75	17
77	928
78	235
79	163
80	23
81	39
82	31
83	251
84	24
85	171
86	9
87	31
88	5
89	30
90	27
91	207
92	31
93	48
94	157
95	38
96	22
97	10
98	5
99	4
100	3
101	7
102	15
103	69
104	19
105	86
107	9999
108	951
109	70
110	8
111	8
112	4
113	5
114	5
115	30
117	24
118	14
119	44
120	157
121	72
122	20
123	15
124	5
125	2
126	4
127	8
128	7
129	7
130	3
131	20
132	10
133	45
134	13
135	13
136	8
137	4
138	3
139	3
140	2
141	3
142	2
143	2
144	3
145	4
146	8
147	13
148	8
149	32
150	8
151	4
152	1
153	3
154	3
155	2
157	3
158	3
159	3
160	3
161	2
162	2
163	4
164	4
165	2
167	5
169	1
170	1
171	3
173	3
174	4
175	2
176	1
177	3
179	5
180	5
181	3
183	1
184	2
185	3
186	1
188	3
189	3
190	10
192	1162
193	154
194	16
195	3
