Mass Spectrum: Cedrane, 8-propoxy-
Formula: C18 H32 O
CAS: 19870-75-8
Molecular weight: 264
Origin: Insect Chem. Ecol. Lab., USDA, Beltsville, MD 20705
m/z	RELATIVE INTENSITY
41	4061
42	373
43	6229
44	159
45	326
46	5
47	3
49	38
50	25
51	184
52	104
53	1062
54	220
55	3139
56	508
57	1632
58	397
59	579
60	31
61	19
62	23
63	58
64	25
65	479
66	192
67	2008
68	436
69	3754
70	508
71	2314
72	1418
73	251
74	24
75	48
76	96
77	1169
78	252
79	1913
80	398
81	4498
82	1444
83	1266
84	350
85	555
86	54
87	39
88	14
89	49
91	1559
92	390
93	2419
94	970
95	9319
96	1232
97	812
98	190
99	815
100	54
101	10
102	15
103	103
104	55
105	1339
106	413
107	2734
108	2124
109	2734
110	398
111	549
112	180
113	728
114	308
115	139
116	39
117	119
118	31
119	1954
120	399
121	2241
122	1432
123	1199
124	203
125	244
126	101
127	104
128	36
129	41
130	20
131	93
132	44
133	737
134	411
135	3026
136	580
137	835
138	219
139	167
140	72
141	84
142	19
143	17
144	9
145	61
146	77
147	854
148	502
149	2120
150	9999
151	7410
152	973
153	154
154	50
155	49
156	4
157	11
159	30
160	19
161	726
162	280
163	323
164	804
165	1238
166	474
167	172
168	45
169	42
170	3
171	4
173	19
174	4
175	178
176	68
177	587
178	237
179	346
180	84
181	40
182	34
183	40
184	7
187	14
188	8
189	527
190	84
191	43
192	19
193	177
194	42
195	29
196	30
197	33
201	8
202	8
203	60
204	396
205	590
206	103
207	1559
208	234
209	44
210	28
211	29
213	37
215	21
217	17
218	7
219	25
220	19
221	42
222	981
223	183
224	39
225	30
231	13
232	7
233	18
234	15
235	25
236	23
237	19
245	13
246	7
247	18
248	21
249	57
250	27
251	24
261	20
262	25
263	27
264	86
265	33
266	3
