Mass Spectrum: 1,5-Cyclohexadiene-1-methanol, 4-(1-methylethyl)-
Formula: C10 H16 O
CAS: 19876-45-0
Molecular weight: 152
m/z	RELATIVE INTENSITY
27	380
28	90
29	170
31	761
39	440
40	60
41	621
42	50
43	530
50	70
51	260
52	110
53	220
55	210
63	80
65	270
66	90
67	220
69	60
75	80
77	1041
78	340
79	9999
80	721
81	220
90	70
91	2092
92	350
93	170
95	90
103	50
105	170
106	70
107	611
108	1051
109	230
119	160
121	70
135	50
152	1171
153	140
