Mass Spectrum: (1R,3E,7E,11R)-1,5,5,8-Tetramethyl-12-oxabicyclo[9.1.0]dodeca-3,7-diene
Formula: C15 H24 O
CAS: 19888-34-7
Molecular weight: 220
Origin: NIST Mass Spectrometry Data Center, 2010
m/z	RELATIVE INTENSITY
26	20
27	561
28	80
29	561
30	10
31	20
37	10
38	40
39	1762
40	480
41	4404
42	440
43	6796
44	210
45	150
46	10
49	10
50	90
51	470
52	250
53	2412
54	430
55	4154
56	360
57	510
58	80
62	30
63	140
64	30
65	1091
66	380
67	8418
68	3994
69	3053
70	290
71	621
72	60
75	20
76	20
77	2062
78	410
79	2943
80	871
81	3793
82	3683
83	1401
84	340
85	410
86	20
89	30
91	2042
92	430
93	4134
94	1261
95	3984
96	8408
97	1061
98	40
102	30
103	130
104	70
105	1922
106	450
107	1762
108	500
109	9999
110	2222
111	1942
112	100
113	30
115	140
116	40
117	140
118	60
119	761
120	1271
121	1131
122	520
123	3533
124	410
125	250
126	20
127	30
128	50
129	60
130	30
131	250
133	220
134	220
135	330
136	190
137	1111
138	7827
139	861
140	90
144	30
145	200
146	90
147	430
148	70
149	190
150	350
151	170
152	140
153	30
159	140
160	40
162	150
163	70
165	20
179	250
180	30
187	110
188	20
191	70
192	20
205	170
220	170
221	40
