Mass Spectrum: (3Z,5E)-1,3,5-Undecatriene
Formula: C11 H18
CAS: 19883-27-3
Molecular weight: 150
Origin: E.GIRAUDI, CENT. RECHERCHE, ROURE BERTRAND DUPONT, GRASSE, FR.
m/z	RELATIVE INTENSITY
39	1540
40	315
41	1891
42	13
43	135
50	12
51	425
52	279
53	520
54	64
55	278
63	62
65	852
66	777
67	679
68	4
77	4138
78	1468
79	9999
80	4411
81	379
91	3175
92	351
93	1278
94	256
96	10
105	9
107	18
150	1974
151	181
