Mass Spectrum: Benzonitrile, 3,5-bis(1,1-dimethylethyl)-4-hydroxy-
Formula: C15 H21 N O
CAS: 1988-88-1
Molecular weight: 231
Origin: Japan AIST/NIMC Database- Spectrum MS-IW-6125
m/z	RELATIVE INTENSITY
18	20
27	50
28	30
29	149
39	119
40	10
41	369
42	10
43	50
50	10
51	70
52	10
53	50
55	149
56	10
57	539
58	30
62	10
63	50
64	40
65	50
66	10
67	10
69	10
70	40
71	20
72	60
75	20
76	20
77	119
78	50
79	30
84	10
85	229
86	419
87	60
88	10
89	50
90	20
91	70
92	20
93	10
99	20
100	259
101	60
102	30
103	70
104	40
105	20
108	20
113	10
114	30
115	149
116	189
117	70
118	20
119	10
120	10
126	10
127	90
128	99
129	80
130	119
131	40
132	70
133	30
134	10
139	10
140	109
141	70
142	90
143	40
144	169
145	30
146	70
147	20
148	40
152	20
153	70
154	60
155	20
156	359
157	60
158	149
159	30
160	349
161	40
164	10
166	40
167	30
168	50
169	10
170	50
171	10
172	469
173	80
174	99
175	40
176	20
182	10
183	10
184	10
186	70
187	10
188	2049
189	289
190	40
198	10
200	259
201	50
202	20
216	9999
217	1579
218	139
219	10
231	2099
232	419
233	40
