Mass Spectrum: Phenol, 4-(1-phenylethyl)-
Formula: C14 H14 O
CAS: 1988-89-2
Molecular weight: 198
Origin: V.G.Zaikin, TIPS, Russian Acad. Sci.
m/z	RELATIVE INTENSITY
51	500
55	600
77	900
91	800
120	200
121	500
152	500
153	600
165	1401
181	700
183	9999
198	4003
199	620
200	41
