Mass Spectrum: Cholest-5-en-3-ol (3.beta.)-, tetradecanoate
Formula: C41 H72 O2
CAS: 1989-52-2
Molecular weight: 596
Origin: RADIAN CORP
m/z	RELATIVE INTENSITY
14	20
16	90
17	130
18	440
26	50
27	600
28	270
29	1480
30	60
31	40
36	40
38	30
39	590
40	150
41	4420
42	1000
43	9999
44	1580
45	270
50	30
51	70
52	40
53	460
54	310
55	4920
56	1170
57	7010
58	360
59	110
60	1450
61	310
63	20
64	40
65	230
66	140
67	2440
68	570
69	3590
70	870
71	3630
72	230
73	1640
74	160
75	20
77	700
78	260
79	2260
80	420
81	5080
82	750
83	2420
84	560
85	1290
86	130
87	360
88	70
89	50
91	2870
92	750
93	3060
94	810
95	4040
96	560
97	1640
98	530
99	280
100	90
101	200
102	70
103	240
104	290
105	3820
106	1140
107	3150
108	1030
109	2290
110	370
111	850
112	180
113	170
114	100
115	600
116	260
117	1390
118	730
119	2180
120	1880
121	2360
122	570
123	930
124	180
125	310
126	80
127	210
128	540
129	1520
130	500
131	1960
132	520
133	2280
134	630
135	1690
136	350
137	380
138	100
139	130
140	30
141	350
142	410
143	1940
144	730
145	3980
146	1300
147	4090
148	980
149	1040
150	160
151	250
152	100
153	140
154	80
155	310
156	200
157	1040
158	780
159	1910
160	1140
161	1380
162	360
163	640
164	120
165	220
166	90
167	90
168	70
169	170
170	70
171	570
172	240
173	660
174	310
175	420
176	110
177	190
178	60
179	140
180	20
181	80
183	150
184	40
185	670
186	190
187	280
188	70
189	140
190	30
191	190
192	70
193	190
194	30
195	40
197	180
198	80
199	510
200	220
201	320
202	70
203	80
204	30
205	240
206	220
207	120
209	10
211	450
212	170
213	1040
214	330
215	290
216	90
217	80
218	30
219	110
220	20
225	20
226	20
227	140
228	340
229	390
230	80
231	50
233	30
239	70
241	100
242	20
243	50
245	160
246	200
247	1130
248	250
249	40
253	70
254	30
255	890
256	220
257	60
258	30
259	140
260	920
261	250
262	40
274	90
275	40
283	100
284	20
326	140
327	30
353	740
354	280
355	10
366	40
367	20
368	1930
369	3050
370	1560
371	270
