Mass Spectrum: p-Menth-2-en-7-ol, cis-
Formula: C10 H18 O
CAS: 19898-86-3
Molecular weight: 154
m/z	RELATIVE INTENSITY
26	60
27	1391
28	260
29	841
31	971
38	50
39	1451
40	210
41	3503
42	250
43	2833
44	110
45	60
50	100
51	480
52	230
53	1041
54	230
55	2342
56	210
57	1692
58	80
63	130
65	591
66	400
67	9158
68	691
69	1692
70	320
71	100
75	70
77	3003
78	891
79	4504
80	1722
81	5505
82	901
83	500
84	130
89	110
91	1912
92	851
93	9999
94	1802
95	751
96	150
97	100
103	50
105	210
106	50
107	801
108	991
109	270
110	150
111	1151
112	120
119	70
121	3673
122	470
123	3003
124	320
135	50
136	1702
137	200
154	1601
155	180
