Mass Spectrum: Spiro[furan-3(2H),2'-[2H]inden]-2-one, decahydro-3'a,4'-dimethyl-4-methylene-, [2'R-(2'.alpha.,3'a.alpha.,4'.alpha.,7'a.alpha.)]-
Formula: C15 H22 O2
CAS: 19906-72-0
Molecular weight: 234
m/z	RELATIVE INTENSITY
29	1610
31	3970
33	911
43	1398
55	2210
65	1273
67	1872
77	1723
79	2110
81	1610
82	811
91	2185
93	1111
95	1698
105	1610
109	8638
110	936
111	6242
112	949
119	899
123	2983
124	9999
125	1123
145	237
147	924
150	150
163	612
164	250
175	487
177	374
179	275
189	899
190	262
191	262
219	986
234	2859
235	225
