Mass Spectrum: Methoxymethyl isothiocyanate
Formula: C3 H5 N O S
CAS: 19900-84-6
Molecular weight: 103
Origin: NIST Mass Spectrometry Data Center, 1994
m/z	RELATIVE INTENSITY
15	1028
26	40
27	99
28	700
29	2426
30	199
31	77
32	505
33	63
34	30
35	49
38	99
39	114
40	222
41	49
42	87
43	30
44	859
45	9999
46	428
47	136
48	12
54	16
58	402
59	436
60	95
61	25
70	270
71	279
72	3331
73	183
74	207
75	12
86	72
103	3919
104	187
105	182
