Mass Spectrum: Methylphosphonic acid, O-isopropyl-, O-trimethylsilyl-
Formula: C7 H19 O3 P Si
CAS: 199116-08-0
Molecular weight: 210
Origin: VERIFINN
m/z	RELATIVE INTENSITY
27	370
29	120
39	180
41	360
43	571
44	120
45	751
47	380
59	220
60	50
61	490
63	80
65	70
73	821
74	200
75	1792
76	130
77	761
79	210
89	120
91	320
92	70
93	50
103	70
105	60
106	50
107	330
109	210
117	70
119	90
121	591
122	50
123	320
135	60
137	621
151	1591
153	9999
154	681
155	370
168	60
169	1952
170	160
179	130
195	771
196	90
209	70
