Mass Spectrum: Pinacolyl methylphosphonate, TMS derivative
Formula: C10 H25 O3 P Si
CAS: 199116-10-4
Molecular weight: 252
Origin: VERIFINN
m/z	RELATIVE INTENSITY
27	270
29	550
39	210
41	1361
42	130
43	851
45	571
47	220
53	90
55	350
57	350
59	130
61	340
69	350
73	1441
75	2012
76	90
77	621
79	130
84	60
85	120
89	100
91	120
103	50
106	50
107	170
109	80
117	90
121	1391
123	260
135	110
136	200
137	631
138	50
151	2502
152	360
153	9999
154	721
155	380
168	851
169	3964
170	220
171	110
179	270
195	3683
196	2192
197	470
198	70
237	270
