Mass Spectrum: .tau.-Muurolol
Formula: C15 H26 O
CAS: 19912-62-0
Molecular weight: 222
Origin: NIST Mass Spectrometry Data Center, 2010
m/z	RELATIVE INTENSITY
26	10
27	460
28	40
29	591
30	20
31	120
38	20
39	1021
40	220
41	3733
42	310
43	7997
44	200
45	350
46	10
49	10
50	40
51	290
52	160
53	1241
54	170
55	2682
56	390
57	621
58	2302
59	951
60	50
61	10
62	20
63	110
64	50
65	811
66	280
67	1982
68	651
69	3203
70	440
71	3723
72	290
73	50
74	10
75	20
76	30
77	2332
78	520
79	4544
80	1001
81	3663
82	671
83	500
84	170
85	240
86	30
87	10
88	10
89	60
90	20
91	2562
92	1001
93	3713
94	3033
95	9999
96	1231
97	430
98	70
99	50
100	10
102	40
103	240
104	130
105	4404
106	1061
107	1591
108	1501
109	4074
110	641
111	500
112	80
113	160
114	20
115	290
116	100
117	350
118	240
119	4014
120	1001
121	8808
122	1181
123	1041
124	160
125	120
126	100
127	540
128	160
129	140
130	60
131	220
132	60
133	1151
134	1001
135	891
136	430
137	951
138	240
139	681
140	80
141	30
144	20
145	210
146	70
147	480
148	641
149	761
150	300
151	530
152	611
153	140
154	50
159	70
160	180
161	7006
162	1141
163	160
164	2622
165	390
166	90
167	20
173	10
175	90
176	100
177	40
178	30
179	1441
180	200
181	10
187	10
189	961
190	160
191	40
193	10
203	10
204	5215
205	851
206	70
207	190
208	30
222	460
223	80
224	10
