Mass Spectrum: 2-Fluoro-5-(trifluoromethyl)benzylamine
Formula: C8 H7 F4 N
CAS: 199296-61-2
Molecular weight: 193
Origin: NIST Mass Spectrometry Data Center, 1994
m/z	RELATIVE INTENSITY
16	61
17	68
18	78
20	42
26	4
28	7497
29	5443
30	9999
31	295
32	11
37	143
38	220
39	207
41	29
44	44
46	41
48	296
49	74
50	702
51	654
52	215
54	52
56	165
57	574
58	35
61	180
62	295
63	458
64	62
65	39
68	344
69	1153
70	198
71	129
72	54
73	99
74	401
75	1282
76	242
77	259
78	74
79	51
80	106
81	316
82	57
83	62
85	100
87	460
88	113
89	48
92	92
93	323
94	433
95	751
96	332
97	257
98	56
99	244
100	121
101	227
102	150
103	52
104	88
105	94
106	77
107	407
108	85
111	28
112	106
113	262
114	240
117	81
118	42
119	78
120	79
121	34
122	257
123	231
124	3135
125	881
126	273
127	993
128	84
132	68
134	48
137	194
138	50
143	430
144	296
145	2379
146	281
150	42
151	48
152	385
153	77
154	187
156	83
157	65
158	34
163	243
164	91
165	30
170	328
172	844
173	1824
174	1387
175	173
176	95
177	837
178	62
190	353
192	4998
193	1677
194	130
