Mass Spectrum: 2(3H)-Benzoxazolone, 6-chloro-
Formula: C7 H4 Cl N O2
CAS: 19932-84-4
Molecular weight: 169
Origin: A.A.Kutin, Moscow, Russia
m/z	RELATIVE INTENSITY
33	140
35	474
36	828
37	2532
38	3247
39	2475
40	723
41	206
42	139
43	367
44	373
45	216
47	390
49	2595
50	5014
51	5158
52	2699
53	705
54	178
55	85
56	554
58	149
60	1330
61	1711
62	2490
63	3391
64	454
65	257
66	52
67	27
68	16
71	471
72	350
73	669
74	419
75	1121
76	2271
78	9999
79	705
80	63
81	3
85	847
86	484
87	509
88	247
89	370
90	830
91	126
92	7
95	23
97	303
98	644
99	121
100	194
101	12
102	2
104	40
106	318
107	21
109	6
110	22
113	5607
114	563
115	1387
116	82
117	7
121	4
125	1746
127	604
128	25
134	141
135	107
136	3
140	287
141	96
142	87
143	24
147	15
148	35
149	13
167	87
168	1746
169	5666
170	995
171	1691
172	131
173	10
