Mass Spectrum: 1H-1,2,4-Triazole, 3-propyl-
Formula: C5 H9 N3
CAS: 19932-60-6
Molecular weight: 111
Origin: J. H. BOWIE
m/z	RELATIVE INTENSITY
27	1400
28	1200
29	800
39	900
41	900
42	1000
43	1200
54	600
55	1000
56	600
69	200
71	500
83	9999
96	2800
110	1000
111	500
