Mass Spectrum: 5-Amino-3,4-dimethyl-isoxazole
Formula: C5 H8 N2 O
CAS: 19947-75-2
Molecular weight: 112
Origin: NIST Mass Spectrometry Data Center
m/z	RELATIVE INTENSITY
15	80
16	20
17	10
25	20
26	350
27	841
29	450
30	160
31	10
36	10
37	160
38	300
39	791
40	450
41	1091
42	7587
43	9999
44	2923
45	210
46	10
49	50
50	240
51	561
52	1141
53	1191
54	1722
55	1641
56	160
57	671
58	30
62	20
63	60
64	100
65	100
66	581
67	601
68	2002
69	280
70	540
71	681
72	30
73	10
76	10
78	10
79	20
80	140
81	150
82	80
83	430
84	500
85	60
93	10
94	10
95	170
96	801
97	230
98	10
111	120
112	3873
113	280
114	50
