Mass Spectrum: Thiocyanic acid, octyl ester
Formula: C9 H17 N S
CAS: 19942-78-0
Molecular weight: 171
Origin: D.HENNEBERG, MAX-PLANCK INSTITUTE, MULHEIM, WEST GERMANY
m/z	RELATIVE INTENSITY
26	408
27	2655
28	849
29	4862
30	130
31	94
32	98
33	32
34	59
35	39
37	19
38	14
39	1157
40	354
41	9999
42	4349
43	9427
44	320
45	417
46	171
47	512
48	54
49	35
50	61
51	52
52	77
53	433
54	978
55	8250
56	5837
57	4694
58	210
59	406
60	853
61	334
62	147
63	60
64	15
65	71
66	78
67	632
68	1562
69	4358
70	3497
71	2021
72	421
73	116
74	95
75	91
76	47
77	40
78	27
79	114
80	45
81	223
82	734
83	2945
84	1505
85	162
86	234
87	2053
88	411
89	243
90	40
91	69
92	30
93	42
94	102
95	126
96	473
97	309
98	40
99	34
100	342
101	3078
102	308
103	168
104	15
105	11
106	48
107	30
108	50
109	33
110	853
111	206
112	548
113	66
114	503
115	1135
116	124
117	87
122	12
123	12
124	554
125	56
126	10
127	5
128	314
129	435
130	63
131	20
135	69
137	76
138	276
139	41
140	8
142	246
143	267
144	1770
145	198
146	344
147	30
148	20
154	8
156	51
170	23
