Mass Spectrum: 2-Ethyl-5-methylthiazole
Formula: C6 H9 N S
CAS: 19961-53-6
Molecular weight: 127
Origin: R. TABACCHI, INST. CHIM., UNIV. NEUCHATEL, BASEL, SWITZ.
m/z	RELATIVE INTENSITY
14	500
15	220
16	220
26	390
27	1060
28	3530
29	303
39	3250
40	290
41	1000
45	2350
57	470
58	590
59	940
68	1090
69	440
70	290
71	3530
72	4710
73	1470
74	470
85	350
99	410
100	290
112	3420
126	6470
127	9999
128	1350
129	530
