Mass Spectrum: 2-Propanamine, N-ethyl-
Formula: C5 H13 N
CAS: 19961-27-4
Molecular weight: 87
Origin: Japan AIST/NIMC Database- Spectrum MS-NW-3231
m/z	RELATIVE INTENSITY
14	30
15	379
16	10
26	99
27	869
28	819
29	589
30	3199
31	50
32	20
33	10
34	20
36	10
37	20
38	50
39	399
40	109
41	809
42	1079
43	759
44	6419
45	189
52	20
53	10
54	50
55	20
56	309
57	109
58	519
59	20
68	30
70	189
71	80
72	9999
73	489
74	10
84	20
85	20
86	549
87	789
88	50
