Mass Spectrum: Tungsten, pentacarbonyl(hexamethylphosphorous triamide-P)-, (OC-6-22)-
Formula: C11 H18 N3 O5 P W
CAS: 19976-82-0
Molecular weight: 487
Origin: R.B.KING DEPT. CHEM., UNIV. OF GEORGIA, ATHENS, GEORGIA, USA
m/z	RELATIVE INTENSITY
60	690
76	4276
119	9999
163	172
212	69
215	172
228	483
240	172
242	724
256	1034
257	1034
270	1034
272	724
285	862
287	310
299	1552
301	3103
331	241
347	6379
359	1310
375	414
387	448
403	138
415	793
431	345
443	1172
459	1103
487	2931
