Mass Spectrum: Tungsten, tetracarbonylbis(hexamethylphosphorous triamide-P)-
Formula: C16 H36 N6 O4 P2 W
CAS: 19976-86-4
Molecular weight: 622
Origin: R.B.KING, UNIVERSITY OF GEORGIA, ATHENS, GEORGIA, USA
m/z	RELATIVE INTENSITY
60	2793
76	9999
119	9999
163	4586
195	31
301	255
304	6
333	41
347	344
359	18
375	37
378	33
387	6
391	168
404	11
415	11
422	58
432	14
443	14
459	18
466	182
487	22
510	344
522	14
538	22
550	103
566	14
578	551
594	31
622	448
