Mass Spectrum: Chromium, tetracarbonylbis(hexamethylphosphorous triamide-P)-, (OC-6-22)-
Formula: C16 H36 Cr N6 O4 P2
CAS: 19976-85-3
Molecular weight: 490
Origin: R.B.KING, UNIVERSITY OF GEORGIA, ATHENS, GEORGIA, USA
m/z	RELATIVE INTENSITY
60	1746
76	9999
119	8095
163	2380
169	4
172	79
195	84
201	1
215	158
227	1
243	22
246	1
255	1
259	61
272	3
290	1
291	4
327	6
334	19
355	2
378	19
418	6
446	4
462	25
490	44
