Mass Spectrum: Thiazole, 4,5-dihydro-2-(methylthio)-
Formula: C4 H7 N S2
CAS: 19975-56-5
Molecular weight: 133
Origin: J.E. WILKINSON S-CUBED, SAN DIEGO, CA.
m/z	RELATIVE INTENSITY
40	6
41	165
42	75
45	4020
46	1165
47	666
52	21
56	26
57	203
58	901
59	3462
60	7795
61	344
62	140
64	127
70	65
72	2801
73	20
74	1151
76	185
77	6
78	7
79	30
84	14
86	67
87	1185
88	21
90	144
91	196
92	1
93	37
100	43
105	222
117	65
118	75
133	9999
134	556
135	753
