Mass Spectrum: dl-Alanyl-dl-valine
Formula: C8 H16 N2 O3
CAS: 1999-46-8
Molecular weight: 188
Origin: Japan AIST/NIMC Database- Spectrum MS-NW-1869
m/z	RELATIVE INTENSITY
15	90
17	20
18	129
26	20
27	269
28	399
29	169
30	129
31	40
38	10
39	149
40	40
41	259
42	299
43	289
44	9999
45	329
46	10
52	10
53	20
54	40
55	209
56	139
57	80
58	10
59	30
67	10
68	20
69	40
70	50
71	60
72	399
73	40
74	20
81	10
82	20
83	30
84	40
85	50
87	20
97	10
98	40
99	80
100	10
111	10
112	10
113	20
116	10
127	109
128	70
129	10
143	20
145	10
188	10
