Mass Spectrum: .alpha.,.alpha.'-Dihydroxy-m-diisopropylbenzene
Formula: C12 H18 O2
CAS: 1999-85-5
Molecular weight: 194
Origin: Japan AIST/NIMC Database- Spectrum MS-NW-7951
m/z	RELATIVE INTENSITY
15	249
17	10
18	40
27	179
28	20
29	179
31	609
38	30
39	449
40	50
41	759
42	30
43	9999
44	239
45	90
46	40
50	189
51	539
52	119
53	99
54	10
55	50
57	129
58	70
59	5419
60	249
61	40
62	60
63	219
64	90
65	329
66	60
67	219
69	20
70	10
71	10
72	20
73	80
74	239
75	129
76	139
77	819
78	189
79	199
80	40
81	40
82	1009
83	20
86	10
87	30
88	10
89	129
90	60
91	1269
92	119
93	99
94	10
95	20
101	40
102	109
103	219
104	50
105	319
106	30
107	30
114	10
115	499
116	129
117	399
118	329
119	2369
120	299
121	1279
122	109
123	10
126	20
127	80
128	299
129	119
130	20
131	80
132	20
133	649
134	90
135	99
136	20
137	10
139	20
141	80
142	60
143	239
144	30
145	70
146	20
147	70
148	10
149	20
157	30
158	599
159	129
160	30
161	2699
162	349
163	399
164	60
165	20
175	40
176	80
177	399
178	70
179	8689
180	1089
181	99
193	80
194	1089
195	149
196	20
