Mass Spectrum: 2,4(1H,3H)-Pyrimidinedithione
Formula: C4 H4 N2 S2
CAS: 2001-93-6
Molecular weight: 144
Origin: Japan AIST/NIMC Database- Spectrum MS-NW-5056
m/z	RELATIVE INTENSITY
7	0
12	30
13	10
14	20
24	30
25	70
26	199
27	409
28	679
29	20
30	40
32	669
33	409
34	1029
35	20
36	50
37	50
38	199
39	159
40	209
41	169
42	80
43	30
44	369
45	429
46	70
47	30
48	10
50	119
51	669
52	879
53	179
54	20
55	40
56	129
57	879
58	2619
59	1179
60	589
61	70
62	30
64	249
65	20
66	40
67	80
68	70
69	489
70	839
71	119
72	619
73	70
74	40
76	179
77	70
78	99
79	70
80	20
81	10
82	129
83	719
84	569
85	1129
86	2379
87	149
88	109
89	90
90	40
91	10
94	40
95	10
96	10
99	30
100	189
101	20
102	139
103	10
104	10
109	50
110	2179
111	1369
112	199
113	70
114	10
115	10
116	319
117	129
118	40
119	10
143	139
144	9999
145	729
146	929
147	60
148	30
