Mass Spectrum: p-Cyclohexylbenzoic acid
Formula: C13 H16 O2
CAS: 20029-52-1
Molecular weight: 204
Origin: NIST Mass Spectrometry Data Center
m/z	RELATIVE INTENSITY
11	20
15	110
16	60
18	50
27	1311
28	550
29	1081
30	50
31	30
32	30
36	30
37	50
39	1982
40	230
41	2292
42	220
43	170
44	80
45	571
50	581
51	1281
52	420
53	621
54	390
55	621
56	200
57	70
58	70
61	40
62	200
63	731
64	280
65	951
66	150
67	1011
68	170
69	681
70	80
71	50
73	10
74	260
75	470
76	450
77	2602
78	500
79	550
80	100
81	721
82	591
83	50
84	60
87	110
88	90
89	751
90	430
91	4604
92	881
93	110
98	70
99	561
100	40
101	260
102	591
103	1411
104	390
105	761
107	1121
108	100
109	20
113	70
115	3013
116	841
117	5015
118	781
119	160
120	150
121	110
122	110
123	771
124	70
125	40
126	90
127	330
128	611
129	661
131	2833
132	400
133	70
135	1882
136	951
137	120
138	30
139	50
141	90
142	60
143	160
144	220
145	310
146	90
148	9999
149	1021
150	130
151	40
152	60
153	20
156	30
157	190
159	2943
160	440
161	460
162	290
163	70
164	50
168	370
169	50
175	160
176	90
182	20
185	40
186	200
187	180
188	100
189	60
192	70
202	30
204	4314
205	500
206	80
