Mass Spectrum: 3-Pentafluorophenylpropionic acid
Formula: C9 H5 F5 O2
CAS: 2002-94-0
Molecular weight: 240
Origin: NIST Mass Spectrometry Data Center, 1994
m/z	RELATIVE INTENSITY
13	33
14	38
17	39
18	53
20	74
26	39
27	2775
37	65
38	90
39	129
42	307
44	75
45	1458
46	347
47	140
50	157
51	427
53	49
55	365
56	121
57	246
61	191
62	171
63	90
68	155
69	709
72	42
73	187
75	717
76	50
78	30
79	221
80	282
81	531
85	72
86	191
87	260
88	66
92	225
93	850
94	100
95	63
96	82
97	63
98	326
99	959
100	69
101	110
103	67
104	136
105	531
106	143
107	92
110	74
111	210
112	250
113	114
114	73
117	799
118	106
119	196
120	43
122	54
123	629
124	268
125	941
126	114
127	49
130	140
131	346
132	78
136	55
137	261
141	117
142	158
143	1026
144	380
145	982
146	93
148	131
149	45
150	383
151	93
155	621
156	181
157	64
159	72
161	1188
162	163
163	376
164	62
167	147
168	1178
169	213
172	91
173	242
174	457
175	688
176	241
177	148
178	471
179	279
180	62
181	9999
182	819
190	44
192	3448
193	784
194	2829
195	951
196	60
197	104
203	69
219	55
220	596
221	194
222	37
223	184
240	2163
241	236
