Mass Spectrum: Phenol, 2,4-di-t-butyl-6-nitro-
Formula: C14 H21 N O3
CAS: 20039-94-5
Molecular weight: 251
Origin: LAC, NIDDK, NIH, Bethesda, MD 20892
m/z	RELATIVE INTENSITY
41	259
42	13
43	88
49	31
51	54
52	20
53	78
55	66
57	581
58	37
63	34
64	26
65	79
66	16
67	37
69	68
71	7
72	15
73	44
76	6
77	144
78	59
79	95
80	16
81	22
83	7
84	31
86	52
87	42
88	26
89	34
90	6
91	198
92	32
93	34
94	7
95	7
97	57
101	11
102	24
103	84
104	33
105	127
106	39
107	43
109	7
110	55
111	42
115	156
116	83
117	89
118	42
119	72
120	25
121	31
124	12
127	37
128	99
129	100
130	74
131	182
132	208
133	76
134	31
135	8
141	33
142	27
143	37
144	48
145	114
146	82
147	59
148	33
149	8
155	7
156	7
157	42
158	63
159	65
160	98
161	70
162	614
163	80
164	7
171	9
172	55
173	277
174	73
175	72
176	36
177	37
178	34
186	20
187	29
188	272
189	66
190	163
191	47
192	44
194	8
202	14
203	10
204	7
208	117
209	8
216	6
218	56
219	56
220	55
222	6
233	8
234	61
236	9999
237	1346
238	146
239	9
251	2255
252	337
253	46
