Mass Spectrum: 2-Methyl-4-bromo-1-butene
Formula: C5 H9 Br
CAS: 20038-12-4
Molecular weight: 148
Origin: J. MADSEN,DEP. ORG. CHEM.,TECH. UNIV. DENMARK,LYNGBY,DENMARK
m/z	RELATIVE INTENSITY
26	130
27	1120
29	960
31	100
38	190
39	1900
40	138
41	6010
42	380
43	120
44	100
50	120
51	220
52	110
53	1020
54	170
55	2510
56	120
67	640
68	280
69	9999
70	550
148	1290
150	1260
