Mass Spectrum: 1H-Purine, 6-methyl-
Formula: C6 H6 N4
CAS: 2004-03-7
Molecular weight: 134
m/z	RELATIVE INTENSITY
41	200
42	300
51	300
52	500
53	801
54	300
64	100
65	500
66	1001
67	300
70	500
77	100
79	400
80	1001
81	200
106	701
107	1702
108	300
119	601
133	200
134	9999
135	901
