Mass Spectrum: 1,8-Nonadiene, 2,8-dimethyl-
Formula: C11 H20
CAS: 20054-25-5
Molecular weight: 152
m/z	RELATIVE INTENSITY
26	300
27	5299
28	1500
29	5799
30	100
38	300
39	5999
40	1200
41	9999
42	1000
43	1500
50	100
51	500
52	300
53	2000
54	2000
55	8799
56	2500
57	600
65	200
66	200
67	3000
68	4000
69	2200
70	300
77	200
79	200
80	100
81	5999
82	3300
83	500
95	1700
96	1700
97	200
109	1200
110	200
123	300
137	200
152	200
