Mass Spectrum: 4-Chlorophenyl benzoate
Formula: C13 H9 Cl O2
CAS: 2005-08-5
Molecular weight: 232
Origin: NIST Mass Spectrometry Data Center
m/z	RELATIVE INTENSITY
18	20
26	40
27	130
28	10
29	10
35	10
36	10
37	80
38	240
39	260
40	10
47	20
49	90
50	731
51	1802
52	80
53	40
61	60
62	160
63	440
64	110
65	60
66	10
73	440
74	230
75	360
77	4314
78	270
79	10
85	20
87	10
89	10
92	10
99	430
100	50
101	140
102	10
105	9999
106	721
107	40
111	20
113	10
115	20
127	90
128	30
129	20
130	10
139	20
232	220
233	40
234	90
235	10
