Mass Spectrum: 3-Nonene
Formula: C9 H18
CAS: 20063-77-8
Molecular weight: 126
Origin: NIST Mass Spectrometry Data Center, 1990.
m/z	RELATIVE INTENSITY
26	168
27	1701
28	230
29	1763
39	2850
41	7877
42	2488
43	2008
50	151
51	403
52	247
53	1248
54	1399
55	9999
56	5691
57	1293
63	86
65	355
66	161
67	1325
68	724
69	4996
70	4458
71	760
77	238
79	169
81	196
82	393
83	1506
84	1195
85	205
97	1493
98	465
126	2627
127	284
