Mass Spectrum: Carbamothioic acid, bis(2-methylpropyl)-, S-ethyl ester
Formula: C11 H23 N O S
CAS: 2008-41-5
Molecular weight: 217
Origin: CATALOGUE OF MASS SPECTRA OF PESTICIDES, APRIL, 1975; J. FREUDENTHAL & L. G. GRAMBERG, NAT'L INST. OF PUBLIC HEALTH, THE NETHERLANDS
m/z	RELATIVE INTENSITY
15	331
17	1920
26	201
27	846
28	1475
29	4463
30	456
32	436
34	141
39	589
41	2356
42	1086
43	1053
45	297
47	165
55	553
56	369
57	9999
58	1278
60	100
61	305
62	317
72	316
75	2569
77	164
84	261
86	380
89	4009
90	708
91	115
100	1124
101	205
103	137
114	147
118	171
132	298
133	103
142	666
146	4280
147	231
148	303
156	4139
157	521
158	294
160	165
174	3933
175	204
176	243
188	323
203	186
217	1550
218	196
