Mass Spectrum: Benzonitrile, 4-(bromoacetyl)-
Formula: C9 H6 Br N O
CAS: 20099-89-2
Molecular weight: 223
Origin: NIST Mass Spectrometry Data Center, 1994
m/z	RELATIVE INTENSITY
12	16
13	37
14	201
17	10
18	24
25	21
26	59
27	34
36	25
37	259
38	399
39	494
40	29
41	21
42	1147
43	73
48	20
49	204
50	1366
51	1283
52	235
53	48
58	26
60	19
61	208
62	378
63	453
64	213
65	75
66	16
72	23
73	122
74	208
75	1502
76	907
77	70
79	176
80	48
81	173
82	43
84	13
85	41
86	85
87	107
88	148
89	777
90	142
91	30
92	32
93	210
94	33
95	186
98	33
99	162
100	104
101	13
102	3691
103	302
104	20
114	64
116	756
117	64
120	18
122	18
123	18
130	9999
131	902
132	59
145	37
223	125
224	14
225	125
226	12
