Mass Spectrum: 4-Chloro-(2-hydroxyhexafluoroisopropyl)benzene
Formula: C9 H5 Cl F6 O
CAS: 2010-63-1
Molecular weight: 278
Origin: NIST Mass Spectrometry Data Center, 1994
m/z	RELATIVE INTENSITY
12	33
17	47
18	51
26	39
35	75
36	45
37	276
38	580
39	260
40	25
47	85
48	62
49	231
50	2471
51	1619
52	149
53	328
54	35
56	197
57	174
60	69
61	274
62	287
63	278
66	47
67	84
69	6412
72	70
73	396
74	988
75	2822
76	901
77	2623
78	273
79	70
80	91
81	167
83	34
84	117
85	433
86	207
87	352
88	101
91	42
93	102
95	353
96	131
97	659
98	51
99	212
100	92
101	69
103	95
104	588
105	426
106	96
107	187
108	43
109	64
110	43
111	3231
112	804
113	1075
114	264
115	37
117	45
119	75
123	230
124	42
125	211
126	108
127	116
129	73
130	93
131	53
132	34
136	28
137	145
139	9999
140	918
141	3275
142	311
143	69
144	28
145	670
146	65
154	34
155	55
156	143
157	152
158	26
159	74
160	26
161	911
162	87
163	336
172	38
173	89
174	100
175	72
179	121
181	42
187	31
190	53
191	61
192	47
205	35
206	41
207	46
209	5832
210	650
211	2328
212	228
213	131
239	656
240	75
241	248
242	40
278	2768
279	313
280	938
281	94
