Mass Spectrum: trans-Chrysanthemal
Formula: C10 H16 O
CAS: 20104-05-6
Molecular weight: 152
Origin: W.Epstein ET AL.J.Chem.Eng.Data,21,500(1976)
m/z	RELATIVE INTENSITY
41	9629
42	300
43	4794
45	60
50	170
51	571
52	270
53	1992
54	210
55	2823
56	250
57	1001
61	80
62	110
63	170
65	971
66	150
67	3503
68	400
69	2012
77	1421
78	250
79	2372
80	170
81	7827
82	591
83	340
84	110
85	80
91	1291
92	440
93	1211
94	250
95	1932
96	360
97	80
105	300
106	490
107	490
108	470
109	1101
110	190
111	60
119	250
121	250
122	190
123	9999
124	1101
134	80
137	550
152	190
