Mass Spectrum: 1,2-Benzenedicarboxylic acid, 4-methyl-, dimethyl ester
Formula: C11 H12 O4
CAS: 20116-65-8
Molecular weight: 208
Origin: CARL DJERASSI DEPT OF CHEM STANFORD UNIV STANFORD CALIF 94305
m/z	RELATIVE INTENSITY
45	100
51	100
63	200
65	200
77	100
78	100
89	200
90	300
91	1200
105	100
106	300
118	200
119	100
134	100
147	100
149	600
177	9999
178	800
208	1500
