Mass Spectrum: Nimetazepam
Formula: C16 H13 N3 O3
CAS: 2011-67-8
Molecular weight: 295
Origin: Patti Price, Georgia Bureau of Investigation, Decatur, Georgia
m/z	RELATIVE INTENSITY
41	40
42	420
44	100
50	470
51	550
52	200
53	10
54	50
55	30
56	40
57	40
58	20
61	30
62	350
63	1321
64	330
65	630
66	240
69	220
70	10
71	20
74	150
75	890
76	1351
77	1381
78	350
79	40
80	30
81	360
82	420
83	460
84	40
86	120
87	250
88	310
89	1541
90	800
91	1421
92	140
95	640
96	190
97	170
98	50
99	30
100	70
101	170
102	540
103	600
104	240
108	480
109	60
110	980
111	60
113	200
114	110
115	550
116	530
117	1241
118	230
119	10
121	10
123	20
124	290
125	220
126	430
127	280
130	40
136	50
137	40
138	120
139	630
140	150
141	60
143	30
144	320
145	10
147	20
149	90
150	430
151	830
152	1151
153	130
154	40
162	100
163	660
164	840
165	1791
166	480
167	30
168	50
176	130
177	620
178	710
179	290
181	100
188	20
189	40
190	370
191	790
192	1161
193	590
194	100
202	200
203	100
204	230
205	1171
206	860
207	390
208	200
209	50
217	20
218	300
219	1541
220	3453
221	3002
222	640
233	70
234	10
235	20
236	580
237	400
238	140
239	120
240	30
247	360
248	5565
249	1161
250	710
251	440
252	270
264	220
265	350
266	1611
267	9999
268	6205
269	1030
278	1341
279	480
280	100
281	20
294	8557
295	6155
296	1161
