Mass Spectrum: 3-Methyl-2-butylisothiocyanate
Formula: C6 H11 N S
CAS: 201224-92-2
Molecular weight: 129
Origin: NIST Mass Spectrometry Data Center, 1994
m/z	RELATIVE INTENSITY
4	25
14	81
15	435
16	22
26	404
27	3430
28	1091
29	1645
30	56
32	245
33	35
34	26
37	113
38	265
39	2235
40	416
41	3505
42	906
43	9999
44	517
45	359
46	152
47	25
48	17
49	25
50	136
51	244
52	157
53	531
54	1030
55	2609
56	206
57	149
58	520
59	887
60	1199
61	83
62	71
63	32
64	23
65	29
66	28
67	35
68	34
69	209
70	924
71	4497
72	736
73	36
74	33
78	21
80	22
81	26
82	54
83	27
84	191
85	21
86	5707
87	1058
88	289
89	52
98	44
100	26
114	68
129	3347
130	274
131	156
132	16
