Mass Spectrum: 3-Octen-1-ol, (Z)-
Formula: C8 H16 O
CAS: 20125-84-2
Molecular weight: 128
Origin: NIST Mass Spectrometry Data Center, 1990.
m/z	RELATIVE INTENSITY
26	217
27	2067
28	606
29	1765
31	2078
32	108
39	3334
40	694
41	5974
42	1145
43	1990
44	545
45	190
50	218
51	461
52	307
53	1915
54	2919
55	9999
56	2374
57	1659
58	165
63	143
65	570
66	834
67	5203
68	5689
69	2078
70	616
71	374
72	111
77	332
79	1226
81	6676
82	2225
83	371
84	293
85	239
95	1532
96	153
97	163
100	141
110	1463
111	148
