Mass Spectrum: 2-Octen-4-ol, (E)-
Formula: C8 H16 O
CAS: 20125-81-9
Molecular weight: 128
Origin: NIST Mass Spectrometry Data Center, 1990.
m/z	RELATIVE INTENSITY
26	152
27	1235
28	364
29	908
31	196
32	36
38	202
39	1882
40	470
41	3059
42	442
43	2723
44	155
45	117
50	189
51	438
52	274
53	1882
54	1179
55	980
56	181
57	931
58	879
59	85
63	121
65	511
66	309
67	2162
68	1944
69	821
70	85
71	9999
72	489
77	445
78	130
79	1336
80	121
81	2600
82	294
85	455
86	1392
87	101
91	98
93	91
95	571
99	112
110	1362
111	134
113	222
