Mass Spectrum: 2-Propanol, 1-chloro-3-(1-naphthalenyloxy)-
Formula: C13 H13 Cl O2
CAS: 20133-93-1
Molecular weight: 236
Origin: Frank Antolasic, RMIT Applied Chemistry Department, Victoria Australia 3001
m/z	RELATIVE INTENSITY
28	500
29	961
31	550
32	170
39	561
41	280
42	170
43	490
44	260
49	260
50	190
51	360
55	100
57	550
62	320
63	530
64	160
65	360
69	20
73	80
74	460
75	530
76	330
77	611
79	30
81	40
87	410
88	260
89	721
101	230
113	200
115	4804
116	2462
117	180
126	591
127	1521
128	450
129	300
144	9999
145	1371
157	220
169	180
187	290
236	1491
237	290
238	530
