Mass Spectrum: Cyclohexanone, 2-isopropyl-2,5-dimethyl-
Formula: C11 H20 O
CAS: 20144-44-9
Molecular weight: 168
Origin: CONTINENTAL OIL CO., PONCA CITY, OKLA, USA
m/z	RELATIVE INTENSITY
13	26
14	231
15	1193
16	60
17	91
18	300
19	12
24	7
25	27
26	277
27	5125
28	1659
29	3373
30	83
31	59
32	39
36	17
37	94
38	226
39	4494
40	867
41	9580
42	1708
43	4796
44	218
45	64
46	17
47	17
49	27
50	140
51	420
52	231
53	1480
54	551
55	9999
56	1940
57	951
58	79
59	53
62	31
63	99
64	42
65	301
66	149
67	939
68	328
69	6767
70	1752
71	525
72	135
73	25
74	27
75	38
77	354
78	111
79	413
80	127
81	1180
82	696
83	2439
84	2558
85	362
86	56
89	21
90	26
91	350
92	63
93	376
94	100
95	464
96	426
97	4547
98	780
99	118
100	39
102	13
103	30
104	17
105	102
106	59
107	733
108	203
109	1796
110	311
111	1436
112	269
113	102
114	16
115	26
116	15
117	21
118	12
119	38
120	21
121	114
122	87
123	130
124	3460
125	1253
126	8186
127	709
128	52
133	44
134	16
135	509
136	57
137	51
138	17
139	129
140	31
148	10
149	13
150	406
151	59
152	21
153	1272
154	142
155	12
166	12
167	11
168	696
169	87
170	9
