Mass Spectrum: 1-Tetradecanamine
Formula: C14 H31 N
CAS: 2016-42-4
Molecular weight: 213
Origin: NIST Mass Spectrometry Data Center, 1994
m/z	RELATIVE INTENSITY
4	3
15	25
18	553
27	414
28	320
29	984
30	9999
31	214
32	30
39	250
41	1413
42	349
43	1221
44	1400
45	702
46	21
51	11
52	12
53	94
54	105
55	848
56	449
57	381
58	77
59	204
60	10
65	25
66	18
67	107
68	79
69	442
70	163
71	100
72	197
73	82
77	18
79	25
80	7
81	45
82	70
83	222
84	80
85	7
86	495
87	79
95	14
96	35
97	175
98	55
100	293
101	31
110	28
111	84
112	46
114	146
115	18
124	16
125	45
126	30
128	117
129	18
138	9
139	13
140	14
142	148
143	22
156	127
157	21
168	20
170	99
171	19
184	98
185	18
196	13
198	80
212	115
213	182
214	27
215	1
