Mass Spectrum: 1-Decanamine
Formula: C10 H23 N
CAS: 2016-57-1
Molecular weight: 157
Origin: Japan AIST/NIMC Database- Spectrum MS-NW-3942
m/z	RELATIVE INTENSITY
15	20
26	10
27	259
28	199
29	379
30	9999
31	189
32	30
39	169
40	30
41	659
42	209
43	449
44	459
45	649
46	10
51	10
53	50
54	70
55	409
56	249
57	129
58	50
59	159
67	30
68	40
69	229
70	129
71	30
72	139
73	50
81	10
82	60
83	119
84	70
85	10
86	369
87	40
96	40
97	80
98	40
100	159
101	20
110	30
111	30
112	20
114	60
115	10
124	10
128	50
140	20
142	20
156	50
157	90
158	10
