Mass Spectrum: 4-Nonyne
Formula: C9 H16
CAS: 20184-91-2
Molecular weight: 124
Origin: NIST Mass Spectrometry Data Center, 1990.
m/z	RELATIVE INTENSITY
14	5
15	46
26	131
27	1153
28	61
29	666
38	177
39	1741
40	446
41	2366
42	275
43	597
50	389
51	928
52	922
53	2054
54	2234
55	1853
56	188
62	134
63	309
64	104
65	886
66	104
67	9999
68	1172
69	286
74	53
77	767
78	209
79	1464
80	444
81	3136
82	1009
83	107
91	270
92	40
93	363
94	40
95	2761
96	395
109	453
110	50
124	832
125	80
