Mass Spectrum: 3-Nonyne
Formula: C9 H16
CAS: 20184-89-8
Molecular weight: 124
Origin: Japan AIST/NIMC Database- Spectrum MS-NW-4604
m/z	RELATIVE INTENSITY
14	10
15	80
26	119
27	1489
28	90
29	2269
30	50
37	40
38	149
39	2009
40	689
41	5359
42	859
43	629
44	40
45	20
49	20
50	209
51	529
52	389
53	2199
54	719
55	2889
56	499
57	669
58	30
60	10
61	20
62	80
63	209
64	50
65	729
66	519
67	9999
68	3769
69	1189
70	199
71	90
72	10
73	10
74	30
75	20
76	10
77	509
78	109
79	1019
80	289
81	3749
82	1999
83	299
84	30
85	10
86	10
91	199
92	20
93	349
94	159
95	7409
96	869
97	50
99	10
103	10
105	20
107	50
108	10
109	1009
110	99
111	10
122	10
123	169
124	209
125	20
