Mass Spectrum: 1-Butanamine, N-propyl-
Formula: C7 H17 N
CAS: 20193-21-9
Molecular weight: 115
m/z	RELATIVE INTENSITY
15	100
27	1000
28	900
29	1300
30	7499
31	100
41	1900
42	700
43	1500
44	3600
45	100
55	200
56	500
57	900
58	2500
59	100
60	10
69	30
70	400
71	60
72	9999
73	500
83	100
84	100
85	70
86	4300
87	300
98	40
99	10
100	700
101	300
112	30
113	10
114	700
115	1800
