Mass Spectrum: 1-Propanamine, N-ethyl-
Formula: C5 H13 N
CAS: 20193-20-8
Molecular weight: 87
Origin: CARL DJERASSI DEPT OF CHEM STANFORD UNIV STANFORD CALIF 94305
m/z	RELATIVE INTENSITY
15	100
27	800
28	900
29	600
30	5200
31	100
41	800
42	400
43	700
44	1100
45	100
46	100
55	100
56	300
57	100
58	9999
59	400
60	100
69	100
70	100
71	100
72	1000
73	100
84	100
85	100
86	500
87	1600
