Mass Spectrum: Benzene, (1-butylpentyl)-
Formula: C15 H24
CAS: 20216-88-0
Molecular weight: 204
m/z	RELATIVE INTENSITY
27	608
28	1772
29	759
39	683
40	203
41	1190
42	203
43	962
44	203
51	228
55	557
56	405
57	405
65	557
69	405
70	203
71	203
77	557
78	430
79	203
85	177
91	9999
92	1164
103	405
104	759
105	2152
106	177
115	354
116	177
117	405
147	4354
148	582
204	1190
205	203
