Mass Spectrum: Fluoxetine, N-acetyl
Formula: C19 H20 F3 N O2
CAS: 202122-33-6
Molecular weight: 351
Origin: Finnigan MAT: Toxicological Library (LIBR-TX)
m/z	RELATIVE INTENSITY
42	706
43	577
44	9999
45	305
51	85
63	61
77	213
78	235
86	5578
87	341
91	354
103	264
104	688
105	67
115	420
117	2154
118	331
132	32
133	48
143	37
145	83
146	77
161	16
162	64
163	13
175	24
183	29
190	4596
191	520
192	30
203	16
204	7
207	4
232	23
247	3
251	51
351	7
