Mass Spectrum: cis-3-Nonene
Formula: C9 H18
CAS: 20237-46-1
Molecular weight: 126
Origin: NIST Mass Spectrometry Data Center, 1990.
m/z	RELATIVE INTENSITY
27	1855
28	795
29	2013
32	127
39	3345
41	8804
42	2592
43	2109
44	134
50	203
51	452
52	293
53	1453
54	1563
55	9999
56	5600
57	1217
65	391
66	210
67	1567
68	824
69	4917
70	4472
71	763
77	255
79	252
81	235
82	423
83	1598
84	1421
85	229
97	1738
98	562
126	3327
127	329
