Mass Spectrum: Hydrazine, 1-butyl-1-methyl-
Formula: C5 H14 N2
CAS: 20240-62-4
Molecular weight: 102
Origin: ATLAS OF MASS SPECTRA OF ORGANIC COMPOUNDS, V. A. KOPTYUG, ED.
m/z	RELATIVE INTENSITY
27	710
29	1110
30	1080
31	1530
39	310
40	780
41	610
42	2040
43	790
44	1050
45	850
46	180
55	120
56	160
57	450
58	130
59	9999
60	320
71	770
72	100
102	1530
103	100
