Mass Spectrum: 2-Propenoic acid, 2-cyano-3-phenyl-, ethyl ester
Formula: C12 H11 N O2
CAS: 2025-40-3
Molecular weight: 201
Origin: USAF ACADEMY, COLORADO SPRINGS, COLORADO 80840, J LLOYD PFLUG
m/z	RELATIVE INTENSITY
26	195
27	1419
29	3048
30	152
37	24
38	106
39	273
42	14
43	159
45	170
49	24
50	724
51	1937
52	443
53	39
54	35
61	46
62	149
63	294
64	198
65	28
67	21
68	39
73	7
74	312
75	883
76	762
77	2892
78	699
79	251
80	49
86	17
87	88
88	92
89	180
90	166
91	184
92	14
94	92
98	39
99	135
100	355
101	1678
102	3559
103	390
104	24
105	180
106	78
107	855
108	42
111	10
115	102
116	95
117	170
118	344
119	63
123	10
124	35
126	49
127	784
128	4467
129	2452
130	347
131	28
135	560
136	81
140	60
144	152
145	124
146	837
147	120
154	550
155	330
156	5532
157	795
158	42
172	8406
173	4953
174	532
175	63
182	237
183	227
184	42
200	6994
201	9999
202	1351
203	152
