Mass Spectrum: 1,3-Dioxane, 2,2,4,6-tetramethyl-, trans-
Formula: C8 H16 O2
CAS: 20268-00-2
Molecular weight: 144
m/z	RELATIVE INTENSITY
41	701
42	1401
43	4504
44	601
45	1001
58	1301
59	7006
67	801
68	1101
69	5805
87	2002
129	9999
130	801
