Mass Spectrum: (S)-(+)-2-Amino-3-methyl-1-butanol
Formula: C5 H13 N O
CAS: 2026-48-4
Molecular weight: 103
Origin: Japan AIST/NIMC Database- Spectrum MS-NW-6785
m/z	RELATIVE INTENSITY
14	30
15	329
16	30
26	80
27	649
28	559
29	679
30	1729
31	339
32	70
36	10
37	50
38	99
39	709
40	169
41	1179
42	2579
43	839
44	409
45	50
46	40
49	10
50	50
51	70
52	60
53	209
54	169
55	4059
56	1069
57	879
58	269
59	139
60	7569
61	229
62	20
63	10
64	10
65	20
66	30
67	90
68	179
69	90
70	1079
71	259
72	9999
73	539
74	99
75	10
77	10
79	10
80	40
81	40
82	30
83	50
84	159
85	60
86	149
87	10
88	20
99	20
100	10
102	30
103	10
104	10
