Mass Spectrum: Fluoranthene, 1,2,3,10b-tetrahydro-
Formula: C16 H14
CAS: 20279-21-4
Molecular weight: 206
Origin: CONTINENTAL OIL CO., PONCA CITY, OKLA, USA
m/z	RELATIVE INTENSITY
13	6
14	34
15	107
26	58
27	441
28	135
29	58
37	13
38	60
39	363
40	148
41	46
50	192
51	297
52	61
53	32
55	7
61	30
62	162
63	460
64	54
65	88
67	38
68	23
69	19
73	18
74	229
75	428
76	1612
77	176
78	49
81	56
82	311
85	28
86	121
87	323
88	1003
89	2270
90	173
91	21
93	20
94	105
95	192
96	18
97	13
98	144
99	141
100	379
101	790
102	252
103	203
104	9
109	16
110	62
111	79
112	21
113	69
114	23
115	111
116	14
122	44
123	33
124	18
125	40
126	147
127	107
128	126
129	32
134	20
135	20
137	46
138	32
139	194
140	26
141	16
146	11
149	56
150	285
151	447
152	642
153	128
154	72
161	42
162	64
163	302
164	125
165	790
166	128
167	17
173	26
174	136
175	231
176	979
177	672
178	9999
179	1669
180	145
181	19
186	24
187	91
188	93
189	675
190	399
191	399
192	81
193	18
197	22
198	49
199	84
200	390
201	364
202	1518
203	1331
204	682
205	2001
206	6892
207	1116
208	87
