Mass Spectrum: 5-Imidazolic acid, 4-nitro-, methyl ester
Formula: C5 H5 N3 O4
CAS: 20271-20-9
Molecular weight: 171
Origin: L. Cohen, LC, NIDDK, NIH, Bethesda, MD 20892
m/z	RELATIVE INTENSITY
41	455
42	2888
43	378
44	315
45	591
46	600
52	96
53	764
54	744
55	550
59	1799
60	146
65	659
66	1102
67	1158
68	461
69	3471
70	529
78	115
81	226
82	54
83	230
86	5275
87	137
93	239
94	858
95	155
96	1674
97	493
110	445
113	638
114	113
123	3058
124	886
125	109
139	104
140	4717
141	449
155	178
171	9999
172	764
173	50
