Mass Spectrum: Heptane, 3,4,5-trimethyl-
Formula: C10 H22
CAS: 20278-89-1
Molecular weight: 142
Origin: NIST Mass Spectrometry Data Center, 1990.
m/z	RELATIVE INTENSITY
27	1720
28	805
29	3300
30	80
32	89
39	1526
41	5675
43	9999
44	397
51	147
53	498
54	164
55	1652
56	2620
57	5420
58	232
65	91
67	203
69	2442
70	220
71	1395
84	5614
85	8138
86	554
