Mass Spectrum: Pentanoic acid, 4-oxo-, pentyl ester
Formula: C10 H18 O3
CAS: 20279-49-6
Molecular weight: 186
Origin: W.Jennings, T.Shibamoto
m/z	RELATIVE INTENSITY
28	190
29	190
39	390
40	80
41	6126
42	420
43	9999
44	90
54	90
55	1151
56	540
57	851
58	751
60	731
68	621
69	80
70	80
71	1141
72	520
73	190
81	90
98	90
99	6346
100	520
101	190
114	110
141	90
