Mass Spectrum: 1,1'-Biphenyl, 3-(1-methylethyl)-
Formula: C15 H16
CAS: 20282-30-8
Molecular weight: 196
Origin: PET49 P.H. Peterman, U.S. Fish Wildlife Serv., Columbia, Mo., USA
m/z	RELATIVE INTENSITY
39	273
41	266
42	23
43	47
50	120
51	322
52	70
53	102
62	41
63	210
64	81
65	105
66	16
70	22
71	42
74	87
75	211
76	637
77	1020
78	179
79	45
81	39
82	100
83	1019
84	364
86	28
87	79
88	276
89	798
90	984
91	109
92	24
93	17
95	28
96	22
97	73
98	84
99	41
100	19
101	108
102	236
103	349
104	40
113	68
114	124
115	648
116	92
117	47
118	22
119	98
126	238
127	341
128	263
129	84
138	35
139	245
140	36
141	275
142	56
149	61
150	251
151	686
152	1753
153	1030
154	552
155	207
156	36
163	423
164	560
165	3806
166	3489
167	911
168	73
175	74
177	345
178	1543
179	2581
180	1066
181	9999
182	1669
183	163
194	482
195	536
196	6688
197	1114
198	86
