Mass Spectrum: 3-Butyn-2-ol
Formula: C4 H6 O
CAS: 2028-63-9
Molecular weight: 70
Origin: Japan AIST/NIMC Database- Spectrum MS-NW-2822
m/z	RELATIVE INTENSITY
12	20
13	30
14	99
15	369
16	10
17	20
18	60
24	40
25	189
26	499
27	2249
28	519
29	1559
30	30
31	80
32	109
36	60
37	299
38	329
39	799
40	339
41	769
42	1289
43	3179
44	349
45	139
48	50
49	279
50	839
51	829
52	549
53	909
54	169
55	9999
56	329
57	20
66	20
67	30
68	40
69	1649
70	99
