Mass Spectrum: 6,8-Dioxabicyclo[3.2.1]octane, 7-ethyl-5-methyl-, (1R-exo)-
Formula: C9 H16 O2
CAS: 20290-99-7
Molecular weight: 156
Origin: W.E. GORE, LEDERLE LAB., PEARL RIVER, NEW YORK,
m/z	RELATIVE INTENSITY
27	1300
29	900
39	800
41	1200
43	9999
55	700
57	900
68	1500
71	800
72	400
85	2900
86	1100
98	1300
99	500
114	2600
127	400
156	400
