Mass Spectrum: 1H-Phenalene
Formula: C13 H10
CAS: 203-80-5
Molecular weight: 166
m/z	RELATIVE INTENSITY
39	303
50	260
51	260
62	325
63	606
64	151
69	108
70	108
73	173
75	173
77	87
81	281
82	1385
83	1190
84	173
86	173
87	260
88	151
89	195
110	65
111	65
113	238
115	714
116	65
137	151
139	714
140	108
162	173
163	1558
164	996
165	9999
166	5129
167	498
