Mass Spectrum: .beta.-Elemenone
Formula: C15 H22 O
CAS: 20303-60-0
Molecular weight: 218
Origin: NIST Mass Spectrometry Data Center
m/z	RELATIVE INTENSITY
26	10
27	220
28	30
29	190
38	30
39	931
40	270
41	1772
42	210
43	270
50	50
51	280
52	170
53	1271
54	180
55	611
56	40
57	30
58	20
60	20
61	10
62	10
63	100
64	30
65	520
67	4054
68	1281
69	480
70	40
71	40
72	10
73	10
74	10
75	20
76	20
77	1391
78	280
79	1531
80	300
81	390
82	841
83	80
84	20
89	30
90	10
91	2692
92	340
93	3143
95	861
96	260
97	90
98	10
102	30
103	190
104	50
105	1661
106	370
107	9999
108	1631
109	731
110	200
111	20
116	50
117	390
118	50
119	691
120	310
121	7377
123	320
129	50
130	40
131	130
132	300
133	891
134	290
135	7347
136	1501
137	400
143	40
144	20
145	100
147	480
148	150
149	550
150	1421
151	180
157	50
161	410
163	30
175	591
176	250
177	50
185	100
189	80
190	110
191	30
200	20
203	470
204	70
218	270
219	40
