Mass Spectrum: 5-Methylbenzofurazan
Formula: C7 H6 N2 O
CAS: 20304-86-3
Molecular weight: 134
Origin: NIST Mass Spectrometry Data Center, 1994
m/z	RELATIVE INTENSITY
15	228
18	24
25	82
26	791
27	2296
28	874
29	24
30	2525
31	80
36	87
37	1231
38	1654
39	2566
40	371
41	250
42	57
43	52
44	50
48	60
49	464
50	2723
51	6156
52	2089
53	670
54	283
55	97
56	43
57	67
60	71
61	506
62	688
63	1159
64	1037
65	308
66	213
67	95
68	92
73	106
74	402
75	977
76	1968
77	9999
78	2630
79	1704
80	242
81	38
82	51
86	61
87	129
88	211
89	233
90	411
91	98
92	37
94	275
99	76
100	51
102	1098
103	812
104	1221
105	4365
106	425
107	136
116	391
117	412
118	47
132	37
134	6223
135	520
136	43
