Mass Spectrum: Cyclotrisiloxane, hexaethyl-
Formula: C12 H30 O3 Si3
CAS: 2031-79-0
Molecular weight: 306
Origin: RADIAN CORP
m/z	RELATIVE INTENSITY
26	20
27	710
29	1950
45	30
47	20
59	20
73	10
75	70
82	30
89	180
91	390
93	40
95	110
96	2640
103	150
105	160
109	30
110	2550
115	20
117	210
119	390
121	20
124	770
132	10
133	690
134	130
135	2550
136	420
137	3040
138	440
139	330
147	330
148	60
149	670
150	90
151	320
159	130
160	10
161	1060
162	300
163	3590
164	700
165	3100
166	540
167	310
175	80
177	230
179	30
189	190
190	40
191	1580
192	370
193	3560
194	700
195	390
219	560
220	140
221	7560
222	1630
223	890
224	100
247	460
248	40
249	8540
250	2040
251	1100
252	150
277	9999
278	2680
279	1320
280	210
