Mass Spectrum: Methiocarb
Formula: C11 H15 N O2 S
CAS: 2032-65-7
Molecular weight: 225
Origin: NIST Mass Spectrometry Data Center, 1995
m/z	RELATIVE INTENSITY
12	24
13	32
15	1089
16	103
17	93
18	63
22	25
26	272
27	469
28	587
29	326
38	410
39	1194
40	252
41	773
42	38
43	112
44	379
45	2151
46	122
47	492
50	206
51	953
52	91
53	553
54	25
55	737
56	851
57	722
58	1542
59	567
61	57
62	202
63	514
64	59
65	785
66	317
67	464
68	25
69	411
70	126
71	123
74	25
75	87
76	30
77	862
78	153
79	408
80	25
81	383
82	29
83	25
84	587
85	386
86	26
89	81
91	2566
92	963
93	296
94	100
97	304
99	27
105	223
106	24
107	854
108	100
109	3547
110	388
111	48
119	86
120	142
121	593
122	130
123	489
124	471
125	301
134	26
135	380
137	115
138	54
139	495
151	389
152	37
153	7799
154	1273
155	692
168	9999
169	1357
170	919
207	32
225	847
