Mass Spectrum: 2-Propanol, 1-(2-methoxy-1-methylethoxy)-
Formula: C7 H16 O3
CAS: 20324-32-7
Molecular weight: 148
Origin: Japan AIST/NIMC Database- Spectrum MS-NW-5287
m/z	RELATIVE INTENSITY
14	20
15	379
16	10
17	10
18	30
26	50
27	329
28	169
29	449
30	30
31	1959
32	40
33	249
37	10
38	20
39	279
40	70
41	2029
42	729
43	739
44	90
45	3749
46	99
47	30
55	50
56	20
57	319
58	519
59	9999
60	359
61	40
63	10
69	10
71	129
72	169
73	2929
74	159
75	139
77	10
85	40
87	20
89	50
91	10
92	20
93	10
101	70
102	10
103	2729
104	399
105	40
117	40
130	20
133	10
