Mass Spectrum: Ethyl 6-amino-3,4-dimethoxybenzoate
Formula: C11 H15 N O4
CAS: 20323-74-4
Molecular weight: 225
Origin: NIST Mass Spectrometry Data Center, 1994
m/z	RELATIVE INTENSITY
12	42
14	217
15	2777
16	51
17	77
18	205
26	319
27	2012
28	1049
29	3249
30	246
33	56
37	140
38	438
39	2088
40	369
41	483
42	321
43	404
44	723
45	206
47	75
49	85
50	558
51	1125
52	2923
53	1524
54	326
55	247
56	63
57	181
58	658
61	101
62	283
63	632
64	472
65	1143
66	895
67	479
68	1042
69	324
70	61
71	42
75	96
76	589
77	635
78	761
79	570
80	969
81	420
82	572
83	95
88	46
89	113
90	1031
91	325
92	492
93	1063
94	4400
95	543
96	102
97	72
98	68
104	95
105	255
106	415
107	372
108	1957
109	1137
110	903
111	164
118	140
119	111
120	499
121	281
122	386
123	134
124	229
125	1187
126	123
133	259
134	424
136	5466
137	982
138	257
139	78
147	54
148	79
150	148
151	351
152	1417
153	159
154	187
164	9999
165	1026
166	248
179	1879
180	2379
182	5053
183	506
184	67
196	114
197	658
198	75
210	8780
211	1071
212	135
225	8638
226	1143
227	138
