Mass Spectrum: Dimethyl 5-chloroisophthalate
Formula: C10 H9 Cl O4
CAS: 20330-90-9
Molecular weight: 228
Origin: NIST Mass Spectrometry Data Center, 1994
m/z	RELATIVE INTENSITY
4	13
15	1022
16	23
18	32
27	19
28	147
29	364
30	116
31	113
32	28
35	16
36	18
37	101
38	83
39	69
44	18
45	51
49	61
50	361
51	139
53	90
55	113
56	46
59	401
60	44
61	41
62	121
63	335
64	29
65	30
69	202
70	71
72	31
73	284
74	1277
75	1938
76	183
77	352
78	70
79	14
83	299
84	266
85	38
86	65
87	41
89	67
90	25
91	42
97	46
98	118
99	82
100	49
101	56
102	117
103	44
104	14
105	22
106	24
108	55
109	362
110	919
111	415
112	327
113	125
119	33
125	68
126	334
127	36
128	102
133	35
134	117
135	18
136	18
137	358
138	236
139	215
140	81
141	79
143	18
147	67
153	595
154	1521
155	320
156	506
157	46
161	18
162	39
163	22
167	38
169	2379
170	262
171	866
172	78
181	50
183	251
184	32
185	80
193	80
194	19
195	45
196	19
197	9999
198	1141
199	3361
200	337
201	43
213	60
215	24
227	407
228	3358
229	517
230	1160
231	120
232	17
