Mass Spectrum: Methyl ethyl disulfide
Formula: C3 H8 S2
CAS: 20333-39-5
Molecular weight: 108
Origin: H.J. MOECKEL & J. WEISS, HAHN-MEITNER-INST. BERLIN, W. G
m/z	RELATIVE INTENSITY
15	428
22	1
24	15
25	159
26	1510
27	4777
29	8902
30	203
33	189
34	211
35	797
36	12
37	37
38	6
39	1
41	30
43	28
44	854
45	4746
46	2214
47	2117
48	288
49	209
50	8
51	3
56	44
57	294
58	732
59	1292
60	1141
61	730
62	117
63	692
64	3279
65	482
66	337
67	36
68	12
74	3
75	42
76	48
77	72
78	452
79	3310
80	9999
81	596
82	969
83	25
84	23
88	1
89	1
90	2
91	11
92	58
93	402
95	25
105	1
106	16
107	1098
108	9973
109	678
110	900
111	43
112	23
