Mass Spectrum: Propionylecgonine methyl ester
Formula: C13 H21 N O4
CAS: 203320-37-0
Molecular weight: 255
Origin: J.F.Casale ET AL.J.Forensic SCI,43,125,(1998)
m/z	RELATIVE INTENSITY
41	581
42	2592
43	70
44	510
45	70
53	260
54	220
55	731
56	400
57	1752
58	70
59	330
65	70
67	400
68	510
69	110
70	220
79	140
80	260
81	691
82	9999
83	3873
84	400
91	260
93	220
94	3693
95	290
96	3283
97	1131
108	260
110	110
119	220
122	510
140	110
150	70
152	220
155	140
166	180
168	691
182	8698
183	881
198	771
224	510
240	50
255	1091
256	110
