Mass Spectrum: 1,3-Dioxane-4,6-dione, 2,2-dimethyl-
Formula: C6 H8 O4
CAS: 2033-24-1
Molecular weight: 144
Origin: Japan AIST/NIMC Database- Spectrum MS-NW-6841
m/z	RELATIVE INTENSITY
12	139
13	149
14	1139
15	1479
16	159
17	10
18	50
19	10
20	10
21	30
22	60
24	40
25	99
26	259
27	469
28	469
29	289
30	20
31	70
32	20
36	40
37	119
38	159
39	419
40	129
41	609
42	3419
43	9999
44	4369
45	319
46	20
50	20
51	30
52	20
53	80
54	50
55	50
57	80
58	2669
59	249
60	179
61	129
65	10
66	20
67	239
68	60
69	189
70	40
72	80
77	20
79	10
82	289
83	60
84	20
85	30
86	219
87	30
91	10
98	309
99	20
100	159
101	10
108	10
109	40
111	10
121	10
123	10
124	20
125	10
126	379
127	259
128	20
129	139
130	10
