Mass Spectrum: Phenol, 3,4-dimethoxy-
Formula: C8 H10 O3
CAS: 2033-89-8
Molecular weight: 154
Origin: NIST Mass Spectrometry Data Center
m/z	RELATIVE INTENSITY
14	30
15	250
25	20
26	160
27	220
28	60
29	380
30	30
31	80
34	50
36	10
37	100
38	280
39	1271
40	250
41	420
42	540
43	260
44	10
45	60
48	10
49	80
50	550
51	1001
52	1001
53	1611
54	400
55	2272
56	110
57	50
59	70
60	20
61	120
62	290
63	390
64	140
65	2082
66	300
67	280
68	1111
69	2012
70	270
71	80
73	10
74	30
75	30
76	10
77	160
78	40
79	530
80	320
81	1071
82	230
83	571
84	40
85	20
90	10
91	20
92	70
93	2752
94	240
95	711
96	1171
97	200
98	20
107	70
108	440
109	250
110	510
111	6386
112	420
113	40
121	140
122	10
123	90
124	20
125	400
126	30
137	240
138	450
139	8348
140	641
141	80
151	10
154	9999
155	901
156	90
157	10
