Mass Spectrum: Cyclohexane, 1,3-dimethyl-2-methylene-, trans-
Formula: C9 H16
CAS: 20348-74-7
Molecular weight: 124
Origin: NIST Mass Spectrometry Data Center, 1990.
m/z	RELATIVE INTENSITY
15	214
26	175
27	1611
28	693
29	738
39	3475
40	752
41	3769
42	599
43	504
50	402
51	1031
52	513
53	2319
54	785
55	2300
56	275
62	111
63	281
65	1071
67	9999
68	7050
69	1530
70	390
77	1296
78	339
79	1954
80	521
81	4644
82	4644
83	589
91	903
92	124
93	447
95	3134
96	1485
97	116
105	185
107	187
109	6395
110	572
124	1777
125	159
