Mass Spectrum: 1H-Imidazole, 2,4,5-tribromo-
Formula: C3 H Br3 N2
CAS: 2034-22-2
Molecular weight: 302
Origin: Japan AIST/NIMC Database- Spectrum MS-NW-7152
m/z	RELATIVE INTENSITY
12	50
13	10
24	30
25	10
26	30
27	149
28	20
36	10
38	1599
39	209
40	10
41	20
43	10
44	10
50	40
51	10
52	20
53	189
55	10
57	20
64	309
65	609
66	30
69	10
71	10
73	10
79	529
80	219
81	519
82	209
83	10
91	1189
92	70
93	1189
94	70
95	10
97	10
98	20
99	40
100	20
103	40
104	10
105	109
106	619
107	80
108	599
109	10
111	199
112	369
113	189
114	10
117	889
118	1199
119	919
120	1209
121	40
129	20
131	20
137	20
138	40
139	40
140	10
143	90
144	669
145	129
146	649
147	30
151	40
152	109
153	109
154	50
158	10
160	30
162	10
165	10
166	10
170	339
171	10
172	649
173	20
174	319
175	10
179	10
181	10
182	30
184	60
186	30
196	859
197	159
198	1609
199	289
200	819
201	159
222	209
223	1559
224	509
225	3019
226	369
227	1469
228	90
231	10
233	20
235	20
258	30
260	50
262	40
275	1279
276	40
277	3669
278	109
279	3589
280	99
281	1179
282	30
301	10
302	3479
303	189
304	9999
305	449
306	9749
307	429
308	3239
309	139
