Mass Spectrum: Phenol, 2-[(phenylimino)methyl]-, N-oxide
Formula: C13 H11 N O2
CAS: 20357-59-9
Molecular weight: 213
Origin: J.H.BOWIE UNIVERSITY OF ADELAIDE, AUSTRALIA
m/z	RELATIVE INTENSITY
28	700
39	1200
50	900
51	3800
52	800
55	900
64	1500
65	1700
66	800
76	600
77	8600
78	1400
91	9999
92	1600
93	2400
94	1200
104	1100
105	700
120	1000
121	1500
141	600
167	1500
168	1200
184	1300
185	1900
196	7600
197	4100
212	600
213	6100
214	1400
