Mass Spectrum: Methazole
Formula: C9 H6 Cl2 N2 O3
CAS: 20354-26-1
Molecular weight: 260
Origin: CATALOGUE OF MASS SPECTRA OF PESTICIDES, APRIL, 1975; J. FREUDENTHAL & L. G. GRAMBERG, NAT'L INST. OF PUBLIC HEALTH, THE NETHERLANDS
m/z	RELATIVE INTENSITY
12	119
15	241
37	160
38	294
49	366
62	653
63	185
64	314
73	767
75	483
80	111
84	143
85	121
86	135
87	165
88	1549
89	206
97	1523
98	680
99	631
100	161
110	158
111	325
124	9666
125	613
126	4052
127	269
132	172
133	150
134	195
145	1502
146	164
147	827
158	103
159	9999
160	997
161	7125
162	555
163	1552
173	552
175	637
177	188
181	249
187	1296
188	160
189	639
216	300
217	125
218	305
243	398
260	7129
261	784
262	4967
263	561
264	778
