Mass Spectrum: Octanoic acid, 3-methylbutyl ester
Formula: C13 H26 O2
CAS: 2035-99-6
Molecular weight: 214
Origin: V.Zaikin,Topchiev Inst.Petrochem.Synth.,Moscow
m/z	RELATIVE INTENSITY
26	40
27	250
28	70
29	400
30	10
31	20
36	30
38	10
39	220
40	60
41	971
42	500
43	2362
44	80
45	70
50	10
51	20
52	20
53	80
54	70
55	1581
56	200
57	1732
58	80
59	40
60	280
61	110
67	110
68	50
69	350
70	9999
71	2532
72	130
73	320
74	40
75	10
79	30
80	20
81	30
82	60
83	170
84	170
85	90
86	20
87	180
88	40
89	100
93	10
96	10
97	100
98	140
99	30
100	20
101	290
102	20
103	60
109	130
110	10
111	20
115	270
116	20
125	60
126	10
127	3423
128	280
129	50
130	110
131	30
143	100
144	290
145	1251
146	120
157	20
171	310
172	40
199	60
214	20
215	10
