Mass Spectrum: Dibenzofuran, 2-methoxy-
Formula: C13 H10 O2
CAS: 20357-70-4
Molecular weight: 198
Origin: Japan AIST/NIMC Database- Spectrum MS-IW- 629
m/z	RELATIVE INTENSITY
14	20
15	10
26	10
27	10
28	10
29	20
38	20
39	70
40	10
41	10
43	50
44	10
45	10
49	10
50	90
51	179
52	20
53	50
54	30
55	20
56	20
57	20
61	20
62	90
63	249
64	20
65	20
69	159
70	30
71	10
73	10
74	179
75	309
76	99
77	449
78	30
79	10
82	10
84	10
85	20
86	70
87	90
88	40
89	70
91	20
92	10
98	60
99	379
100	60
101	359
102	40
110	20
111	20
112	10
113	70
114	10
115	20
119	20
125	40
126	519
127	1669
128	179
129	30
131	10
137	40
138	40
139	339
140	60
141	40
142	10
152	10
153	10
154	60
155	3149
156	389
157	30
167	80
168	179
169	199
170	30
181	10
182	50
183	7069
184	939
185	80
195	10
197	50
198	9999
199	1419
200	129
201	10
