Mass Spectrum: 1-Hexanamine, N-ethyl-
Formula: C8 H19 N
CAS: 20352-67-4
Molecular weight: 129
Origin: CARL DJERASSI DEPT OF CHEM STANFORD UNIV STANFORD CALIF 94305
m/z	RELATIVE INTENSITY
29	500
30	2100
41	400
42	200
43	500
44	600
45	100
56	300
58	9999
59	400
71	100
112	100
113	500
114	1000
128	800
129	3400
130	300
