Mass Spectrum: 6-Nitroveratraldehyde
Formula: C9 H9 N O5
CAS: 20357-25-9
Molecular weight: 211
Origin: NIST Mass Spectrometry Data Center, 1994
m/z	RELATIVE INTENSITY
13	42
14	150
15	1490
16	65
17	35
18	31
25	45
26	100
27	218
28	550
29	1202
30	1698
31	92
32	4
37	262
38	392
39	984
40	90
41	392
42	107
43	439
44	24
45	185
46	96
47	26
48	4
49	338
50	2609
51	3333
52	613
53	1388
54	207
55	239
56	52
57	97
58	80
59	276
60	24
61	557
62	1222
63	1120
64	526
65	630
66	688
67	481
68	210
69	1178
70	68
71	38
73	132
74	581
75	817
76	494
77	1369
78	903
79	2816
80	556
81	241
82	861
83	128
84	74
85	89
88	22
90	140
91	199
92	818
93	1986
94	620
95	2413
96	196
97	116
101	37
103	109
104	67
105	103
106	366
107	1738
108	938
109	571
110	3447
111	288
118	134
119	295
120	460
121	1328
122	374
123	987
124	134
125	4561
126	421
127	47
133	76
135	1400
136	5835
137	2608
138	3206
139	296
140	28
148	83
150	1077
151	238
152	84
153	170
164	1964
165	674
166	158
167	490
168	69
181	9999
182	913
183	121
194	393
195	42
211	4927
212	476
213	99
