Mass Spectrum: Formaldehyde, dimethylhydrazone
Formula: C3 H8 N2
CAS: 2035-89-4
Molecular weight: 72
Origin: ATLAS OF MASS SPECTRA OF ORGANIC COMPOUNDS, V. A. KOPTYUG, ED.
m/z	RELATIVE INTENSITY
27	880
28	220
29	430
30	3600
40	340
41	500
42	9780
43	1860
44	420
57	2660
58	70
71	5170
72	9999
73	460
