Mass Spectrum: Pyrimidine, 5-methyl-
Formula: C5 H6 N2
CAS: 2036-41-1
Molecular weight: 94
Origin: TAT 0755
m/z	RELATIVE INTENSITY
41	400
42	200
50	200
51	601
52	300
63	200
64	300
65	400
66	1001
67	801
68	100
77	801
78	200
79	300
93	400
94	9999
95	601
