Mass Spectrum: Cyclopentanol, 2-bromo-, trans-
Formula: C5 H9 Br O
CAS: 20377-79-1
Molecular weight: 164
Origin: J. M. PECHINE
m/z	RELATIVE INTENSITY
27	1390
28	500
29	1745
30	220
31	445
38	145
39	1160
40	240
41	1840
42	295
43	935
44	470
53	220
55	1320
56	410
57	9999
58	760
65	180
67	2805
68	210
71	455
83	290
84	270
85	2330
86	145
135	135
136	370
137	145
138	360
146	255
148	250
164	2260
166	2210
