Mass Spectrum: Benzenethiol, 3-chloro-
Formula: C6 H5 Cl S
CAS: 2037-31-2
Molecular weight: 144
Origin: Japan AIST/NIMC Database- Spectrum MS-IW-1264
m/z	RELATIVE INTENSITY
26	10
27	10
28	50
32	30
33	10
35	10
36	50
37	119
38	149
39	259
40	10
41	10
44	60
45	409
46	10
47	30
48	10
49	70
50	349
51	189
52	40
53	129
54	459
55	20
56	10
57	109
58	259
59	50
60	50
61	139
62	209
63	509
64	60
65	789
66	40
68	30
69	749
70	50
71	90
72	399
73	429
74	279
75	669
76	99
77	99
78	10
79	70
80	20
81	199
82	389
83	99
84	239
85	90
86	30
87	30
91	30
92	30
93	60
94	10
95	30
96	10
97	20
99	349
100	1359
101	179
102	439
103	40
104	10
105	70
106	50
107	169
108	2799
109	5769
110	569
111	569
112	239
113	109
114	70
115	10
116	10
118	189
119	10
120	70
127	10
129	10
142	70
143	839
144	9999
145	1029
146	3629
147	279
148	149
149	10
