Mass Spectrum: 2H-Inden-2-one, octahydro-3a-methyl-, trans-
Formula: C10 H16 O
CAS: 20379-99-1
Molecular weight: 152
Origin: CARL DJERASSI DEPT OF CHEM STANFORD UNIV STANFORD CALIF 94305
m/z	RELATIVE INTENSITY
31	589
32	100
34	336
38	252
39	5858
40	7171
41	7777
42	1010
43	1346
44	420
45	252
46	84
50	168
51	505
52	336
53	1851
54	2020
55	4040
56	2104
57	589
58	84
59	84
63	168
65	589
66	673
67	8080
68	5656
69	3030
70	1262
71	168
74	84
77	757
78	252
79	1346
80	589
81	7474
82	4545
83	589
84	168
91	420
92	168
93	841
94	2777
95	9999
96	3030
97	336
98	168
105	168
106	84
107	168
108	2020
109	6060
110	3450
111	336
112	252
119	420
123	336
124	420
125	84
134	84
137	841
152	4545
153	420
154	84
