Mass Spectrum: 2,6-Diiodo-p-benzoquinone
Formula: C6 H2 I2 O2
CAS: 20389-01-9
Molecular weight: 360
Origin: NIST Mass Spectrometry Data Center, 1994
m/z	RELATIVE INTENSITY
12	24
24	48
25	190
36	55
37	146
48	68
49	350
50	778
51	255
52	179
53	3231
54	123
60	73
61	159
62	113
69	162
77	51
78	50
79	129
80	91
81	39
106	52
108	301
127	1346
128	96
151	74
152	571
176	43
177	299
178	34
179	129
180	214
181	54
205	500
206	108
207	84
208	91
233	1089
234	182
235	124
304	85
332	240
333	36
360	9999
361	739
362	4437
363	312
