Mass Spectrum: Benzene, 2-ethenyl-1,3-dimethyl-
Formula: C10 H12
CAS: 2039-90-9
Molecular weight: 132
m/z	RELATIVE INTENSITY
15	40
18	10
26	30
27	430
28	50
29	30
37	40
38	130
39	1081
41	370
42	20
43	20
44	20
45	10
49	10
50	330
51	1111
52	260
53	370
56	10
57	60
58	320
59	100
60	60
62	60
63	220
64	741
65	1271
66	1291
67	100
68	20
69	120
70	10
73	20
74	160
75	180
76	130
77	901
78	340
79	270
80	30
85	20
86	60
87	70
88	30
89	340
90	60
91	2462
92	320
93	30
94	10
98	30
99	10
101	60
102	250
103	400
104	220
105	711
106	90
107	10
113	30
114	50
115	3863
116	1661
117	9999
118	991
119	100
120	60
121	10
126	70
127	340
128	731
129	731
130	200
131	2963
132	9338
133	1111
134	70
135	20
137	10
