Mass Spectrum: 3-Acetylphenanthrene
Formula: C16 H12 O
CAS: 2039-76-1
Molecular weight: 220
Origin: NIST Mass Spectrometry Data Center, 1990.
m/z	RELATIVE INTENSITY
14	48
15	190
27	37
28	28
39	126
42	83
43	730
44	34
50	136
51	202
52	31
62	195
63	334
68	19
69	77
73	37
74	352
75	697
76	184
77	137
81	128
82	107
85	61
86	195
87	489
88	2514
93	123
94	186
96	347
98	204
99	197
100	123
101	113
102	450
109	79
110	119
111	86
113	58
115	30
122	103
123	78
124	75
125	122
126	199
127	58
137	42
139	60
148	38
149	284
150	1238
151	1611
152	268
153	25
161	28
163	86
164	36
165	65
174	535
175	879
176	5044
177	7045
178	1116
179	81
186	30
187	113
188	94
189	369
190	172
191	112
192	32
200	44
201	27
202	42
205	9999
206	1762
207	146
220	6091
221	1029
222	100
