Mass Spectrum: Benzene, 1-bromo-2-ethenyl-
Formula: C8 H7 Br
CAS: 2039-88-5
Molecular weight: 182
Origin: Japan AIST/NIMC Database- Spectrum MS-IW-2303
m/z	RELATIVE INTENSITY
26	50
27	229
36	10
37	109
38	249
39	409
40	10
41	10
43	60
45	10
49	139
50	1329
51	2939
52	389
53	129
55	10
57	30
60	20
61	139
62	309
63	639
64	60
65	30
69	10
73	119
74	759
75	1159
76	1109
77	5179
78	419
79	80
80	40
81	20
82	40
85	20
86	40
87	99
88	30
89	50
90	40
91	249
92	209
97	20
98	119
99	40
100	20
101	539
102	2549
103	9999
104	929
105	80
107	70
108	10
115	30
116	10
117	40
118	10
119	20
121	10
122	20
128	10
129	10
130	10
131	10
133	10
143	10
145	10
147	10
155	20
156	50
157	40
158	50
159	20
180	10
181	80
182	8869
183	869
184	8649
185	849
186	50
187	80
