Mass Spectrum: 3,4-Dichlorostyrene
Formula: C8 H6 Cl2
CAS: 2039-83-0
Molecular weight: 172
Origin: J.E. WILKINSON S-CUBED, SAN DIEGO, CA.
m/z	RELATIVE INTENSITY
47	208
48	35
49	865
50	1989
51	1678
52	52
61	242
62	432
63	484
68	69
72	35
73	381
74	1626
75	1972
76	173
84	398
85	173
86	381
87	190
97	52
98	104
99	242
101	1643
102	3529
109	86
111	104
136	640
137	3477
138	208
139	588
145	35
146	225
148	35
171	17
172	9999
173	363
174	5674
175	86
176	381
