Mass Spectrum: 2-Chlorostyrene
Formula: C8 H7 Cl
CAS: 2039-87-4
Molecular weight: 138
Origin: NIST Mass Spectrometry Data Center
m/z	RELATIVE INTENSITY
26	70
27	160
35	10
36	20
37	160
38	240
39	400
43	10
47	20
48	10
49	240
50	1611
51	2472
52	350
53	80
60	60
61	290
62	460
63	851
64	60
65	20
68	80
69	210
70	60
72	50
73	350
74	1161
75	1712
76	1031
77	2873
78	280
79	10
84	100
85	150
86	140
87	230
88	30
89	70
96	10
97	100
98	200
99	140
100	70
101	1031
102	2632
103	9999
104	871
105	30
108	10
109	10
110	20
111	40
112	400
113	40
114	130
123	40
125	10
136	100
137	280
138	8177
139	801
140	2712
141	230
