Mass Spectrum: Cyclopentane, butyl-
Formula: C9 H18
CAS: 2040-95-1
Molecular weight: 126
Origin: NIST Mass Spectrometry Data Center, 1990.
m/z	RELATIVE INTENSITY
14	224
15	90
16	99
26	286
27	2431
28	183
29	2398
30	50
37	50
39	4811
40	1092
41	9999
42	2163
43	1428
44	118
50	170
51	497
52	298
53	1588
54	1804
55	7835
56	5614
57	1217
62	47
63	140
65	552
66	364
67	3680
68	8340
69	9295
70	4824
71	589
77	333
78	74
79	318
80	55
81	303
82	1889
83	3884
84	2049
85	270
91	79
95	65
96	511
97	2899
98	1667
99	107
111	123
126	1278
127	133
