Mass Spectrum: 2,6-Dichloroacetophenone
Formula: C8 H6 Cl2 O
CAS: 2040-05-3
Molecular weight: 188
Origin: NIST Mass Spectrometry Data Center, 1994
m/z	RELATIVE INTENSITY
4	27
12	46
13	145
14	564
15	2654
16	29
17	23
18	50
25	47
26	141
28	459
29	5
32	32
35	180
36	151
37	714
38	455
39	367
40	39
41	80
42	729
43	5616
44	196
47	137
48	83
49	663
50	1235
51	498
52	32
53	51
55	174
56	69
60	176
61	565
62	582
63	632
64	62
65	28
68	22
69	26
71	52
72	231
73	1108
74	2805
75	2587
76	269
77	92
84	1015
85	593
86	582
87	401
88	52
89	384
90	61
96	75
97	160
98	132
99	183
100	39
101	77
102	39
106	26
107	36
108	202
109	1864
110	795
111	939
112	309
113	131
118	40
119	86
120	34
121	58
123	134
124	46
125	180
127	47
133	28
135	33
137	35
138	92
139	41
145	2552
146	468
147	1655
148	293
149	254
150	58
159	39
161	38
173	9999
174	851
175	6824
176	553
177	1129
178	88
188	1550
189	139
190	1021
191	90
192	171
193	15
