Mass Spectrum: R-(-)-N,S-Dimethyl-S-phenylsulfoximine
Formula: C8 H11 N O S
CAS: 20414-85-1
Molecular weight: 169
Origin: NIST Mass Spectrometry Data Center, 1994
m/z	RELATIVE INTENSITY
13	42
14	199
15	1726
16	50
18	112
26	87
27	940
28	2432
29	222
30	739
32	95
33	83
34	90
37	140
38	419
39	1677
40	109
41	66
42	1383
43	353
44	1049
45	1331
46	364
47	423
48	322
49	328
50	3240
51	8250
52	644
53	719
54	59
55	39
57	115
58	138
59	13
60	689
61	743
62	341
63	1606
64	395
65	1597
66	298
67	74
68	81
69	635
70	149
71	130
72	32
73	169
74	816
75	621
76	861
77	9999
78	2241
79	1834
80	232
81	327
82	216
83	59
84	106
85	153
86	27
89	53
91	1058
92	366
93	349
94	1437
95	342
96	27
97	2504
98	166
99	122
100	69
104	568
105	2360
106	7878
107	719
108	230
109	811
110	165
111	191
112	170
113	35
120	91
121	95
122	46
123	161
124	1018
125	3710
126	1081
127	229
128	52
136	42
138	101
140	772
141	1839
142	189
143	89
154	6518
155	582
156	367
157	24
168	315
169	2525
170	296
171	146
