Mass Spectrum: 4-Quinolinol, 4-ethyldecahydro-1,2-dimethyl-, (2.alpha.,4.alpha.,4a.beta.,8a.alpha.)-
Formula: C13 H25 N O
CAS: 20422-68-8
Molecular weight: 211
m/z	RELATIVE INTENSITY
53	320
54	320
55	681
56	681
57	1591
58	3093
59	180
65	140
66	90
67	550
68	270
69	230
70	591
71	180
72	320
73	90
77	230
79	410
80	180
81	550
82	591
83	320
84	320
85	140
91	180
92	90
93	140
94	230
95	230
96	951
97	140
98	90
105	90
106	90
107	140
108	180
109	90
110	270
111	90
112	180
120	90
121	90
122	180
123	90
124	230
125	90
126	681
127	90
136	230
137	90
138	550
139	140
140	140
147	90
148	90
149	50
150	360
151	90
152	90
163	90
164	681
165	550
166	180
167	180
168	1591
169	180
177	90
178	641
179	140
180	140
181	140
182	9999
183	1231
184	90
193	180
194	230
195	140
196	5455
197	771
198	90
210	270
211	1271
212	180
