Mass Spectrum: Acetic acid, bromochloro-, methyl ester
Formula: C3 H4 Br Cl O2
CAS: 20428-74-4
Molecular weight: 186
Origin: PYTCAS, 18(4)617(1979); F. X. WOOLARD ET AL.
m/z	RELATIVE INTENSITY
59	9999
127	6900
129	5800
131	1500
155	300
157	400
159	100
186	200
188	100
190	50
