Mass Spectrum: 4-Quinolinol, 4-ethenyldecahydro-1,2-dimethyl-, (2.alpha.,4.beta.,4a.alpha.,8a.beta.)-
Formula: C13 H23 N O
CAS: 20431-95-2
Molecular weight: 209
m/z	RELATIVE INTENSITY
51	170
52	110
53	631
54	510
55	4094
56	1141
57	1021
58	5285
59	170
65	230
66	110
67	1081
68	400
69	280
70	911
71	280
72	400
77	400
78	110
79	571
81	851
82	911
83	510
84	851
85	170
91	340
92	110
93	230
94	280
95	340
96	1021
97	280
98	571
105	110
106	110
107	170
108	280
109	230
110	510
111	230
112	280
113	110
117	110
119	110
120	110
121	110
122	170
123	110
124	571
125	110
126	340
134	170
135	170
136	571
137	230
138	400
139	170
148	170
150	280
152	400
153	110
162	170
163	230
164	280
165	110
166	5115
167	681
168	571
176	741
177	110
178	170
179	60
180	170
181	60
182	1191
183	170
190	110
191	110
192	1081
193	280
194	9999
195	1191
196	571
197	60
208	280
209	1531
210	280
