Mass Spectrum: 4-Quinolinol, 4-ethenyldecahydro-1,2-dimethyl-, (2.alpha.,4.alpha.,4a.alpha.,8a.beta.)-
Formula: C13 H23 N O
CAS: 20431-93-0
Molecular weight: 209
m/z	RELATIVE INTENSITY
51	230
52	80
53	771
54	460
55	3313
56	2542
57	1541
58	3233
59	150
65	380
66	150
67	2462
68	621
69	1381
70	1772
71	1692
72	460
77	621
78	230
79	921
80	380
81	1311
82	1081
83	1001
84	921
85	621
91	1001
92	380
93	621
94	540
95	921
96	1461
97	1541
98	621
99	230
105	621
106	310
107	540
108	380
109	771
110	771
111	621
112	621
113	380
117	310
118	230
119	460
120	310
121	460
122	380
123	540
124	771
125	460
126	540
127	310
131	380
132	380
133	540
134	460
135	380
136	921
137	540
138	771
139	230
140	150
145	230
146	380
147	310
148	380
149	310
150	380
151	230
152	621
153	150
159	230
160	150
161	230
162	230
163	380
164	310
165	230
166	8007
167	1151
168	691
169	150
176	771
177	230
178	230
179	230
180	150
182	380
183	80
187	230
190	230
191	230
192	2312
193	460
194	9999
195	1231
196	230
208	380
209	2772
210	540
