Mass Spectrum: cis-.alpha.-Phenylcinnamamide
Formula: C15 H13 N O
CAS: 20432-29-5
Molecular weight: 223
Origin: NIST Mass Spectrometry Data Center, 1994
m/z	RELATIVE INTENSITY
16	175
17	178
18	151
26	25
27	382
28	566
37	49
38	216
39	1102
40	83
44	3752
46	20
50	1202
51	3170
52	592
53	112
54	23
61	106
62	433
63	1166
64	155
65	251
66	65
69	31
70	23
74	620
75	934
76	1655
77	1916
78	347
79	716
80	54
81	35
82	55
84	42
85	47
86	228
87	422
88	606
89	1055
90	369
91	163
92	34
93	158
96	34
97	55
98	236
99	181
100	121
101	244
102	1154
103	278
104	112
105	34
106	9999
107	833
108	35
110	83
111	153
113	199
114	77
115	246
116	105
117	35
118	5677
119	532
120	45
122	35
123	33
124	34
125	99
126	442
127	270
128	235
129	187
130	31
137	72
138	60
139	357
140	58
141	26
146	334
147	42
150	565
151	1151
152	2199
153	366
154	42
162	34
163	122
164	111
165	557
166	117
167	102
174	104
176	2106
177	1659
178	7342
179	3534
180	540
181	62
190	78
191	29
193	76
194	223
195	65
196	26
202	24
203	83
204	442
205	386
206	274
207	75
208	23
220	29
222	1628
223	4400
224	747
225	59
