Mass Spectrum: 4-Quinolinol, 4-ethenyldecahydro-1,2-dimethyl-, (2.alpha.,4.alpha.,4a.beta.,8a.alpha.)-
Formula: C13 H23 N O
CAS: 20431-91-8
Molecular weight: 209
m/z	RELATIVE INTENSITY
51	240
52	240
53	1051
54	891
55	4684
56	2022
57	1291
58	5735
59	240
63	160
65	400
66	160
67	1211
68	731
69	480
70	1211
71	480
72	651
76	651
77	240
78	811
79	240
80	1051
81	1371
82	651
83	811
84	240
91	561
92	240
93	400
94	561
95	400
96	2022
97	320
98	561
99	160
105	240
106	160
107	240
108	480
109	240
110	651
111	240
112	400
113	160
117	160
119	240
120	320
121	240
122	320
123	240
124	651
125	160
126	400
127	160
132	160
133	160
134	320
135	240
136	651
137	320
138	1211
139	240
140	240
146	160
147	160
148	400
149	160
150	561
151	160
152	731
153	240
162	320
163	1291
164	651
165	651
166	9999
167	1291
168	731
169	160
176	561
177	240
178	240
179	160
180	320
181	240
182	1852
183	240
190	240
191	400
192	2022
193	400
194	9689
195	1371
196	561
197	80
208	480
209	2502
210	400
