Mass Spectrum: 2(1H)-Pyridinethione, 1-methyl-
Formula: C6 H7 N S
CAS: 2044-27-1
Molecular weight: 125
Origin: James Little,Eastman Chem.Co.,Kingsport,TN
m/z	RELATIVE INTENSITY
27	460
39	1872
41	571
42	1231
45	981
51	981
52	741
53	500
57	370
58	480
63	550
65	961
66	500
69	731
78	1461
79	1081
80	4414
81	5185
82	671
84	550
92	430
93	310
95	190
96	190
97	681
109	170
110	220
124	2172
125	9999
126	951
127	510
