Mass Spectrum: Benzene, (ethenylsulfinyl)-
Formula: C8 H8 O S
CAS: 20451-53-0
Molecular weight: 152
Origin: NIST Mass Spectrometry Data Center, 1990.
m/z	RELATIVE INTENSITY
17	16
18	55
25	77
26	538
27	1659
28	119
29	102
32	41
36	34
37	157
38	336
39	1153
40	69
41	74
43	49
44	79
45	1194
46	62
47	176
48	116
49	259
50	2157
51	4827
52	464
53	523
54	42
55	36
57	232
58	603
59	1006
60	53
61	169
62	227
63	455
64	147
65	1894
66	477
67	158
68	74
69	798
70	122
71	149
72	26
73	190
74	724
75	410
76	436
77	3949
78	4804
79	473
80	47
81	287
82	264
83	103
84	168
86	28
89	119
91	1928
92	188
93	151
94	249
95	100
96	28
97	1968
98	133
99	82
101	30
102	191
103	1108
104	9999
105	832
106	60
107	100
108	408
109	3631
110	697
111	195
112	37
119	117
121	158
123	1571
124	299
125	1460
126	303
127	118
134	423
135	2309
136	1331
137	264
138	50
152	1437
153	150
154	82
