Mass Spectrum: 2-(2-Methoxyphenyl)ethylamine
Formula: C9 H13 N O
CAS: 2045-79-6
Molecular weight: 151
Origin: NIST Mass Spectrometry Data Center
m/z	RELATIVE INTENSITY
13	10
14	70
15	340
16	10
17	40
18	10
19	10
25	10
26	70
27	300
28	761
30	9999
31	140
36	10
37	40
38	190
39	621
40	80
41	150
42	110
43	90
44	20
45	10
50	340
51	691
52	430
53	180
54	40
55	30
58	10
61	40
62	130
63	390
65	831
66	90
67	30
74	70
75	60
77	731
78	651
79	320
80	60
81	10
86	20
87	20
89	290
91	1912
92	280
93	130
94	20
102	20
103	30
104	30
105	40
107	591
108	90
116	10
117	50
118	110
119	120
120	110
121	581
122	3603
123	310
124	10
132	10
134	20
135	20
149	10
151	170
152	20
