Mass Spectrum: Ethyl 1,3-dithiolane-2-carboxylate
Formula: C6 H10 O2 S2
CAS: 20461-99-8
Molecular weight: 178
Origin: NIST Mass Spectrometry Data Center
m/z	RELATIVE INTENSITY
12	10
13	20
14	100
15	310
26	721
27	2622
28	651
29	2783
30	150
32	130
33	90
34	100
35	160
37	10
38	10
39	30
40	20
41	100
42	70
43	160
45	4574
46	400
47	320
48	30
49	10
53	10
55	10
57	190
58	611
59	1011
60	380
61	2042
62	90
63	110
64	60
66	50
69	10
71	80
72	60
73	40
74	30
76	360
77	891
78	140
79	80
86	10
87	10
88	10
90	20
91	50
92	10
93	10
94	20
99	10
103	190
105	9999
106	550
107	841
108	40
109	20
119	10
122	10
149	10
178	1111
179	100
180	110
