Mass Spectrum: 1,2,3,4,4a,9,10,10a-Octahydrophenanthrene (cis)
Formula: C14 H18
CAS: 20480-66-4
Molecular weight: 186
Origin: R.A.HITES, INDIANA UNIV., BLOOMINGTON, IN
m/z	RELATIVE INTENSITY
55	600
56	400
57	200
65	1100
66	200
74	200
75	300
76	400
77	1400
78	900
79	600
80	300
89	600
91	2800
92	400
101	200
102	600
103	600
104	3700
105	1300
106	200
115	3100
116	1100
117	2000
118	400
126	200
127	1200
128	5000
129	9999
130	2900
131	600
141	800
142	600
143	8400
144	1100
145	200
156	100
157	300
158	1900
159	200
184	100
186	8800
187	1300
188	100
