Mass Spectrum: 2,3-Diamino-2,3-Dimethylbutane
Formula: C6 H16 N2
CAS: 20485-44-3
Molecular weight: 116
Origin: MUS325 A. Mujsce, AT&T Bell Labs., Murray Hill, N.J., USA
m/z	RELATIVE INTENSITY
14	29
15	140
16	27
17	19
18	255
25	27
26	13
27	120
28	204
30	757
31	25
38	36
39	447
41	1281
42	2228
43	654
44	157
46	19
47	18
49	10
51	22
52	60
53	33
54	113
56	157
58	9999
59	336
62	16
64	24
66	20
67	55
68	60
69	41
70	104
71	24
82	33
84	886
85	121
86	45
100	129
101	65
102	15
116	116
117	14
