Mass Spectrum: Propanoic acid, 1,1-dimethylethyl ester
Formula: C7 H14 O2
CAS: 20487-40-5
Molecular weight: 130
m/z	RELATIVE INTENSITY
12	10
14	100
15	651
16	20
26	260
27	1421
28	490
29	3233
30	80
31	150
32	10
39	651
40	110
41	1892
42	210
43	661
44	20
45	60
54	20
55	170
56	1111
57	9999
58	410
59	350
60	10
71	10
72	10
73	20
74	20
75	330
76	10
115	440
116	30
130	10
