Mass Spectrum: Benzene, (3-methylbutyl)-
Formula: C11 H16
CAS: 2049-94-7
Molecular weight: 148
Origin: Japan AIST/NIMC Database- Spectrum MS-IW-1348
m/z	RELATIVE INTENSITY
27	219
28	20
29	439
30	10
38	20
39	349
40	30
41	869
42	60
43	219
50	80
51	279
52	70
53	60
54	10
55	169
56	80
57	999
58	50
62	30
63	139
64	60
65	779
66	50
67	20
69	30
70	80
71	10
74	20
75	20
76	30
77	429
78	269
79	309
80	20
81	10
82	40
83	70
87	10
89	129
90	50
91	6029
92	9999
93	799
94	30
102	40
103	219
104	139
105	959
106	99
107	10
115	99
116	30
117	60
118	10
119	20
127	10
128	30
129	20
131	30
133	40
148	2409
149	289
150	10
