Mass Spectrum: Benzoic acid, pentyl ester
Formula: C12 H16 O2
CAS: 2049-96-9
Molecular weight: 192
Origin: Japan AIST/NIMC Database- Spectrum MS-IW-3823
m/z	RELATIVE INTENSITY
26	10
27	229
28	50
29	229
31	10
38	20
39	219
40	30
41	469
42	699
43	299
44	10
45	10
50	239
51	929
52	70
53	40
54	20
55	769
56	40
57	30
62	10
63	10
65	40
66	10
67	20
68	20
69	229
70	1879
71	109
74	60
75	80
76	199
77	3929
78	329
79	549
80	30
87	20
91	30
92	10
93	10
94	20
103	10
104	50
105	9999
106	889
107	80
118	10
120	30
121	30
122	2009
123	8819
124	689
125	60
135	109
136	30
149	20
163	60
164	10
168	10
175	10
192	239
193	30
