Mass Spectrum: 7H-Benzo[c]fluorene
Formula: C17 H12
CAS: 205-12-9
Molecular weight: 216
Origin: P. C. GOODLEY, C. H. MIDGETT, M. GORDON, MURRAY STATE UNIV., MURRAY, KY. USA.
m/z	RELATIVE INTENSITY
82	330
94	950
95	1780
107	1640
108	1990
187	440
188	270
189	640
211	390
213	2140
215	7630
216	9999
217	1700
