Mass Spectrum: Carbonic acid, dipentyl ester
Formula: C11 H22 O3
CAS: 2050-94-4
Molecular weight: 202
m/z	RELATIVE INTENSITY
15	30
18	50
26	30
27	651
28	440
29	1181
30	50
31	200
32	50
36	20
38	20
39	420
40	100
41	1892
42	2182
43	7767
44	370
45	170
50	20
51	20
52	20
53	110
54	80
55	1722
56	220
57	270
58	50
59	80
60	20
63	1722
64	30
65	30
67	140
68	210
69	1421
70	4954
71	9999
72	550
73	40
76	50
77	50
78	30
81	20
83	30
84	20
85	50
86	30
87	290
88	50
89	240
90	90
91	40
97	20
99	20
103	330
104	40
105	20
115	30
117	80
131	20
132	80
133	390
134	30
135	10
202	10
