Mass Spectrum: Benzene, 1,3-diethyl-5-methyl-
Formula: C11 H16
CAS: 2050-24-0
Molecular weight: 148
Origin: NIST Mass Spectrometry Data Center, 1990.
m/z	RELATIVE INTENSITY
14	132
15	348
26	83
27	770
28	1102
29	471
32	314
38	119
39	1180
40	206
41	784
50	373
51	1087
52	337
53	513
55	171
58	114
59	89
62	208
63	863
64	435
65	1193
66	164
67	76
71	80
74	145
75	194
76	219
77	2009
78	741
79	793
87	97
89	369
91	3679
92	342
93	365
101	72
102	340
103	946
104	467
105	2565
106	255
107	81
115	1852
116	686
117	1862
118	72
119	9999
120	1206
121	71
127	147
128	315
129	200
130	67
131	508
132	67
133	9370
134	1038
148	4167
149	507
