Mass Spectrum: Naphthalene, 2,3-dichloro-
Formula: C10 H6 Cl2
CAS: 2050-75-1
Molecular weight: 196
Origin: EP-1351
m/z	RELATIVE INTENSITY
50	200
51	400
52	250
72	250
73	500
74	1700
75	1350
76	500
108	200
109	200
110	150
111	200
124	100
125	1400
126	4100
127	400
160	750
161	2300
162	500
163	650
164	30
196	9999
197	1200
198	6500
199	700
200	1100
201	120
