Mass Spectrum: Oxazolidine, 3-phenyl-
Formula: C9 H11 N O
CAS: 20503-92-8
Molecular weight: 149
m/z	RELATIVE INTENSITY
14	26
15	226
17	37
18	116
26	77
27	382
28	39
29	199
30	90
31	58
36	58
37	100
38	282
39	795
40	147
41	411
42	718
43	95
44	26
45	50
50	541
51	1930
52	541
53	81
54	56
56	84
58	77
59	142
60	56
61	59
62	136
63	501
64	435
65	1006
66	290
67	56
73	34
74	222
75	196
76	222
77	5500
78	680
79	458
80	65
86	186
87	26
88	26
89	130
90	232
91	9240
92	927
93	399
94	103
102	29
103	371
104	1828
105	454
106	2269
107	220
116	31
117	343
118	1417
119	2198
120	2734
121	305
122	24
134	53
147	20
148	24
149	9999
150	999
