Mass Spectrum: Naphthalene, 1,8-dichloro-
Formula: C10 H6 Cl2
CAS: 2050-74-0
Molecular weight: 196
Origin: EP-1348
m/z	RELATIVE INTENSITY
50	70
51	250
52	200
73	100
74	600
75	150
108	100
109	100
110	100
125	650
126	1850
127	200
160	400
161	1300
162	300
163	400
164	45
196	9999
197	1500
198	7900
199	900
200	1000
201	110
