Mass Spectrum: Benzoic acid, 2-hydroxy-, pentyl ester
Formula: C12 H16 O3
CAS: 2050-08-0
Molecular weight: 208
Origin: RADIAN CORP
m/z	RELATIVE INTENSITY
27	800
29	920
31	20
38	210
39	2310
40	150
41	1860
42	390
43	3390
44	120
50	70
51	100
53	650
54	40
55	1410
56	40
57	50
62	100
63	780
64	810
65	2700
66	230
69	130
70	1590
71	780
81	130
92	2280
93	1030
94	50
120	9999
121	3580
122	270
138	3510
139	610
208	1100
209	110
