Mass Spectrum: Naphthalene, 1,2-dichloro-
Formula: C10 H6 Cl2
CAS: 2050-69-3
Molecular weight: 196
Origin: EP-1353
m/z	RELATIVE INTENSITY
50	50
51	200
52	150
73	100
74	380
75	380
76	150
108	250
109	200
110	100
125	550
126	1800
127	200
160	500
161	1100
162	400
163	450
164	55
196	9999
197	1200
198	6400
199	800
200	1100
201	120
