Mass Spectrum: Acetamide, N-(2,4-dimethylphenyl)-
Formula: C10 H13 N O
CAS: 2050-43-3
Molecular weight: 163
Origin: Japan AIST/NIMC Database- Spectrum MS-IW-4348
m/z	RELATIVE INTENSITY
15	99
26	10
27	129
28	129
29	10
30	60
38	30
39	279
40	50
41	149
42	129
43	1289
44	30
50	60
51	229
52	159
53	179
54	60
55	10
58	20
62	30
63	99
64	40
65	299
66	70
67	30
68	10
74	10
75	20
76	30
77	869
78	229
79	209
80	90
81	20
89	60
90	40
91	659
92	149
93	259
94	60
102	40
103	209
104	169
105	119
106	3889
107	359
108	10
116	20
117	80
118	289
119	219
120	4119
121	9999
122	1129
123	50
130	10
132	40
133	10
134	20
142	10
144	10
146	40
147	50
148	60
149	10
161	10
162	30
163	6209
164	729
165	50
