Mass Spectrum: Cyanamide, dibutyl-
Formula: C9 H18 N2
CAS: 2050-54-6
Molecular weight: 154
Origin: ASES Database, Dalian Institute, P.R. China
m/z	RELATIVE INTENSITY
41	3753
42	630
43	950
44	1251
55	6575
56	1251
57	5805
58	440
69	9999
70	1261
83	630
84	1121
86	810
98	1000
99	1251
100	490
111	6255
112	1561
125	1251
139	940
153	430
154	3323
155	630
