Mass Spectrum: Acetamide, N-(2,5-dimethylphenyl)-
Formula: C10 H13 N O
CAS: 2050-44-4
Molecular weight: 163
Origin: NIST Mass Spectrometry Data Center, 2009
m/z	RELATIVE INTENSITY
14	10
15	60
26	10
27	110
28	70
29	20
30	40
37	10
38	50
39	420
40	70
41	200
42	210
43	1531
44	40
49	10
50	160
51	470
52	360
53	340
54	120
55	20
56	10
58	20
61	20
62	80
63	250
64	90
65	520
66	130
67	50
68	20
73	10
74	40
75	60
76	80
77	1371
78	410
79	270
80	170
81	40
86	10
87	20
88	10
89	130
90	70
91	1321
92	270
93	310
94	100
95	10
101	10
102	90
103	300
104	310
105	200
106	5455
107	500
108	20
115	10
116	60
117	180
118	591
119	360
120	5855
121	9999
122	1061
123	60
128	10
130	20
131	10
132	90
133	20
134	50
143	10
144	30
145	20
146	50
147	70
148	80
149	10
160	10
161	10
163	4944
164	571
165	40
