Mass Spectrum: 5-Nonanone, 2,8-dimethyl-
Formula: C11 H22 O
CAS: 2050-99-9
Molecular weight: 170
Origin: NIST Mass Spectrometry Data Center, 1990.
m/z	RELATIVE INTENSITY
27	1362
28	182
29	1343
32	413
39	1518
40	409
41	4001
42	1110
43	9732
44	362
51	114
52	76
53	576
54	76
55	2325
56	1311
57	3841
58	9999
59	3541
60	134
67	258
69	378
71	4235
72	510
73	74
79	145
81	7898
82	552
83	230
84	74
85	784
86	466
97	257
99	4066
100	263
109	324
114	1113
115	388
127	497
155	106
169	76
170	857
171	104
