Mass Spectrum: Octane, 2,6-dimethyl-
Formula: C10 H22
CAS: 2051-30-1
Molecular weight: 142
Origin: Japan AIST/NIMC Database- Spectrum MS-NW-4601
m/z	RELATIVE INTENSITY
15	40
26	30
27	799
28	50
29	1569
30	30
38	20
39	569
40	109
41	2699
42	639
43	5649
44	199
50	10
51	30
52	10
53	139
54	50
55	869
56	2989
57	9999
58	459
59	10
65	20
67	50
68	40
69	409
70	449
71	5539
72	319
77	10
79	10
81	20
83	70
84	229
85	799
86	50
95	10
96	20
97	119
98	70
99	99
100	10
111	10
112	609
113	1349
114	119
126	10
127	80
128	10
142	70
143	10
