Mass Spectrum: o-Toluidine, 5-isopropyl-
Formula: C10 H15 N
CAS: 2051-53-8
Molecular weight: 149
Origin: Japan AIST/NIMC Database- Spectrum MS-NW-6652
m/z	RELATIVE INTENSITY
15	50
26	20
27	219
28	139
29	50
30	10
37	10
38	60
39	379
40	60
41	249
42	199
43	40
44	10
46	20
50	109
51	299
52	189
53	239
54	129
55	30
56	30
57	10
58	119
59	129
60	80
61	20
62	50
63	169
64	99
65	369
66	219
67	319
68	30
70	10
71	40
72	20
73	30
74	50
75	50
76	60
77	599
78	189
79	299
80	109
81	30
82	10
86	10
87	20
88	10
89	99
90	70
91	559
92	99
93	309
94	179
95	20
101	10
102	60
103	139
104	179
105	209
106	739
107	449
108	249
109	20
112	10
113	10
114	10
115	409
116	159
117	459
118	349
119	1889
120	779
121	309
122	30
126	10
127	20
128	40
129	30
130	179
131	99
132	699
133	589
134	9999
135	1079
136	60
143	10
144	20
145	10
146	70
147	60
148	489
149	6109
150	709
151	40
