Mass Spectrum: Butanoic acid, 2-propenyl ester
Formula: C7 H12 O2
CAS: 2051-78-7
Molecular weight: 128
Origin: Japan AIST/NIMC Database- Spectrum MS-NW-3743
m/z	RELATIVE INTENSITY
14	40
15	259
18	10
25	10
26	189
27	1759
28	139
29	359
30	30
31	139
37	60
38	159
39	1669
40	319
41	5729
42	589
43	8539
44	309
45	339
47	20
51	10
53	20
54	90
55	329
56	90
57	759
58	189
59	20
60	119
61	10
67	30
68	109
69	119
70	159
71	9999
72	519
73	90
74	20
78	50
81	10
82	40
83	40
85	70
86	20
87	50
89	269
90	10
99	40
100	209
101	20
113	20
128	60
129	10
