Mass Spectrum: Ethanedioic acid, bis(3-methylbutyl) ester
Formula: C12 H22 O4
CAS: 2051-00-5
Molecular weight: 230
Origin: H. Fales, LC, NHLBI, NIH, Bethesda, MD 20892
m/z	RELATIVE INTENSITY
41	4053
42	807
43	9999
45	833
46	4
47	38
48	5
52	21
53	269
54	130
55	2662
56	362
57	536
59	1350
60	43
61	12
63	4
65	16
67	63
68	89
69	1108
70	3585
71	7179
72	358
73	71
74	24
76	7
81	17
82	19
83	38
84	49
85	53
86	133
87	306
88	43
89	17
91	47
92	5
97	23
99	62
100	16
101	28
103	9
105	8
111	56
112	22
113	20
114	20
115	289
116	11
117	76
118	75
119	4
127	10
129	47
131	47
139	9
140	4
141	14
142	4
143	15
144	13
145	34
147	9
153	5
155	9
157	4
159	33
161	207
162	15
169	40
187	19
188	98
189	17
201	4
215	40
217	4
228	11
229	5
230	81
231	18
