Mass Spectrum: 7-Chloro-p-cymene
Formula: C10 H13 Cl
CAS: 2051-18-5
Molecular weight: 168
Origin: NIST Mass Spectrometry Data Center
m/z	RELATIVE INTENSITY
13	10
14	60
15	601
17	10
18	70
26	110
27	1041
28	180
29	110
31	10
35	50
36	50
37	90
38	330
39	2252
40	230
41	1131
42	70
43	160
45	20
47	10
49	130
50	591
51	1551
52	360
53	310
54	20
55	120
56	40
57	771
59	210
61	100
62	520
63	1501
64	781
65	1641
66	130
67	10
69	20
73	110
74	210
75	360
76	250
77	1031
78	581
79	270
80	10
81	10
85	40
86	120
87	190
88	80
89	1241
90	360
91	4524
92	500
93	160
96	10
97	20
98	30
99	100
100	20
101	110
102	390
103	761
104	480
105	1471
106	130
107	30
112	20
113	50
115	3143
116	771
117	9999
118	2232
119	4274
120	390
121	10
123	10
125	330
126	50
127	210
128	170
129	90
131	350
133	5885
134	741
135	20
138	50
139	220
140	40
141	70
148	10
149	10
150	20
151	70
153	9809
154	961
155	3083
156	280
157	10
168	4184
169	550
170	1521
171	160
