Mass Spectrum: p-Phenylazoresorcinol
Formula: C12 H10 N2 O2
CAS: 2051-85-6
Molecular weight: 214
Origin: Japan AIST/NIMC Database- Spectrum MS-NW-2588
m/z	RELATIVE INTENSITY
13	10
14	30
15	20
16	10
17	10
18	30
25	10
26	109
27	959
28	249
29	179
31	30
32	30
36	60
37	159
38	399
39	1819
40	249
41	189
42	159
43	119
44	20
45	60
49	40
50	479
51	2219
52	899
53	1599
54	149
55	449
56	10
57	40
60	30
61	60
62	159
63	639
64	419
65	1179
66	339
67	139
68	159
69	1939
70	90
71	40
73	10
74	80
75	90
76	129
77	7259
78	639
79	259
80	619
81	4549
82	329
83	30
84	10
85	10
86	10
87	20
88	20
89	50
90	50
91	199
92	819
93	449
94	189
95	309
96	30
97	20
102	40
103	80
104	40
105	589
106	60
107	50
108	229
109	9999
110	1019
111	80
112	10
113	10
114	30
115	269
116	50
117	50
118	20
119	20
120	60
121	10
122	119
123	20
124	20
125	20
126	10
127	109
128	249
129	159
130	50
131	50
132	10
133	10
136	90
137	9209
138	689
139	179
140	40
141	40
142	10
143	40
144	10
145	10
147	10
149	30
155	20
156	10
157	189
158	80
159	10
160	10
167	20
168	30
169	30
170	20
171	40
184	50
185	269
186	249
187	30
213	70
214	7759
215	1089
216	90
217	10
