Mass Spectrum: Decachlorobiphenyl
Formula: C12 Cl10
CAS: 2051-24-3
Molecular weight: 494
Origin: T.L.Hayes, Battelle Columbus Laboratories, Columbus, OH 43221
m/z	RELATIVE INTENSITY
35	2570
37	696
47	1122
49	269
60	263
66	162
72	1245
73	50
84	916
86	197
89	1223
94	323
95	1384
96	1254
97	112
101	399
102	61
106	826
107	5425
108	4781
109	1016
110	44
118	1300
119	1616
120	2184
121	372
124	2169
125	1789
126	482
127	37
130	768
131	1238
132	1816
133	313
134	22
136	51
137	66
141	937
142	5000
143	5352
144	5036
145	1277
146	251
153	170
154	742
155	838
156	408
157	164
158	31
159	2047
160	3584
161	2603
162	765
165	338
166	1698
168	593
169	142
170	112
171	10
172	49
173	13
177	3748
178	7265
179	6202
180	3065
181	987
182	107
188	155
189	120
190	1043
191	182
192	588
194	621
195	1484
196	1494
197	535
198	538
199	15
201	170
202	265
203	164
204	165
205	7
212	2478
213	6257
214	8711
215	4842
216	3268
217	671
218	267
225	70
227	98
229	87
230	207
231	278
232	183
233	95
234	16
236	110
237	78
238	185
239	64
240	107
247	496
248	1783
249	2943
250	2254
251	1728
252	578
253	230
254	29
260	184
262	247
264	109
271	113
273	223
274	11
275	121
277	13
283	78
284	1619
285	365
286	2093
287	389
288	995
289	173
290	205
295	6
297	43
306	77
307	50
308	250
309	171
310	201
311	101
312	28
319	452
320	95
321	740
322	175
323	482
324	84
325	139
330	41
332	139
334	114
354	2299
355	177
356	4526
357	579
358	3663
359	434
360	1534
361	192
362	362
379	32
381	12
389	393
390	50
391	895
392	202
393	888
394	164
395	461
396	84
397	105
424	2117
425	129
426	5370
427	707
428	6293
429	688
430	3906
431	475
432	1549
433	140
434	378
461	72
462	112
463	124
464	156
465	75
466	110
467	5
494	2163
495	53
496	7168
497	573
498	9999
499	1127
500	8249
501	945
502	4514
503	522
504	1716
505	146
506	465
508	6
