Mass Spectrum: 1,1'-Biphenyl, 2-bromo-
Formula: C12 H9 Br
CAS: 2052-07-5
Molecular weight: 232
Origin: NIST Mass Spectrometry Data Center, 1998.
m/z	RELATIVE INTENSITY
26	30
27	80
37	40
38	110
39	300
40	10
49	50
50	630
51	750
52	140
53	20
55	10
61	140
62	400
63	1190
65	40
69	10
73	80
74	760
75	1030
76	2730
78	80
79	10
81	10
84	10
85	100
86	300
87	380
88	140
89	100
90	20
91	10
97	40
98	350
99	270
100	140
101	330
102	320
103	80
104	40
109	30
110	90
111	90
112	20
113	200
114	120
115	80
116	290
117	280
119	10
120	10
121	20
122	80
123	40
124	30
125	210
126	1090
127	720
128	100
129	10
130	10
137	20
138	20
139	20
146	10
149	70
150	1030
151	2950
152	9999
153	3340
154	380
155	30
180	10
182	10
193	10
195	10
206	10
208	10
230	10
232	6439
233	890
234	6209
235	810
236	50
