Mass Spectrum: 2-Butenal, 2-ethenyl-
Formula: C6 H8 O
CAS: 20521-42-0
Molecular weight: 96
Origin: James Little,Eastman Chem.Corp.,Kingsport,TN
m/z	RELATIVE INTENSITY
26	300
27	2682
29	880
38	870
39	8657
40	2342
41	9999
42	1161
51	1070
52	510
53	3202
55	290
63	620
65	3403
66	2091
67	9958
68	900
77	210
78	330
79	200
81	1321
82	60
95	3583
96	4323
97	280
