Mass Spectrum: Bicyclo[2.2.1]heptane, 2,2,3-trimethyl-, exo-
Formula: C10 H18
CAS: 20536-41-8
Molecular weight: 138
m/z	RELATIVE INTENSITY
41	5305
43	1702
53	1201
55	6506
67	4704
68	2002
69	4304
70	4404
77	500
79	601
80	200
81	2402
82	3003
83	1401
91	350
93	250
94	901
95	9999
96	1902
109	6706
110	651
123	1501
138	1802
