Mass Spectrum: Bicyclo[2.2.1]heptane, 2,2,3-trimethyl-, endo-
Formula: C10 H18
CAS: 20536-40-7
Molecular weight: 138
m/z	RELATIVE INTENSITY
41	6005
43	1802
53	1301
55	7106
67	5005
68	2002
69	4704
70	4204
77	601
79	751
80	150
81	2702
82	3103
83	1501
91	350
93	250
94	901
95	9999
96	1802
109	6706
110	651
123	1401
138	1601
