Mass Spectrum: 2(1H)-Pyrimidinethione, tetrahydro-
Formula: C4 H8 N2 S
CAS: 2055-46-1
Molecular weight: 116
Origin: MASS SPECTROMETRY CENTER, UNIV. OF UTAH ALDRICH T01515-6
m/z	RELATIVE INTENSITY
12	76
13	20
15	436
16	101
17	252
18	100
25	27
26	644
27	2205
28	1547
29	2118
30	7471
31	287
32	70
33	230
34	165
36	87
37	46
38	279
39	571
40	327
41	1348
42	1024
43	1311
44	4754
45	867
46	277
47	195
48	20
50	171
51	163
52	216
53	149
54	549
55	1584
56	2606
57	974
58	838
59	3172
60	4143
61	544
62	250
64	46
65	45
70	213
71	149
72	2666
73	456
74	388
75	84
76	981
77	233
78	175
79	52
83	392
84	146
86	697
87	694
88	1305
89	179
90	53
98	75
99	177
101	56
104	23
105	31
109	74
110	20
111	28
113	40
115	1030
116	9999
117	1310
118	774
119	67
