Mass Spectrum: Pentanoic acid, 2,4-dioxo-, methyl ester
Formula: C6 H8 O4
CAS: 20577-61-1
Molecular weight: 144
Origin: NIST Mass Spectrometry Data Center, 1994
m/z	RELATIVE INTENSITY
4	13
12	52
13	126
14	635
15	3379
16	60
17	11
18	35
24	10
25	99
26	361
27	1003
28	427
29	1837
30	222
31	808
32	38
33	78
36	21
37	143
38	264
39	768
40	151
41	1170
42	1673
43	9999
44	256
45	170
46	5
48	5
49	14
50	26
51	10
52	25
53	210
54	37
55	277
56	42
57	55
58	5
59	450
60	16
61	8
66	22
67	63
69	1546
70	92
71	68
72	95
73	3
75	6
77	6
85	8046
86	359
87	40
101	73
102	29
116	297
117	17
129	13
144	342
145	32
146	5
