Mass Spectrum: 2,10-Dodecadien-1-ol, 3,7,11-trimethyl-, (E)-(.+/-.)-
Formula: C15 H28 O
CAS: 20576-59-4
Molecular weight: 224
m/z	RELATIVE INTENSITY
17	40
19	20
27	840
28	60
29	1840
31	420
39	1220
40	220
41	9399
42	640
43	2340
44	200
45	100
51	200
52	80
53	1300
54	260
55	5199
56	1240
57	1280
58	40
59	180
65	220
66	200
67	2660
68	2460
69	9999
70	1560
71	4220
72	220
77	240
78	60
79	680
80	640
81	4560
82	3700
83	2440
84	2240
85	440
86	40
91	180
92	240
93	1160
94	1000
95	4160
96	1560
97	1440
98	460
99	220
100	40
107	1000
108	480
109	5399
110	880
111	840
112	280
113	100
121	1560
122	640
123	1600
124	460
125	160
126	40
129	20
135	880
136	420
137	500
138	420
139	500
140	200
149	600
150	480
151	320
153	60
163	580
164	140
177	240
178	20
179	20
180	60
181	60
191	340
192	40
193	80
206	840
207	200
209	60
224	1580
225	320
