Mass Spectrum: Pentanal, (2,4-dinitrophenyl)hydrazone
Formula: C11 H14 N4 O4
CAS: 2057-84-3
Molecular weight: 266
m/z	RELATIVE INTENSITY
26	100
27	5705
28	4904
29	6206
30	4804
37	100
38	601
39	1802
40	500
41	9999
42	1501
43	2702
44	2002
45	500
46	100
49	100
50	701
51	1802
52	1501
53	801
54	601
55	3703
56	801
57	1301
58	701
59	100
60	200
61	200
62	801
63	2803
64	1802
65	1501
66	500
67	1001
68	601
69	4204
70	300
71	200
72	100
73	100
74	500
75	1802
76	1501
77	3703
78	2502
79	3003
80	701
81	300
82	400
83	200
84	300
85	100
86	100
87	300
88	300
89	500
90	1001
91	1601
92	1802
93	701
94	200
95	200
96	100
97	100
98	100
101	100
102	601
103	3703
104	2502
105	801
106	500
107	400
108	300
109	100
110	100
111	100
114	100
115	400
116	400
117	801
118	500
119	801
120	400
121	200
122	2803
123	300
124	100
125	100
127	100
128	200
129	400
130	601
131	701
132	400
133	200
134	200
135	300
136	200
137	300
138	300
139	100
140	100
141	100
142	100
143	300
144	300
145	300
146	200
147	400
148	200
149	3503
150	500
151	300
152	1702
153	300
154	100
155	100
156	200
157	300
158	200
159	200
160	200
161	100
162	300
163	200
164	601
165	300
166	200
167	300
168	100
169	200
170	100
171	100
172	100
173	100
174	100
175	300
176	300
177	801
178	300
179	200
180	701
181	400
182	100
183	500
184	200
185	400
186	100
187	100
188	100
189	100
190	300
191	200
192	100
193	500
194	100
195	100
196	601
197	100
198	100
199	100
201	100
202	200
203	500
204	200
205	100
206	5505
207	701
208	100
209	100
210	100
211	100
216	100
217	100
218	100
219	100
220	200
221	100
222	100
223	200
224	1301
225	100
229	100
231	300
232	100
233	100
235	100
236	100
237	100
250	200
251	100
252	100
265	100
266	3503
267	601
268	100
