Mass Spectrum: 3-Ethoxy-4-hydroxyphenylacetonitrile
Formula: C10 H11 N O2
CAS: 205748-01-2
Molecular weight: 177
Origin: NIST Mass Spectrometry Data Center, 1994
m/z	RELATIVE INTENSITY
14	84
15	185
26	567
27	2304
28	684
29	2639
30	67
31	88
32	39
37	231
38	614
39	1767
40	349
41	302
42	130
43	406
45	177
50	938
51	1834
52	729
53	860
54	190
55	647
56	93
57	99
61	125
62	408
63	1005
64	1009
65	3110
66	1303
67	226
68	122
69	60
74	137
75	501
76	1221
77	1332
78	315
79	352
80	148
81	231
82	132
87	52
88	62
89	59
90	117
91	482
92	1226
93	1166
94	1772
95	169
103	6417
104	723
105	390
106	113
107	169
108	142
109	134
110	48
119	252
120	778
121	607
122	3848
123	689
124	69
131	3234
132	839
133	83
134	37
136	84
148	2342
149	9999
150	888
151	119
160	67
177	6114
178	719
179	73
