Mass Spectrum: 2,10-Dodecadien-1-ol, 3,7,11-trimethyl-, (Z)-
Formula: C15 H28 O
CAS: 20576-57-2
Molecular weight: 224
m/z	RELATIVE INTENSITY
17	40
27	840
29	1960
31	400
39	1120
40	240
41	8519
42	760
43	2220
44	100
45	160
51	100
52	140
53	1400
54	360
55	4979
56	1200
57	1340
58	40
65	320
66	220
67	2320
68	2800
69	9999
70	1300
71	4000
72	240
77	340
78	40
79	820
80	800
81	4740
82	3780
83	2560
84	2240
85	460
91	200
92	400
93	1740
94	1400
95	4040
96	1580
97	1440
98	400
99	180
101	40
103	40
107	1260
108	620
109	5699
110	920
111	640
112	260
113	40
121	2060
122	880
123	1620
124	560
125	180
129	40
135	880
136	660
137	600
138	400
139	360
140	160
149	700
150	480
151	360
153	60
163	800
164	160
177	320
178	40
191	460
192	140
193	100
206	1380
207	200
209	40
224	720
225	100
