Mass Spectrum: 2H-1-Benzopyran-2-one, 7-(diethylamino)-
Formula: C13 H15 N O2
CAS: 20571-42-0
Molecular weight: 217
Origin: A.A.Kutin, Moscow, Russia
m/z	RELATIVE INTENSITY
33	22
34	21
35	4
36	11
37	24
38	98
39	399
40	385
41	152
42	156
43	96
44	389
45	23
46	4
47	24
48	6
49	16
50	140
51	350
52	131
53	103
54	71
55	87
56	100
57	49
58	144
60	10
61	54
62	225
63	690
64	157
65	198
66	70
67	60
68	115
69	50
70	52
71	33
72	78
73	86
74	65
75	98
76	170
77	435
78	164
79	183
80	60
81	23
82	23
83	86
84	15
85	65
86	52
87	127
88	125
89	1234
90	321
91	324
92	52
93	35
94	149
95	115
96	12
97	13
98	14
99	12
100	16
101	99
102	111
103	206
104	143
105	113
106	37
107	135
109	240
110	9
111	7
112	12
113	9
114	25
115	88
116	167
117	588
118	529
119	79
120	27
121	25
122	17
123	3
125	9
126	3
127	23
128	58
129	40
130	214
131	155
132	165
133	52
134	18
135	18
141	14
142	27
144	638
145	760
146	728
147	121
148	22
149	28
155	6
156	10
157	25
158	77
159	154
160	190
161	39
162	4
163	3
167	9
170	15
171	34
172	237
173	320
174	3501
175	374
176	38
184	3
185	12
186	87
187	143
188	262
189	49
190	5
198	6
200	92
202	9999
203	1389
204	128
205	10
207	3
212	3
213	11
214	46
215	68
216	378
217	4582
218	632
219	58
