Mass Spectrum: 1,1,1,5,5,6,6,7,7,7-Decafluoro-2,4-heptanedione
Formula: C7 H2 F10 O2
CAS: 20583-66-8
Molecular weight: 308
Origin: NIST Mass Spectrometry Data Center, 1994
m/z	RELATIVE INTENSITY
13	40
14	169
15	13
16	13
17	11
18	45
19	14
20	46
25	20
28	47
29	161
31	546
33	73
37	21
38	14
39	62
40	24
41	516
42	609
43	27
44	78
45	80
47	81
50	215
51	113
53	135
54	11
55	36
56	81
57	26
60	21
61	38
62	24
63	145
64	128
67	54
69	9999
70	318
71	176
72	16
73	59
74	52
75	368
76	30
77	14
78	46
81	57
82	15
83	91
87	25
89	175
91	1151
92	82
93	68
94	43
95	55
97	193
100	349
101	13
102	24
103	26
105	15
106	30
109	83
110	29
111	45
113	64
119	1100
120	459
121	33
122	80
123	78
125	59
131	36
139	4239
140	188
141	178
143	19
145	13
147	47
150	17
151	96
153	27
161	18
163	131
167	16
169	344
170	14
173	22
175	37
191	942
192	44
197	18
213	17
219	843
220	56
239	1259
240	69
241	68
269	121
289	32
308	36
