Mass Spectrum: 1-Propene, 1,2,3,3-tetrachloro-
Formula: C3 H2 Cl4
CAS: 20589-85-9
Molecular weight: 178
m/z	RELATIVE INTENSITY
12	20
13	10
14	10
15	20
17	10
18	20
24	20
25	60
26	40
27	10
28	10
29	20
31	10
32	10
35	230
36	280
37	861
38	581
39	20
41	10
42	10
43	110
44	10
45	10
47	480
48	190
49	310
50	60
51	50
53	230
54	220
55	70
56	10
57	10
58	40
59	40
60	210
61	70
62	70
63	20
65	10
70	10
71	300
72	621
73	1251
74	210
75	380
76	20
77	10
78	10
79	10
80	10
81	10
82	80
83	4214
84	100
85	2742
86	40
87	450
88	10
89	10
90	10
91	10
92	10
94	30
95	120
96	40
97	120
98	20
99	40
100	10
101	10
106	40
107	721
108	80
109	480
110	40
111	80
112	10
113	10
117	50
119	50
121	20
123	10
124	10
125	10
126	10
127	10
129	10
130	20
131	10
132	20
133	10
134	10
141	10
142	60
143	9999
144	380
145	9759
146	340
147	3093
148	110
149	340
150	10
177	20
178	1601
179	70
180	2022
181	80
182	981
183	40
184	210
185	10
186	20
