Mass Spectrum: Clothiapine
Formula: C18 H18 Cl N3 S
CAS: 2058-52-8
Molecular weight: 343
Origin: Tox21 Consortium/NIST Mass Spectrometry Data Center, 2012
m/z	RELATIVE INTENSITY
15	50
26	10
27	110
28	320
29	160
30	130
36	10
37	10
38	30
39	110
40	20
41	180
42	2452
43	1581
44	520
45	140
46	10
49	10
50	130
51	130
52	50
53	30
54	210
55	250
56	1912
57	370
58	470
59	20
60	10
61	20
62	50
63	220
64	60
65	100
66	20
67	20
68	60
69	460
70	8978
71	1661
72	150
73	50
74	110
75	200
76	90
77	110
78	40
79	20
80	30
81	70
82	1101
83	9999
84	661
85	60
86	20
87	50
88	60
89	70
90	60
91	100
92	10
93	70
94	30
95	70
96	50
97	340
98	460
99	540
100	90
101	40
102	60
103	40
104	70
106	50
107	90
108	480
109	160
110	60
111	40
112	30
113	50
114	60
115	50
116	70
117	40
118	30
119	40
120	30
121	30
122	100
123	60
124	70
125	80
126	60
127	40
128	20
129	20
130	30
131	30
133	230
134	80
135	40
136	60
137	130
138	200
139	280
140	100
141	20
142	80
143	20
144	40
145	30
146	40
147	20
148	20
149	60
150	120
151	120
152	80
153	40
154	60
155	20
156	30
157	30
158	40
159	30
160	20
161	20
162	30
163	70
164	1011
165	250
166	80
167	30
168	20
169	40
170	40
171	30
172	20
173	100
174	70
175	60
176	80
177	530
178	130
179	50
180	30
181	50
182	330
183	200
184	80
185	30
186	30
187	10
188	20
189	10
190	50
191	50
192	60
193	40
194	10
195	30
196	50
197	40
198	50
199	20
200	40
201	60
202	20
203	40
204	40
205	90
206	60
207	110
208	641
209	3213
210	651
211	270
212	120
213	120
214	60
215	40
216	30
217	50
218	210
219	80
220	70
221	30
222	60
223	90
224	70
225	30
226	30
227	40
228	50
229	30
230	30
231	40
232	50
233	30
234	20
235	30
236	40
237	110
238	120
239	70
240	50
241	110
242	50
243	220
244	3623
245	811
246	1411
247	290
248	100
249	30
250	40
251	80
252	50
253	100
254	30
255	50
256	20
257	50
258	50
259	80
260	781
261	861
262	400
263	330
264	70
265	70
266	20
267	60
268	10
269	20
270	30
271	140
272	90
273	3143
274	550
275	1151
276	200
277	60
278	10
279	10
281	10
282	10
283	10
284	30
285	1021
286	601
287	691
288	260
289	120
290	30
291	10
296	10
297	10
298	10
299	230
300	70
301	100
302	30
303	10
310	10
311	20
312	10
313	30
314	20
315	20
316	10
326	10
328	20
329	10
330	10
340	10
341	30
342	50
343	821
344	200
345	330
346	60
347	10
