Mass Spectrum: 4-Iodophenyl isothiocyanate
Formula: C7 H4 I N S
CAS: 2059-76-9
Molecular weight: 261
Origin: NIST Mass Spectrometry Data Center, 1994
m/z	RELATIVE INTENSITY
4	14
14	21
25	22
26	65
27	86
28	67
32	145
36	56
37	380
38	404
39	392
44	157
45	109
48	31
49	254
50	2078
51	445
52	109
56	34
57	72
58	80
59	29
60	58
61	251
62	306
63	836
64	482
65	31
67	179
68	27
69	126
70	153
72	32
73	236
74	970
75	1087
76	1055
77	74
81	57
82	81
83	211
84	110
86	29
87	63
88	74
89	29
90	2086
91	167
93	62
94	45
95	22
99	65
100	26
102	361
103	31
107	800
108	180
109	47
127	503
128	61
130	525
134	4099
135	384
136	219
152	35
176	21
203	91
229	88
245	28
261	9999
262	905
263	485
264	44
