Mass Spectrum: 1,2-Propanediol, 3,3'-oxydi-, tetranitrate
Formula: C6 H10 N4 O13
CAS: 20600-96-8
Molecular weight: 346
Origin: MINISTRY OF TECH. E.R.D.E., WALTHAM ABBEY, UK
m/z	RELATIVE INTENSITY
12	40
13	10
14	320
15	210
26	30
27	80
28	770
29	820
30	7830
31	270
41	70
42	100
43	290
44	620
45	280
46	9999
47	50
55	20
57	20
60	70
73	20
76	100
77	10
105	10
123	10
