Mass Spectrum: 2-(Hexamethyleneimino)ethanol
Formula: C8 H17 N O
CAS: 20603-00-3
Molecular weight: 143
Origin: NIST Mass Spectrometry Data Center
m/z	RELATIVE INTENSITY
10	10
11	30
12	40
13	50
14	190
15	611
16	80
18	160
19	190
26	270
27	1441
28	1972
29	1471
30	1121
31	460
32	40
38	80
39	1541
40	310
41	3523
42	4334
43	1441
44	2783
45	681
51	50
52	20
53	380
54	591
55	2232
56	1271
57	811
58	5565
59	350
67	270
68	360
69	490
70	851
71	260
72	190
74	140
79	40
80	40
81	70
82	440
83	290
84	1171
85	460
88	270
94	10
96	180
98	721
99	60
100	190
103	260
110	260
112	9999
113	881
114	30
126	20
140	90
141	120
142	70
143	430
