Mass Spectrum: Methyl 2,3,3-trichloropropanoate
Formula: C4 H5 Cl3 O2
CAS: 20618-07-9
Molecular weight: 190
Origin: ASES Database, Dalian Institute, P.R. China
m/z	RELATIVE INTENSITY
59	9999
60	1301
61	3082
62	400
63	1301
79	300
83	1090
85	890
89	1591
91	500
95	1911
96	8717
97	1191
98	5414
100	900
111	200
119	500
121	290
123	700
125	390
131	1101
133	1000
135	290
154	100
155	500
157	300
159	200
161	90
