Mass Spectrum: Methyl-2,3,3,3-tetrachloropropanoate
Formula: C4 H4 Cl4 O2
CAS: 20618-10-4
Molecular weight: 224
Origin: ORMSBG, 17(10) 461(1982);I.O.O.KORHONEN
m/z	RELATIVE INTENSITY
59	9999
63	1400
95	900
113	100
117	1800
119	100
123	1200
129	300
130	4200
145	300
153	200
154	100
157	300
161	100
165	500
189	100
193	100
224	30
