Mass Spectrum: Benperidol
Formula: C22 H24 F N3 O2
CAS: 2062-84-2
Molecular weight: 381
Origin: HOME OFFICE, CENTRAL RES. EST., ALDERMASTON, BERKS., U.K.
m/z	RELATIVE INTENSITY
36	100
38	100
39	500
40	300
41	1600
42	3200
43	1000
44	1400
45	300
50	300
51	400
52	300
53	300
54	400
55	1600
56	1000
57	1100
58	600
59	200
60	200
62	100
63	200
64	100
65	600
66	100
67	800
68	500
69	800
70	500
71	500
72	500
73	200
74	100
75	300
76	500
77	400
78	300
79	400
80	300
81	500
82	4300
83	700
84	400
85	300
86	100
87	100
89	300
90	400
91	1100
92	300
93	200
94	500
95	1900
96	3000
97	500
98	200
99	100
101	100
102	100
103	200
104	200
105	200
106	400
107	200
108	500
109	5000
110	1900
111	300
112	100
113	100
115	300
116	200
117	200
118	200
119	300
120	200
121	200
122	200
123	3600
124	400
125	200
126	100
129	100
130	200
131	300
132	400
133	300
134	900
135	300
142	600
143	300
144	200
145	300
146	100
147	400
148	100
149	1000
150	100
151	100
152	200
153	100
159	100
160	100
161	100
163	200
164	200
165	1500
166	200
167	100
171	100
172	200
173	400
174	100
175	100
179	100
180	100
185	100
187	3300
188	500
189	100
193	100
200	100
201	500
202	100
205	100
206	200
207	100
208	100
215	100
216	100
217	100
218	100
219	100
220	100
221	100
223	100
228	100
229	700
230	9999
231	2700
232	500
243	3300
244	700
245	100
246	400
362	200
363	3000
