Mass Spectrum: Benz(a)anthracene, 6,7-dimethyl-
Formula: C20 H16
CAS: 20627-28-5
Molecular weight: 256
Origin: Organic Synthesis Lab, MSU, Moscow.TRC 424
m/z	RELATIVE INTENSITY
27	30
39	40
50	20
51	40
52	10
62	10
63	50
65	10
74	20
75	40
76	20
77	20
83	10
84	20
85	10
86	10
87	50
88	70
89	20
94	20
95	10
98	10
99	30
100	120
101	220
102	10
105	10
106	40
107	60
108	80
111	20
112	180
113	571
114	520
115	40
118	50
119	230
120	631
121	110
123	10
124	80
125	380
126	781
127	420
128	851
129	20
137	10
139	20
150	30
151	20
152	30
162	10
163	40
164	10
165	20
174	20
175	10
176	40
177	10
178	20
179	10
186	10
187	60
188	20
189	60
190	10
198	20
199	20
200	80
201	40
202	110
203	20
211	50
212	30
213	140
214	40
215	300
216	60
222	10
223	20
224	110
225	80
226	400
227	140
228	270
229	170
230	20
235	20
236	30
237	240
238	150
239	1902
240	911
241	2662
242	581
243	60
248	50
249	40
250	300
251	120
252	801
253	721
254	270
255	1231
256	9999
257	2162
258	230
