Mass Spectrum: Benz(a)anthracene, 8,12-dimethyl-
Formula: C20 H16
CAS: 20627-31-0
Molecular weight: 256
Origin: Organic Synthesis Lab, MSU, Moscow.TRC 429
m/z	RELATIVE INTENSITY
27	40
28	260
32	60
39	40
50	20
51	30
62	10
63	50
65	10
74	20
75	40
76	20
77	20
84	20
85	10
86	10
87	50
88	70
89	20
94	20
95	20
98	10
99	30
100	130
101	240
102	10
105	10
106	40
107	60
108	50
111	20
112	180
113	751
114	290
115	30
118	60
119	280
120	991
121	80
123	10
124	60
125	290
126	530
127	440
128	681
129	10
139	20
150	30
151	20
152	20
162	10
163	40
164	10
165	30
174	20
175	10
176	30
177	10
178	10
186	10
187	60
188	20
189	80
190	20
198	20
199	20
200	70
201	30
202	100
203	20
211	50
212	30
213	140
214	30
215	140
216	30
222	10
223	20
224	110
225	80
226	410
227	170
228	140
229	210
230	40
235	20
236	20
237	220
238	150
239	2252
240	1651
241	1722
242	340
243	40
248	40
249	40
250	310
251	160
252	561
253	480
254	320
255	1722
256	9999
257	2112
258	220
