Mass Spectrum: Benzenebutanoic acid, 4-amino-, methyl ester
Formula: C11 H15 N O2
CAS: 20637-09-6
Molecular weight: 193
m/z	RELATIVE INTENSITY
74	40
85	10
86	100
87	20
93	60
100	20
101	20
105	10
106	9999
107	1001
108	30
118	70
119	3213
120	540
121	30
131	20
132	180
133	180
134	160
135	10
144	20
162	1001
163	120
192	10
193	5795
194	841
195	50
