Mass Spectrum: Butyric acid, 4-(p-fluorophenyl)-, methyl ester
Formula: C11 H13 F O2
CAS: 20637-05-2
Molecular weight: 196
m/z	RELATIVE INTENSITY
55	20
56	20
59	30
74	9999
75	360
76	20
85	40
87	50
96	60
103	20
109	2252
110	200
115	20
117	20
118	30
122	7086
123	1972
124	160
125	20
131	30
133	20
134	20
135	921
136	230
137	40
164	2642
165	2742
166	280
194	621
195	60
196	4234
197	520
198	20
