Mass Spectrum: Ethanol, 2-(2-hydroxyethoxy)-, 1-nitrate
Formula: C4 H9 N O5
CAS: 20633-16-3
Molecular weight: 151
Origin: MINISTRY OF TECH. E.R.D.E., WALTHAM ABBEY, UK
m/z	RELATIVE INTENSITY
12	30
13	20
14	110
15	930
26	40
27	60
28	620
29	1690
30	1020
31	1530
32	100
41	30
42	70
43	1030
44	920
45	9999
46	3430
47	10
55	30
56	10
57	100
58	130
60	60
73	1320
74	90
75	1880
76	230
77	10
90	50
