Mass Spectrum: Benzenebutanoic acid, 4-methoxy-, methyl ester
Formula: C12 H16 O3
CAS: 20637-08-5
Molecular weight: 208
m/z	RELATIVE INTENSITY
74	80
108	60
119	90
120	70
121	6736
122	671
123	30
131	20
133	20
134	9999
135	1061
136	70
146	10
147	30
148	80
149	10
176	10
177	1271
178	200
208	6116
209	851
210	50
