Mass Spectrum: Benzenebutanoic acid, 4-nitro-, methyl ester
Formula: C11 H13 N O4
CAS: 20637-02-9
Molecular weight: 223
m/z	RELATIVE INTENSITY
55	40
59	40
74	9999
75	220
76	20
77	10
78	80
85	40
86	20
87	40
90	20
91	100
92	40
103	20
104	20
105	10
106	510
107	40
108	10
116	140
117	140
118	90
119	330
120	220
121	10
133	631
134	120
135	30
136	430
137	20
146	170
147	30
149	1071
150	5325
151	510
152	20
162	100
163	791
164	200
165	10
191	370
192	1902
193	581
195	90
205	2022
206	1611
207	290
208	60
223	1051
224	80
225	10
