Mass Spectrum: Di-N-propylethylamine
Formula: C8 H19 N
CAS: 20634-92-8
Molecular weight: 129
Origin: AIR PRODUCTS & CHEMICALS, INC BOX 538, ALLENTOWN, PA 18105, D M PAREES
m/z	RELATIVE INTENSITY
27	480
29	320
30	780
39	190
40	30
41	710
42	600
43	760
44	770
54	70
55	50
56	320
57	110
58	2280
59	100
68	40
70	140
71	80
72	930
73	60
82	20
84	220
85	40
86	300
87	30
98	170
99	30
100	9999
101	770
102	30
112	20
114	520
115	50
127	30
128	180
129	1240
130	130
