Mass Spectrum: 1,2-Cyclopentanedione, 3,3,5,5-tetramethyl-
Formula: C9 H14 O2
CAS: 20633-06-1
Molecular weight: 154
m/z	RELATIVE INTENSITY
26	304
27	1916
28	164
29	701
38	280
39	2103
40	467
41	3224
42	4579
43	280
53	397
54	140
55	1729
56	374
68	93
69	304
70	9999
71	654
72	187
82	164
83	1402
84	234
98	164
126	561
127	164
154	1448
155	187
