Mass Spectrum: Benzoic acid, 4-butyl-, methyl ester
Formula: C12 H16 O2
CAS: 20651-69-8
Molecular weight: 192
Origin: Zaikin V.G., TIPS RAS, Moscow, Russia
m/z	RELATIVE INTENSITY
26	40
27	200
28	10
29	130
36	60
38	30
39	240
40	40
41	270
42	30
43	160
44	40
50	120
51	260
52	60
53	60
55	90
57	30
58	50
59	320
62	50
63	240
64	110
65	310
71	30
74	50
75	80
76	120
77	651
78	290
79	100
89	641
90	1141
91	4924
92	410
93	50
101	30
102	120
103	480
104	330
105	581
106	140
107	70
115	280
116	100
117	160
118	781
119	611
120	60
121	1571
122	150
127	30
128	70
129	50
131	440
132	110
133	801
134	100
135	681
136	120
137	60
145	30
149	9999
150	7937
151	671
152	50
159	40
160	30
161	8648
162	911
163	370
164	70
177	50
191	200
192	6696
193	781
194	70
