Mass Spectrum: 2,3-Octanediol
Formula: C8 H18 O2
CAS: 20653-90-1
Molecular weight: 146
m/z	RELATIVE INTENSITY
14	10
15	120
16	10
17	40
18	170
19	240
26	40
27	2732
28	320
29	1682
30	70
31	540
32	20
33	10
38	20
39	440
40	80
41	2442
42	390
43	2512
44	571
45	2803
46	100
47	120
50	10
51	30
52	10
53	130
54	70
55	9999
56	931
57	2292
58	370
59	380
60	70
61	270
62	10
63	20
65	20
66	10
67	190
68	100
69	901
70	130
71	420
72	150
73	110
74	60
75	1041
76	40
77	20
79	20
81	130
82	611
83	8277
84	661
85	160
86	50
87	70
88	20
89	30
90	10
91	10
93	10
95	170
96	50
97	1331
98	110
99	90
100	1491
101	2682
102	200
103	30
105	10
109	40
110	20
111	90
112	30
113	20
114	40
115	520
116	50
117	30
123	10
125	20
127	10
128	10
129	80
130	10
131	100
132	10
139	10
143	10
144	10
145	20
