Mass Spectrum: Oxazole, 4,5-dimethyl-
Formula: C5 H7 N O
CAS: 20662-83-3
Molecular weight: 97
m/z	RELATIVE INTENSITY
15	1071
26	1181
27	2462
28	2522
29	601
37	240
38	240
39	861
40	581
41	2142
42	2612
43	8297
44	1371
45	320
46	180
50	180
51	320
52	651
53	500
54	3984
55	6886
56	430
68	861
69	1011
70	1071
82	1031
95	110
96	1201
97	9999
98	651
