Mass Spectrum: Stannane, dimethyl-
Formula: C2 H8 Sn
CAS: 2067-76-7
Molecular weight: 152
Origin: S.Vainiotalo ET.AL.J.Chrom.,523,273(1990)
m/z	RELATIVE INTENSITY
59	240
74	190
112	230
114	220
116	2492
117	1952
118	4884
119	2943
120	5605
121	1862
122	951
123	360
124	971
125	450
126	150
127	250
128	280
129	540
130	881
131	2943
132	3553
133	6876
134	5845
135	9999
136	5315
137	5255
138	791
139	1832
140	801
141	951
142	150
143	190
145	180
146	400
147	1021
148	971
149	1692
150	1301
151	1942
152	240
153	360
154	250
155	410
