Mass Spectrum: Pentanoic acid, 5-bromo-
Formula: C5 H9 Br O2
CAS: 2067-33-6
Molecular weight: 180
Origin: Japan AIST/NIMC Database- Spectrum MS-NW-6230
m/z	RELATIVE INTENSITY
12	10
13	20
14	139
15	309
16	20
18	10
24	10
25	60
26	869
27	4819
28	2289
29	3379
30	189
31	729
32	80
34	20
35	10
36	40
37	149
38	259
39	2389
40	479
41	5939
42	3599
43	2649
44	309
45	1509
46	80
47	70
48	10
49	60
50	219
51	239
52	90
53	609
54	629
55	9999
56	3169
57	649
58	359
59	3059
60	589
61	30
62	10
63	10
65	10
66	10
67	20
68	50
69	70
70	519
71	179
72	60
73	8629
74	829
75	80
76	10
77	20
78	10
79	339
80	909
81	369
82	919
83	3979
84	249
85	60
86	10
87	319
88	20
89	10
90	10
91	10
92	10
93	169
94	20
95	149
96	20
97	10
98	10
99	80
100	979
101	7699
102	469
103	60
105	30
106	80
107	459
108	90
109	409
110	10
119	40
121	50
122	10
123	10
128	10
133	20
134	40
135	90
136	40
137	80
139	10
140	10
151	50
152	129
153	60
154	129
155	10
162	90
163	80
164	90
165	70
180	169
181	10
182	149
183	20
