Mass Spectrum: Propane, 1-(1-ethoxyethoxy)-
Formula: C7 H16 O2
CAS: 20680-10-8
Molecular weight: 132
Origin: J.Little, Eastman Chem. Comp.,Kingsport
m/z	RELATIVE INTENSITY
15	190
27	1141
28	981
29	1141
31	460
39	260
41	801
43	3103
44	340
45	9999
47	1141
58	140
59	50
61	260
72	30
73	6085
74	230
75	1121
87	1792
88	70
89	70
103	70
117	1521
118	70
