Mass Spectrum: Dinaphtho[1,2-b:1',2'-d]thiophene
Formula: C20 H12 S
CAS: 207-94-3
Molecular weight: 284
m/z	RELATIVE INTENSITY
37	10
38	30
39	90
40	200
41	50
42	10
43	40
44	100
45	70
46	10
47	10
50	60
51	70
52	10
53	10
55	30
56	20
57	30
58	10
59	10
60	10
61	10
62	50
63	90
64	10
65	10
69	70
70	10
71	20
72	10
73	10
74	60
75	60
76	20
77	20
78	10
79	10
80	10
81	20
82	20
83	10
84	10
85	20
86	60
87	60
88	20
89	20
90	10
91	20
92	10
93	60
94	70
95	30
96	10
97	10
98	40
99	40
100	40
101	20
102	10
103	40
104	30
105	30
106	60
107	30
108	10
109	10
110	30
111	40
112	60
113	60
114	20
115	60
116	130
117	40
118	60
119	90
120	90
121	10
122	30
123	20
124	50
125	120
126	150
127	60
128	250
129	270
130	20
131	10
132	10
133	10
134	20
135	20
136	10
137	20
138	20
139	40
140	280
141	1051
142	1561
143	110
144	10
145	10
150	30
151	20
152	10
153	10
161	20
162	20
163	50
164	20
165	10
166	10
174	20
175	20
176	10
177	10
185	20
186	30
187	70
188	30
189	20
190	10
191	10
198	30
199	20
200	40
201	20
202	20
203	10
204	10
209	20
210	20
211	70
212	30
213	60
214	20
215	10
216	10
219	20
220	10
221	10
222	20
223	20
224	60
225	40
226	40
227	10
228	10
229	10
230	20
231	20
232	40
233	20
234	20
235	60
236	50
237	240
238	80
239	370
240	90
241	20
242	10
243	30
244	20
245	30
246	20
247	20
248	80
249	50
250	220
251	70
252	350
253	90
254	20
255	20
256	70
257	30
258	50
259	20
260	10
261	10
269	20
270	10
271	10
279	40
280	220
281	200
282	1511
283	540
284	9999
285	2262
286	701
287	120
288	20
289	10
