Mass Spectrum: 1,2,4,5-Tetrazine, hexahydro-1,2,4,5-tetramethyl-
Formula: C6 H16 N4
CAS: 20717-38-8
Molecular weight: 144
Origin: D.HENNEBERG, MAX-PLANCK INSTITUTE, MULHEIM, WEST GERMANY
m/z	RELATIVE INTENSITY
23	7
24	9
25	29
26	206
27	1377
28	2625
29	450
30	2002
31	120
32	43
33	5
34	13
35	15
36	10
37	12
38	71
39	147
40	404
41	702
42	8256
43	9999
44	9282
45	1002
46	133
47	4
52	4
53	16
54	18
55	102
56	115
57	1757
58	1506
59	1007
60	486
61	14
68	5
69	23
70	96
71	2414
72	1908
73	701
74	30
83	13
84	24
85	46
86	162
87	23
98	26
100	4
101	22
102	200
103	4
128	5
142	5
143	10
144	1421
145	108
146	4
