Mass Spectrum: 2-Fluoro-3-(trifluoromethyl)phenol
Formula: C7 H4 F4 O
CAS: 207291-85-8
Molecular weight: 180
Origin: NIST Mass Spectrometry Data Center
m/z	RELATIVE INTENSITY
25	10
26	30
27	30
29	80
31	300
33	20
36	10
37	180
38	240
39	290
40	10
41	10
42	20
43	10
45	30
47	10
48	10
49	80
50	350
51	260
52	30
53	290
54	20
55	120
56	440
57	1181
58	60
60	50
61	400
62	540
63	2232
64	150
65	60
66	300
67	30
68	190
69	611
70	40
71	80
72	20
73	60
74	220
75	681
76	50
77	30
79	80
80	350
81	1111
82	571
83	791
84	70
85	20
86	30
87	140
88	200
89	20
90	60
91	60
92	100
93	300
94	110
95	40
98	10
99	270
100	70
101	1521
102	230
103	20
104	20
105	30
106	230
107	30
108	10
109	10
110	380
111	80
112	350
113	941
114	160
115	20
117	20
118	10
119	20
121	20
123	20
124	10
125	50
126	10
128	10
130	1361
131	390
132	7026
133	751
134	40
137	10
141	921
142	70
143	80
144	10
149	10
150	110
151	611
152	80
159	280
160	280
161	3243
162	260
163	631
164	50
177	10
179	510
180	9999
181	801
182	50
