Mass Spectrum: 1,8-Naphthalenediamine, N,N,N',N'-tetramethyl-
Formula: C14 H18 N2
CAS: 20734-58-1
Molecular weight: 214
Origin: Japan AIST/NIMC Database- Spectrum MS-NW-2417
m/z	RELATIVE INTENSITY
14	20
15	329
16	20
26	20
27	90
28	229
29	30
30	309
31	10
32	10
37	10
38	40
39	219
40	30
41	80
42	1689
43	149
44	1009
45	60
46	30
50	159
51	339
52	70
53	20
54	10
55	10
56	20
57	30
58	519
59	10
61	30
62	129
63	489
64	279
65	129
66	40
67	10
68	10
69	40
70	99
71	50
72	20
73	10
74	189
75	319
76	219
77	779
78	189
79	30
82	30
83	299
84	289
85	70
86	70
87	139
88	109
89	159
90	60
91	589
92	559
93	10
97	20
98	799
99	649
100	149
101	309
102	179
103	50
104	10
105	20
106	30
107	699
110	10
111	20
112	20
113	179
114	179
115	809
116	149
117	40
118	10
122	10
125	70
126	579
127	2209
128	1289
129	599
130	139
131	40
138	30
139	159
140	569
141	819
142	529
143	169
144	70
145	20
151	20
152	129
153	439
154	1709
155	1309
156	579
157	339
158	80
159	10
160	10
163	10
164	10
165	40
166	289
167	1589
168	9259
169	2619
170	6539
171	1529
172	379
173	50
174	10
175	10
176	10
177	10
178	10
179	20
180	50
181	749
182	5819
183	7699
184	5479
185	1249
186	129
187	10
188	10
189	10
190	10
191	10
192	10
193	10
194	20
195	40
196	70
197	1509
198	989
199	4529
200	799
201	70
210	50
211	30
212	109
213	219
214	9999
215	1579
216	109
