Mass Spectrum: 3-Dipropylaminopropanenitrile
Formula: C9 H18 N2
CAS: 20732-22-3
Molecular weight: 154
Origin: NIST Mass Spectrometry Data Center, 1994
m/z	RELATIVE INTENSITY
13	42
14	42
15	1238
18	114
25	44
26	519
27	5065
28	2779
29	1017
30	3188
37	42
38	130
39	1864
40	480
41	5800
42	9971
43	4904
44	937
50	23
51	95
52	333
53	313
54	2853
55	418
56	972
57	285
58	98
66	27
67	122
68	331
69	126
70	1120
71	129
72	1513
73	74
79	28
80	50
81	156
82	27
83	9999
84	1141
85	83
86	1258
87	72
95	56
97	941
98	118
101	31
109	69
111	89
112	74
114	3781
115	328
123	87
125	7709
126	712
127	36
153	88
154	488
155	58
