Mass Spectrum: 8-Nonenoic acid, methyl ester
Formula: C10 H18 O2
CAS: 20731-23-1
Molecular weight: 170
Origin: R.T.HOLMAN,UNIVERSITY OF MINNESOTA
m/z	RELATIVE INTENSITY
15	2900
26	200
27	2400
28	1100
29	2500
31	300
38	100
39	2900
40	400
41	6800
42	1600
43	4800
44	600
45	3600
46	100
51	200
52	100
53	800
54	1300
55	6800
56	700
57	900
58	100
59	3200
60	100
65	200
66	100
67	1400
68	2200
69	4800
70	500
71	400
72	200
73	800
74	9999
75	600
77	100
79	700
80	300
81	1200
82	800
83	700
84	1400
85	400
87	3300
88	400
91	100
93	400
94	1000
95	900
96	3300
97	1600
98	200
101	300
109	500
110	600
111	100
113	300
114	200
120	100
121	1100
123	500
124	400
128	200
129	300
130	100
138	1400
139	500
141	100
170	34
