Mass Spectrum: 4-Hexyn-3-ol
Formula: C6 H10 O
CAS: 20739-59-7
Molecular weight: 98
Origin: NIST Mass Spectrometry Data Center
m/z	RELATIVE INTENSITY
14	20
15	140
17	10
18	10
19	10
25	10
26	160
27	911
28	190
29	881
30	40
31	170
36	10
37	160
38	340
39	2212
40	270
41	2342
42	190
43	641
44	20
45	20
49	40
50	290
51	420
52	150
53	330
54	40
55	330
56	90
57	170
58	30
59	20
61	30
62	60
63	90
64	10
65	100
66	100
67	340
68	370
69	9999
70	450
71	30
73	10
74	30
77	180
78	30
79	220
80	50
81	40
83	2202
84	130
95	10
97	220
98	20
