Mass Spectrum: 2-Bromo-1-chloro-2-methylpropane
Formula: C4 H8 Br Cl
CAS: 2074-80-8
Molecular weight: 170
Origin: NIST Mass Spectrometry Data Center, 1990.
m/z	RELATIVE INTENSITY
14	95
15	241
25	36
26	349
27	2353
28	707
29	2738
30	67
32	83
35	54
36	79
37	403
38	850
39	4508
40	547
41	2761
42	161
47	78
48	65
49	667
50	479
51	613
52	153
53	1059
54	65
55	9730
56	538
61	79
62	130
63	1243
64	53
65	429
73	78
75	579
76	48
77	188
79	190
80	74
81	165
82	82
91	9999
92	549
93	3429
94	143
95	95
107	59
109	37
119	89
121	437
123	327
135	91
137	90
157	39
