Mass Spectrum: Heptanal, (2,4-dinitrophenyl)hydrazone
Formula: C13 H18 N4 O4
CAS: 2074-05-7
Molecular weight: 294
Origin: Japan AIST/NIMC Database- Spectrum MS-IW-6796
m/z	RELATIVE INTENSITY
14	20
15	50
16	10
25	20
26	289
27	2449
28	1959
29	1649
30	1499
31	30
32	10
36	10
37	80
38	259
39	1219
40	279
41	3929
42	929
43	3179
44	439
45	80
46	20
48	10
49	30
50	309
51	769
52	639
53	469
54	529
55	9239
56	1069
57	389
58	60
59	10
60	30
61	70
62	369
63	969
64	759
65	649
66	269
67	629
68	489
69	1309
70	439
71	169
72	40
73	20
74	149
75	979
76	759
77	1939
78	1099
79	1059
80	339
81	319
82	459
83	319
84	269
85	50
86	50
87	30
88	99
89	309
90	549
91	1029
92	1139
93	369
94	119
95	709
96	359
97	9999
98	809
99	40
100	10
101	40
102	419
103	1889
104	1479
105	509
106	259
107	289
108	119
109	40
110	99
111	40
112	119
113	40
114	20
115	159
116	159
117	289
118	299
119	409
120	239
121	109
122	1479
123	139
124	20
127	30
128	90
129	189
130	379
131	399
132	289
133	109
134	99
135	179
136	109
137	219
138	259
139	30
140	10
141	20
142	60
143	119
144	169
145	179
146	99
147	189
148	149
149	2609
150	369
151	159
152	789
153	419
154	70
155	40
156	80
157	209
158	80
159	99
160	149
161	80
162	70
163	109
164	459
165	349
166	139
167	369
168	99
169	80
170	60
171	80
172	50
173	60
174	50
175	129
176	249
177	619
178	159
179	119
180	429
181	729
182	90
183	1399
184	249
185	90
186	50
187	50
188	30
189	139
190	309
191	189
192	99
193	369
194	70
195	20
196	409
197	70
198	30
199	20
200	30
201	70
202	90
203	399
204	139
205	70
206	5909
207	719
208	80
209	40
210	30
211	30
212	20
213	80
214	40
215	119
216	80
217	149
218	60
219	40
220	60
221	10
222	10
223	259
224	1549
225	159
226	20
227	10
228	20
229	30
230	70
231	309
232	99
233	40
234	80
235	70
236	10
237	50
238	10
243	10
244	20
245	10
246	20
247	20
248	90
249	20
250	10
251	60
252	10
257	10
258	10
259	199
260	99
261	20
262	10
264	50
265	70
266	10
275	20
276	10
277	20
278	119
279	40
280	20
292	50
293	60
294	3269
295	749
296	99
297	10
