Mass Spectrum: 1-Methyl-5-phenyltetrazole
Formula: C8 H8 N4
CAS: 20743-50-4
Molecular weight: 160
Origin: YU. SHURUKHIN,LENSOVET LENINGRAD TECHNOL. INST.,LENINGRAD,USSR
m/z	RELATIVE INTENSITY
41	1720
43	9999
50	1880
51	3950
62	450
63	3790
64	1160
65	1420
76	1480
77	6580
78	1780
89	2270
90	4930
91	1770
103	2970
104	2560
105	450
118	5260
119	540
131	2960
132	1210
160	9130
161	990
