Mass Spectrum: 1,2-Dicarbadodecaborane(12), 1-hexyl-
Formula: C8 H24 B10
CAS: 20740-05-0
Molecular weight: 230
Origin: RADIAN CORP
m/z	RELATIVE INTENSITY
27	2480
29	7130
37	110
39	1060
41	6240
42	1300
43	9999
44	120
53	60
55	990
56	420
57	4460
71	1560
90	50
100	70
101	100
102	90
103	110
104	190
105	90
111	130
112	320
113	320
114	270
115	110
116	20
122	90
123	370
124	590
125	600
126	530
127	320
128	100
129	50
131	30
132	80
133	220
134	330
135	670
136	920
137	990
138	970
139	850
140	830
141	750
142	640
143	340
144	110
145	50
146	160
147	400
148	590
149	740
150	1000
151	1250
152	1510
153	1740
154	1460
155	860
156	330
157	240
161	90
162	390
163	660
164	830
165	970
166	1140
167	1490
168	1300
169	800
170	340
171	80
175	160
176	410
177	820
178	1400
179	2180
180	3580
181	5380
182	7740
183	8860
184	7750
185	3970
186	1040
187	300
190	200
191	430
192	780
193	1270
194	1810
195	2610
196	4060
197	5290
198	4650
199	1930
224	20
225	520
226	980
227	1070
228	760
229	340
230	20
