Mass Spectrum: 1H-Pyrazole, 4-nitro-
Formula: C3 H3 N3 O2
CAS: 2075-46-9
Molecular weight: 113
Origin: J. VAN THUIJL
m/z	RELATIVE INTENSITY
24	50
25	80
26	280
27	1150
28	3790
29	420
30	1210
36	70
38	1320
39	1380
40	850
41	130
42	110
43	490
46	90
50	50
51	90
52	220
53	220
54	60
56	380
65	70
66	150
67	510
68	80
69	120
70	340
78	50
82	510
84	30
97	590
98	30
113	9999
114	450
115	60
