Mass Spectrum: trans-1,4-Diacetamidocyclohexane
Formula: C10 H18 N2 O2
CAS: 2077-92-1
Molecular weight: 198
Origin: H. SUESS, CIBA-GEIGY AG, MUNCHWILEN
m/z	RELATIVE INTENSITY
43	7600
56	2000
57	1000
58	2700
60	9900
68	1600
69	1600
70	300
79	500
80	4200
81	900
82	900
85	2500
86	700
96	2400
97	1800
98	900
100	500
111	300
112	100
113	200
139	9999
140	1100
155	700
198	100
