Mass Spectrum: Cyclohexanol, 5-methyl-2-(1-methylethyl)-, acetate, (1.alpha.,2.beta.,5.beta.)-
Formula: C12 H22 O2
CAS: 20777-45-1
Molecular weight: 198
m/z	RELATIVE INTENSITY
15	240
27	901
28	140
29	961
31	70
39	791
40	140
41	2923
42	420
43	9999
44	290
45	120
51	90
52	60
53	540
54	400
55	2642
56	561
57	1001
58	120
59	80
61	190
65	140
66	110
67	1702
68	971
69	1892
70	400
71	1702
72	110
73	50
77	250
78	60
79	470
80	490
81	5105
82	2362
83	1101
84	140
85	430
86	110
91	120
93	190
94	931
95	9348
96	2362
97	390
98	50
99	130
100	70
109	731
110	440
111	140
112	80
113	430
121	40
123	3023
124	310
137	120
138	4724
139	601
141	140
