Mass Spectrum: Hexadecyl methanesulfonate
Formula: C17 H36 O3 S
CAS: 20779-14-0
Molecular weight: 320
Origin: Japan AIST/NIMC Database- Spectrum MS-IW-6295
m/z	RELATIVE INTENSITY
15	139
26	10
27	309
28	139
29	1209
30	30
31	30
32	10
39	279
40	70
41	3549
42	1129
43	5259
44	199
45	70
51	10
52	10
53	199
54	909
55	7209
56	5289
57	7409
58	329
59	20
63	30
64	10
65	40
66	129
67	1249
68	1959
69	8219
70	6019
71	4099
72	209
73	10
77	20
78	10
79	779
80	70
81	879
82	5119
83	9999
84	4489
85	2579
86	149
91	20
93	20
94	20
95	419
96	2549
97	9949
98	3169
99	819
100	50
108	10
109	199
110	1289
111	6159
112	2429
113	499
114	30
122	10
123	99
124	899
125	3689
126	1789
127	329
128	20
135	20
137	60
138	639
139	1949
140	1549
141	329
142	30
149	10
151	10
152	459
153	1199
154	1039
155	229
156	20
165	20
166	289
167	839
168	729
169	129
170	10
180	159
181	589
182	459
183	80
194	90
195	379
196	1609
197	239
198	10
209	10
222	10
224	5809
225	1179
226	119
