Mass Spectrum: Benzoic Acid, TMS derivative
Formula: C10 H14 O2 Si
CAS: 2078-12-8
Molecular weight: 194
Origin: O A MAMER, MCGILL UNIVERSITY, MONTREne
m/z	RELATIVE INTENSITY
15	462
27	350
28	598
29	284
39	239
43	823
44	339
45	1555
47	578
50	731
51	2567
52	266
59	346
73	927
74	318
75	845
76	514
77	8029
78	633
89	646
105	9999
106	823
135	5033
136	734
137	250
179	8981
180	1373
181	450
194	787
