Mass Spectrum: Phthalic acid, 2TMS derivative
Formula: C14 H22 O4 Si2
CAS: 2078-22-0
Molecular weight: 310
Origin: O A MAMER, MCGILL UNIVERSITY, MONTREAL, CANADA
m/z	RELATIVE INTENSITY
15	127
18	341
28	302
29	111
43	381
44	372
45	1700
46	128
47	186
50	199
57	108
59	254
72	263
73	6254
74	606
75	677
76	604
77	358
89	170
91	266
103	180
104	223
105	438
119	420
126	142
131	208
133	361
135	308
140	757
141	653
147	9999
148	1634
149	878
150	110
163	372
193	189
220	390
221	632
222	135
265	94
295	1612
296	419
297	184
310	199
