Mass Spectrum: Urea, (2-hydroxyethyl)-
Formula: C3 H8 N2 O2
CAS: 2078-71-9
Molecular weight: 104
Origin: A.A.Kutin, Moscow, Russia
m/z	RELATIVE INTENSITY
42	4836
43	4415
44	2170
59	7234
60	449
87	9999
88	1209
