Mass Spectrum: 3-Octanol, 3,7-dimethyl-, acetate
Formula: C12 H24 O2
CAS: 20780-48-7
Molecular weight: 200
Origin: Insect Chem. Ecol. Lab., USDA, Beltsville, MD 20705
m/z	RELATIVE INTENSITY
41	2290
42	425
43	9999
44	222
45	231
47	148
48	70
52	19
53	241
54	117
55	2936
56	1063
57	1649
58	543
59	121
60	7
61	79
65	48
66	10
67	251
68	139
69	4366
70	3593
71	1351
73	6200
74	246
75	16
77	44
79	56
81	115
82	116
83	1244
84	145
85	823
86	52
87	119
88	86
91	17
93	8
95	216
96	50
97	178
98	57
99	133
100	26
109	64
110	129
111	4037
112	469
113	67
114	69
115	5616
116	321
117	37
119	6
123	18
125	570
126	55
128	53
129	3610
130	789
131	62
133	23
139	10
140	2054
141	518
143	676
144	60
156	7
157	8
171	731
172	73
185	43
