Mass Spectrum: Hippuric acid, TMS derivative
Formula: C12 H17 N O3 Si
CAS: 2078-24-2
Molecular weight: 251
Origin: NIST Mass Spectrometry Data Center
m/z	RELATIVE INTENSITY
15	10
27	30
28	60
29	50
30	20
31	20
38	10
39	50
41	10
42	40
43	230
44	110
45	681
46	50
47	270
48	10
49	20
50	290
51	1101
52	80
53	30
54	10
55	40
56	60
57	60
58	310
59	250
60	70
61	260
62	30
63	30
64	10
65	20
66	10
67	10
70	30
71	30
72	270
73	4894
74	591
75	1491
76	390
77	4634
78	360
79	30
83	10
84	10
85	10
86	110
87	150
88	140
89	100
90	40
91	90
92	10
93	10
96	140
100	50
101	50
102	130
103	90
104	420
105	9999
106	961
107	70
108	10
115	10
116	180
117	240
118	260
119	50
120	20
121	70
122	10
130	80
131	30
132	70
133	90
134	280
135	240
136	30
137	20
145	10
146	20
147	20
148	110
149	100
150	20
151	10
160	10
161	80
162	50
163	210
164	40
165	10
176	20
177	280
178	70
179	60
180	10
190	641
191	110
192	330
193	60
194	20
204	60
206	8778
207	2352
208	601
209	80
210	10
234	10
236	1331
237	240
238	70
239	10
251	40
252	10
