Mass Spectrum: Benzeneacetic acid, TMS derivative
Formula: C11 H16 O2 Si
CAS: 2078-18-4
Molecular weight: 208
Origin: NIST Mass Spectrometry Data Center
m/z	RELATIVE INTENSITY
15	20
26	10
27	30
28	20
29	60
30	10
31	20
37	10
38	40
39	320
40	30
41	90
42	40
43	340
44	140
45	991
46	70
47	380
48	20
49	20
50	70
51	200
52	60
53	40
54	10
55	60
56	10
57	60
58	230
59	210
60	70
61	340
62	100
63	340
64	110
65	991
66	60
67	10
68	10
69	10
70	20
71	30
72	140
73	9999
74	971
75	3403
76	250
77	180
78	20
79	20
81	10
82	10
83	10
85	10
86	10
87	20
88	20
89	581
90	571
91	1972
92	160
93	20
95	10
96	120
101	10
102	10
103	20
104	10
105	50
106	10
107	10
115	10
116	20
117	290
118	200
119	60
120	10
121	90
122	10
123	10
131	20
132	10
133	30
134	10
135	60
136	10
137	400
138	50
139	20
145	10
146	10
147	20
148	30
149	70
150	30
151	10
164	1972
165	520
166	120
167	20
177	10
193	1251
194	200
195	60
196	10
208	90
209	10
