Mass Spectrum: p-Anisic acid, TMS derivative
Formula: C11 H16 O3 Si
CAS: 2078-14-0
Molecular weight: 224
Origin: NIST Mass Spectrometry Data Center, 2010
m/z	RELATIVE INTENSITY
14	10
15	90
17	10
18	40
26	10
27	30
28	80
29	60
30	10
31	20
32	10
37	10
38	80
39	70
40	10
41	10
42	30
43	200
44	80
45	500
46	40
47	130
48	10
49	10
50	190
51	140
52	30
53	110
54	20
55	50
56	10
57	30
58	50
59	150
60	40
61	70
62	90
63	571
64	871
65	90
66	60
67	20
68	10
69	40
70	10
71	20
72	50
73	480
74	150
75	380
76	380
77	2372
78	190
79	120
80	10
81	20
82	10
83	30
84	10
85	20
89	120
90	30
91	90
92	2132
93	170
94	20
95	20
96	10
97	10
99	10
101	10
103	110
104	550
106	70
107	951
108	80
109	20
110	10
111	10
117	10
119	80
120	140
121	70
122	210
123	40
124	10
133	50
135	9999
136	861
137	90
138	10
147	10
148	10
149	60
150	60
151	120
152	40
153	10
163	20
165	8097
166	1261
167	350
168	30
177	10
178	30
179	30
180	20
181	10
193	50
194	240
195	40
196	10
207	20
209	8438
210	1281
211	380
212	40
223	150
224	1952
225	320
226	100
227	10
