Mass Spectrum: Mandelic acid, 2TMS derivative
Formula: C14 H24 O3 Si2
CAS: 2078-19-5
Molecular weight: 296
Origin: NIST Mass Spectrometry Data Center
m/z	RELATIVE INTENSITY
15	10
27	10
28	10
29	50
31	20
39	40
42	20
43	380
44	200
45	1231
46	90
47	140
48	10
49	10
50	20
51	90
52	30
53	30
54	10
55	50
56	10
57	80
58	170
59	250
60	30
61	80
62	20
63	80
64	30
65	30
66	30
67	10
69	10
70	30
71	40
72	150
73	7887
74	721
75	691
76	50
77	330
78	70
79	40
81	10
82	10
83	10
85	10
87	20
88	10
89	310
90	410
91	220
92	20
93	20
95	10
97	10
99	10
101	20
102	20
103	120
104	180
105	400
106	50
107	40
108	10
109	10
111	20
113	10
115	60
116	20
117	130
118	160
119	230
121	60
122	10
123	10
125	20
129	10
131	220
132	40
133	410
134	60
135	180
136	20
137	40
138	10
143	10
145	60
147	3063
148	540
149	811
150	110
151	40
159	10
161	30
162	10
163	601
164	170
165	120
166	20
175	10
177	70
179	9999
180	1661
181	490
182	50
190	10
191	10
192	10
193	20
195	10
207	10
209	20
237	10
252	20
253	781
254	180
255	70
256	10
281	90
282	20
283	10
