Mass Spectrum: 3-Ethyl-5-methyl-1-heptyn-3-ol
Formula: C10 H18 O
CAS: 207974-16-1
Molecular weight: 154
Origin: NIST Mass Spectrometry Data Center, 1994
m/z	RELATIVE INTENSITY
14	17
15	166
18	46
26	241
27	2376
28	318
29	4368
30	130
37	39
38	114
39	2123
40	425
41	3119
42	463
43	3344
44	67
45	64
50	185
51	539
52	181
53	1571
54	222
55	2868
56	434
57	3127
58	139
62	46
63	130
64	45
65	325
66	107
67	290
68	337
69	3821
70	275
71	289
72	95
73	89
77	435
78	97
79	761
80	194
81	729
82	661
83	9999
84	631
85	74
91	508
92	65
93	156
94	54
95	216
96	75
97	128
98	557
99	96
105	200
107	343
108	41
109	46
121	90
125	2946
126	277
127	30
