Mass Spectrum: 2-Fluoro-3-(trifluoromethyl)benzyl alcohol
Formula: C8 H6 F4 O
CAS: 207981-45-1
Molecular weight: 194
Origin: NIST Mass Spectrometry Data Center, 1994
m/z	RELATIVE INTENSITY
14	51
16	37
17	64
18	76
19	53
20	97
26	95
27	99
28	546
29	2756
30	511
31	2324
32	156
33	69
37	272
38	445
39	671
40	15
44	84
48	25
49	342
50	1306
51	1353
52	114
53	130
55	97
56	260
57	891
58	60
61	350
62	597
63	862
64	80
68	692
69	2884
70	287
71	72
72	57
73	186
74	745
75	2539
76	415
77	1962
78	225
79	115
80	224
81	671
82	103
83	99
85	147
86	227
87	593
88	245
89	91
92	166
93	550
94	661
95	1618
96	1172
97	3486
98	251
99	616
100	121
101	469
102	32
103	36
104	65
105	357
106	125
107	835
108	185
109	30
111	36
112	164
113	537
114	530
115	75
117	74
118	84
119	204
123	233
125	5739
126	1331
127	2754
128	203
132	118
137	280
138	102
141	40
143	612
145	9999
146	1007
147	96
150	50
151	65
154	409
155	229
156	142
157	123
158	61
163	1023
164	252
165	786
166	91
173	3187
174	1339
175	2315
176	360
177	1023
178	97
191	673
193	1610
194	3811
195	311
