Mass Spectrum: Tetradecanethiol
Formula: C14 H30 S
CAS: 2079-95-0
Molecular weight: 230
Origin: NIST Mass Spectrometry Data Center
m/z	RELATIVE INTENSITY
15	70
17	30
18	110
27	2262
28	1061
29	4864
30	120
31	10
32	10
35	280
36	40
38	70
39	1651
40	360
41	9999
42	1992
43	8327
44	260
45	561
46	210
47	2092
48	140
51	40
53	40
54	651
55	1021
56	9058
57	4534
58	5925
59	320
60	220
61	370
62	1281
63	50
65	70
66	120
67	180
68	1541
69	2492
70	6556
71	3934
72	2282
73	120
74	130
75	70
77	110
79	90
80	120
81	40
82	641
83	2933
84	6246
85	2412
87	1201
88	300
89	410
90	1722
91	100
94	110
95	40
96	200
97	2022
98	5175
99	1682
101	110
103	120
109	70
110	731
111	2572
112	1091
113	140
114	30
115	50
123	40
124	390
125	1561
126	681
127	110
138	150
139	530
140	410
141	50
152	100
153	220
154	130
155	40
166	80
167	170
168	581
169	100
196	1301
197	190
229	260
230	2722
231	410
232	150
