Mass Spectrum: 4-Octanone, 7-methyl-
Formula: C9 H18 O
CAS: 20809-46-5
Molecular weight: 142
m/z	RELATIVE INTENSITY
27	4094
28	951
29	2122
30	50
31	70
39	1942
41	3473
42	1091
43	9999
44	320
45	70
55	911
56	290
57	901
58	3753
59	170
69	140
70	160
71	6696
72	380
73	30
84	10
85	40
86	1812
87	360
99	2132
100	170
101	30
113	170
114	20
127	30
142	741
