Mass Spectrum: 1,3-Dithiolan-2-one
Formula: C3 H4 O S2
CAS: 2080-58-2
Molecular weight: 120
Origin: James Little,Eastman Chem.Co.,Kingsport,TN
m/z	RELATIVE INTENSITY
27	2883
28	2342
32	1451
33	390
34	701
35	130
44	1501
45	9999
46	3503
47	1141
48	260
57	761
58	1782
59	5955
60	4294
61	581
64	3113
76	721
77	90
78	90
91	200
92	7216
93	450
94	721
120	6496
121	671
122	711
123	140
124	80
125	40
