Mass Spectrum: 1,4-Hexadiene, 3-ethyl-
Formula: C8 H14
CAS: 2080-89-9
Molecular weight: 110
Origin: M. IWAMOTO TOYO RAYON CO., SONOYANA, OTSU, SHIGA-KEN, JAPAN
m/z	RELATIVE INTENSITY
15	176
26	282
27	2355
28	376
29	1060
38	235
39	2650
40	412
41	3121
42	247
43	141
50	353
51	659
52	353
53	2532
54	471
55	2414
56	294
60	117
63	200
65	588
66	530
67	1672
68	918
69	223
77	1060
79	2473
80	530
81	9999
82	883
91	176
93	176
95	1472
96	164
110	1472
111	176
