Mass Spectrum: 4-Fluoro-3-(trifluoromethyl)acetophenone
Formula: C9 H6 F4 O
CAS: 208173-24-4
Molecular weight: 206
Origin: NIST Mass Spectrometry Data Center, 1994
m/z	RELATIVE INTENSITY
12	18
13	42
14	285
15	1426
16	15
18	23
20	47
26	43
27	54
29	96
31	361
37	112
38	134
39	127
41	50
42	518
43	3582
44	111
45	51
47	21
49	53
50	558
51	347
53	37
56	100
57	319
60	17
61	173
62	423
63	498
64	38
68	401
69	991
70	38
72	101
73	101
74	528
75	981
76	63
77	33
79	45
80	102
81	270
82	30
83	30
84	13
85	74
86	174
87	118
88	61
89	26
92	148
93	547
94	618
95	125
98	47
99	328
100	50
101	124
103	25
104	34
105	84
106	55
107	205
108	48
109	45
111	33
112	184
113	875
114	104
117	78
118	57
119	49
120	23
122	29
123	88
125	300
126	63
127	222
132	43
137	119
138	34
143	949
144	506
145	173
151	21
156	30
157	20
161	50
163	6535
164	525
169	35
172	29
176	21
177	105
187	936
188	101
189	41
190	21
191	9999
192	861
193	56
206	1182
207	140
