Mass Spectrum: Tetrahydro-4H-pyran-4-ol
Formula: C5 H10 O2
CAS: 2081-44-9
Molecular weight: 102
Origin: Japan AIST/NIMC Database- Spectrum MS-NW-6075
m/z	RELATIVE INTENSITY
13	30
14	199
15	809
16	40
17	30
18	109
19	10
25	30
26	549
27	2969
28	7479
29	3139
30	929
31	4159
32	60
33	30
36	10
37	70
38	129
39	1049
40	179
41	1299
42	1459
43	5589
44	9949
45	3059
46	2269
47	119
48	10
49	40
50	139
51	159
52	60
53	879
54	1869
55	3559
56	3609
57	4059
58	1419
59	529
60	30
61	2449
62	70
63	20
65	10
66	50
67	70
68	20
69	1329
70	119
71	739
72	199
73	1469
74	279
75	169
76	10
77	10
81	20
82	30
83	1539
84	9999
85	629
86	60
87	40
88	10
99	40
100	40
101	279
102	559
103	40
