Mass Spectrum: Allyl dimethyldithiocarbamate
Formula: C6 H11 N S2
CAS: 20821-66-3
Molecular weight: 161
Origin: Japan AIST/NIMC Database- Spectrum MS-NW-9479
m/z	RELATIVE INTENSITY
14	10
15	249
26	20
27	80
28	50
29	10
30	50
32	30
33	10
34	20
37	20
38	60
39	569
40	90
41	759
42	909
43	189
44	2769
45	379
46	70
47	249
48	10
49	10
54	10
55	30
56	209
57	10
58	30
59	30
61	80
64	80
69	20
70	20
71	80
72	279
73	649
74	719
75	50
76	229
77	769
78	40
79	70
82	20
84	10
85	20
87	10
88	9999
89	619
90	469
91	20
94	20
105	20
114	30
117	20
120	1519
121	109
122	139
128	139
129	10
132	80
133	10
134	10
146	709
147	50
148	60
160	10
161	3029
162	269
163	279
164	20
