Mass Spectrum: 2(3H)-Furanone
Formula: C4 H4 O2
CAS: 20825-71-2
Molecular weight: 84
m/z	RELATIVE INTENSITY
26	4094
27	6377
28	2393
29	2047
36	110
37	693
38	913
39	1984
41	236
42	47
43	126
44	1653
53	4409
54	2488
55	9999
56	362
83	189
84	5149
85	252
