Mass Spectrum: O-Ethyl S-2-dimethylaminoethyl methylphosphonothiolate
Formula: C7 H18 N O2 P S
CAS: 20820-80-8
Molecular weight: 211
Origin: VERIFIN - Methodology B1-1979
m/z	RELATIVE INTENSITY
26	60
27	200
28	100
29	100
30	100
41	60
42	800
43	500
44	300
45	60
47	200
56	500
57	200
58	9999
59	300
61	100
63	50
70	300
71	5104
72	500
79	700
95	60
96	50
102	200
107	100
139	80
166	100
167	70
210	10
