Mass Spectrum: 2,2-Dimethylindene, 2,3-dihydro-
Formula: C11 H14
CAS: 20836-11-7
Molecular weight: 146
Origin: V.G.Zaikin, TIPS, Russian Acad. Sci.
m/z	RELATIVE INTENSITY
51	600
52	170
53	300
63	450
64	350
65	500
75	100
76	100
77	600
78	300
79	200
89	300
91	2001
92	350
102	170
103	400
104	420
105	570
115	1501
116	1000
117	550
127	400
128	800
129	900
130	350
131	9999
132	1151
145	600
146	5404
147	650
148	31
