Mass Spectrum: Dodecanoic acid, hexadecyl ester
Formula: C28 H56 O2
CAS: 20834-06-4
Molecular weight: 424
Origin: R.T.HOLMAN,UNIVERSITY OF MINNESOTA
m/z	RELATIVE INTENSITY
26	60
27	270
28	1000
29	730
30	40
31	40
32	190
33	30
34	10
35	10
36	30
37	20
38	30
39	280
40	90
41	2100
42	670
43	4400
44	420
45	80
46	10
47	10
50	40
51	40
52	40
53	150
54	470
55	3600
56	1700
57	5200
58	270
59	80
60	570
61	830
62	40
63	40
64	270
65	50
66	180
67	680
68	1000
69	3200
70	1800
71	3000
72	180
73	1000
74	150
75	40
76	20
77	60
78	40
79	130
80	80
81	600
82	1600
83	3600
84	1600
85	2100
86	170
87	340
88	70
89	90
90	10
91	100
92	40
93	120
94	80
95	500
96	870
97	3200
98	1400
99	480
100	80
101	310
102	80
103	110
104	40
105	50
106	30
107	60
108	40
109	260
110	390
111	1800
112	810
113	260
114	60
115	350
116	280
117	80
118	20
119	50
120	20
121	70
122	40
123	140
124	240
125	900
126	510
127	160
128	40
129	570
130	100
131	50
132	10
133	20
134	10
135	40
136	40
137	70
138	270
139	420
140	430
141	180
142	40
143	150
144	30
145	40
146	20
147	30
148	20
149	150
150	30
151	30
152	100
153	210
154	280
155	100
156	30
157	430
158	60
159	30
160	10
161	10
162	20
163	90
164	40
165	40
166	70
167	150
168	230
169	70
170	30
171	170
172	40
173	20
174	10
175	10
176	20
177	20
178	20
179	20
180	80
181	170
182	150
183	1600
184	230
185	80
186	10
187	10
188	10
189	10
190	10
191	10
192	10
193	10
194	40
195	60
196	700
197	140
198	50
199	110
200	1600
201	9999
202	1500
203	140
204	20
205	10
206	10
207	30
208	10
209	10
210	40
211	30
212	20
213	10
214	10
215	10
216	10
217	20
218	20
219	70
220	20
221	10
222	40
223	30
224	1600
225	330
226	50
227	30
228	20
229	10
230	10
231	10
232	10
233	10
234	10
235	10
236	10
237	10
238	20
239	30
240	10
241	60
242	20
243	10
244	10
245	10
246	10
247	10
248	10
249	10
250	10
251	20
252	10
253	10
254	10
255	20
256	100
257	30
258	10
259	10
260	10
261	10
262	10
263	10
264	10
265	10
266	10
267	10
268	10
269	310
270	70
271	10
272	10
273	10
274	10
275	10
276	10
277	10
278	10
279	20
280	10
281	10
282	10
283	10
284	60
285	70
286	20
287	10
296	10
297	70
298	20
299	10
300	10
310	10
311	10
312	10
313	10
314	10
324	10
325	20
326	10
327	10
337	10
338	10
339	20
340	10
352	10
353	30
354	10
355	10
381	20
382	10
394	10
395	10
396	30
397	10
406	10
407	10
424	684
425	220
426	50
427	10
