Mass Spectrum: Triethanolamine, 3TMS derivative
Formula: C15 H39 N O3 Si3
CAS: 20836-42-4
Molecular weight: 365
Origin: Eric Wils, TNO Prins Maurits Laboratory, The Netherlands.
m/z	RELATIVE INTENSITY
42	160
45	260
56	230
59	430
61	110
70	110
73	3793
74	490
75	390
77	100
100	150
101	250
103	210
116	170
117	450
130	631
131	110
133	170
144	540
146	230
147	460
158	120
172	100
260	130
262	9999
263	2342
264	1021
265	170
350	951
351	310
