Mass Spectrum: 2-Pentanethiol
Formula: C5 H12 S
CAS: 2084-19-7
Molecular weight: 104
m/z	RELATIVE INTENSITY
24	10
25	60
26	741
27	5415
28	581
29	3263
30	70
31	40
32	210
33	571
34	320
35	851
36	40
37	270
38	470
39	3723
40	490
41	5175
42	2813
43	9999
44	360
45	1311
46	200
47	1822
48	60
49	130
50	170
51	230
52	70
53	420
54	110
55	5285
56	260
57	170
58	550
59	1081
60	1521
61	7317
62	440
63	390
64	20
65	50
66	10
67	60
68	20
69	260
70	3193
71	4084
72	220
73	70
74	90
75	360
76	50
77	20
78	10
81	10
82	10
83	10
84	10
85	20
87	30
88	10
89	120
90	10
91	30
92	10
99	20
103	10
104	3974
105	260
106	190
107	10
