Mass Spectrum: Oxirane, 2-methyl-2-phenyl-
Formula: C9 H10 O
CAS: 2085-88-3
Molecular weight: 134
m/z	RELATIVE INTENSITY
14	10
15	40
17	10
18	50
26	40
27	450
28	130
29	90
30	10
31	10
32	10
36	10
37	50
38	130
39	691
40	50
41	70
42	30
43	1061
44	40
45	30
49	40
50	601
51	1541
52	360
53	160
54	20
55	60
56	20
57	20
58	20
61	60
62	170
63	490
64	90
65	370
66	80
67	10
68	10
73	40
74	250
75	210
76	260
77	2973
78	2602
79	1902
80	120
81	30
85	10
86	30
87	50
88	10
89	220
90	90
91	1441
92	270
93	10
94	10
97	10
98	30
99	10
101	50
102	390
103	3904
104	3583
105	9999
106	1001
107	60
108	10
109	70
115	130
116	30
117	70
118	80
119	230
120	40
121	30
131	10
132	20
133	7166
134	3633
135	340
136	20
