Mass Spectrum: 3-Methoxyphenoxyacetic acid
Formula: C9 H10 O4
CAS: 2088-24-6
Molecular weight: 182
Origin: NIST Mass Spectrometry Data Center
m/z	RELATIVE INTENSITY
12	100
14	530
15	1111
17	80
18	190
26	110
28	200
30	340
32	10
35	90
36	150
37	450
38	1672
39	2092
40	250
41	1261
42	611
44	210
45	621
50	1712
51	1942
52	2062
53	1081
54	170
55	330
60	40
61	310
62	911
63	3433
64	3413
65	1561
66	460
67	280
69	440
70	40
73	80
75	360
76	931
77	5795
78	1061
79	1101
80	911
81	1121
82	100
83	30
92	3533
93	641
94	1421
95	2382
96	200
105	601
107	5515
108	951
109	3023
110	310
111	80
121	80
122	190
124	2052
125	1792
126	130
134	70
135	430
137	4834
138	550
139	100
140	120
151	70
173	40
182	9999
183	1101
184	110
