Mass Spectrum: 1-(2-Naphthyl)-3-(2-thienyl)prop-2-en-1-one
Formula: C17 H12 O S
CAS: 20894-63-7
Molecular weight: 264
Origin: NIST Mass Spectrometry Data Center, 1994
m/z	RELATIVE INTENSITY
38	300
39	1396
40	82
44	64
45	861
50	657
51	1311
52	165
53	155
57	208
58	290
62	300
63	943
64	160
65	2239
66	166
69	728
70	133
71	95
74	516
75	1096
76	560
77	1711
78	173
81	102
82	247
83	221
86	165
87	318
88	106
89	134
95	131
96	87
97	90
98	197
99	192
100	198
101	1232
102	212
104	146
105	75
108	459
109	2969
110	358
111	296
115	113
116	81
117	467
118	329
125	132
126	1802
127	6173
128	1057
129	97
132	164
137	2812
138	253
139	280
150	108
151	198
152	1179
153	176
154	108
155	1450
156	232
163	127
164	122
165	285
166	53
176	111
177	63
178	138
179	53
180	4201
181	697
189	391
190	171
191	458
200	124
201	162
202	1315
203	1560
204	270
208	168
210	102
221	357
222	93
223	100
231	1225
232	337
233	131
234	877
235	3769
236	1462
237	357
245	121
246	76
247	407
248	96
249	68
263	1787
264	9999
265	1928
266	627
267	105
