Mass Spectrum: 3(2H)-Benzofuranone, 4,6-dimethyl-
Formula: C10 H10 O2
CAS: 20895-44-7
Molecular weight: 162
Origin: R.J.C. KLEIPOOL CENT. INST. NUTRIT., ZEIST, NETHERLANDS
m/z	RELATIVE INTENSITY
50	920
51	2400
52	870
53	880
54	110
55	170
56	70
57	160
58	50
61	180
62	720
63	2000
64	780
65	840
66	290
67	230
73	50
74	430
75	450
76	460
77	2400
78	1500
79	690
80	80
81	450
85	80
86	160
87	190
88	100
89	430
90	120
91	1400
92	160
93	40
101	120
102	650
103	2300
104	3900
105	3600
106	660
107	160
115	150
116	90
117	120
118	110
119	250
120	90
121	60
122	100
131	120
132	1600
133	9400
134	1100
135	130
145	160
147	420
148	170
149	40
160	40
161	1800
162	9999
163	1200
164	100
