Mass Spectrum: Naphtho[1,8-cd]-1,2-dithiole
Formula: C10 H6 S2
CAS: 209-22-3
Molecular weight: 190
Origin: J. Little, Eastman chemical company.
m/z	RELATIVE INTENSITY
38	190
39	340
45	460
50	390
51	290
61	270
62	460
63	591
69	911
74	591
75	450
76	320
82	380
87	310
88	260
93	490
94	260
95	1281
98	210
101	190
102	611
113	510
114	1401
115	160
117	130
120	140
126	370
144	100
145	1171
146	601
147	110
157	50
158	320
188	70
189	430
190	9999
191	1441
192	1111
193	130
