Mass Spectrum: Methyl 4-(p-chlorophenoxy)butyrate
Formula: C11 H13 Cl O3
CAS: 209052-80-2
Molecular weight: 228
Origin: NIST Mass Spectrometry Data Center, 1994
m/z	RELATIVE INTENSITY
4	18
12	20
13	24
15	2570
16	51
17	22
18	46
19	11
26	161
27	651
28	362
29	1293
30	133
31	305
32	14
33	15
35	26
36	23
37	106
38	380
39	1448
40	241
41	2469
42	1139
43	304
44	41
45	275
46	11
47	43
49	119
50	482
51	305
52	37
53	120
54	14
55	189
56	23
57	56
58	11
59	9999
60	329
61	152
62	233
63	861
64	321
65	570
66	82
67	37
68	14
69	1982
70	114
71	90
72	76
73	740
74	371
75	1189
76	252
77	266
78	44
79	52
85	209
87	45
89	40
91	111
92	76
93	66
97	20
99	1124
101	8718
102	551
103	113
104	15
105	34
111	819
112	98
113	372
114	37
115	49
116	12
119	41
125	57
127	507
128	2179
129	329
130	697
131	70
132	27
133	16
139	16
141	350
142	55
143	127
144	27
153	20
154	28
155	37
156	16
157	12
167	20
168	10
169	28
179	67
180	11
181	17
197	515
198	58
199	173
200	22
228	270
229	40
230	94
