Mass Spectrum: Ethanol, 2-[(2-methylpropyl)amino]-, 4-aminobenzoate (ester)
Formula: C13 H20 N2 O2
CAS: 2090-89-3
Molecular weight: 236
Origin: NIST Mass Spectrometry Data Center, 1990.
m/z	RELATIVE INTENSITY
14	43
27	153
28	635
29	320
30	802
32	83
38	52
39	368
40	65
41	575
42	239
43	320
44	735
52	89
53	56
54	89
55	162
56	1182
57	731
58	41
62	39
63	146
64	224
65	1317
66	151
68	57
70	118
72	69
77	33
82	96
84	772
86	2152
87	130
90	60
91	233
92	1464
93	143
97	146
99	2253
100	160
120	9999
121	780
122	46
137	278
163	105
164	159
193	737
194	83
