Mass Spectrum: 2,3,7,8,12,13,17,18-Octaethyl-21H,23H-porphine magnesium(II)
Formula: C36 H44 Mg N4
CAS: 20910-35-4
Molecular weight: 556
Origin: Japan AIST/NIMC Database- Spectrum MS-IW- 559
m/z	RELATIVE INTENSITY
26	10
27	30
41	10
43	10
44	10
55	10
57	10
69	10
71	10
83	10
127	20
128	50
185	10
186	10
191	20
192	30
193	10
196	10
197	50
198	80
199	70
200	20
203	60
204	159
205	239
206	139
207	40
208	10
209	60
210	199
211	379
212	459
213	239
214	70
215	30
216	119
217	299
218	639
219	719
220	419
221	139
222	60
223	129
224	289
225	559
226	829
227	639
228	239
229	70
230	90
231	139
232	289
233	769
234	989
235	439
236	99
237	40
238	50
239	109
240	389
241	1139
242	579
243	119
244	30
245	30
246	40
247	149
248	899
249	999
250	279
251	40
252	10
253	30
254	60
255	349
256	1299
257	379
258	30
259	10
260	20
261	30
262	119
263	1339
264	689
265	90
266	40
267	20
268	10
269	30
270	429
271	319
272	60
274	10
275	30
276	30
277	159
278	3219
279	859
280	50
285	50
286	20
408	10
409	10
410	20
411	10
419	10
420	10
421	30
422	40
423	50
424	40
425	30
426	10
427	10
432	10
433	30
434	50
435	80
436	149
437	149
438	119
439	70
440	40
441	20
442	10
443	10
444	10
445	20
446	30
447	60
448	70
449	109
450	169
451	239
452	229
453	159
454	99
455	50
456	20
457	10
458	20
459	20
460	30
461	40
462	40
463	60
464	90
465	139
466	269
467	319
468	229
469	119
470	60
471	30
472	20
473	20
474	10
475	20
476	20
477	30
478	40
479	90
480	139
481	399
482	459
483	289
484	139
485	60
486	30
488	20
489	10
490	20
491	20
492	20
493	30
494	70
495	159
496	439
497	499
498	309
499	139
500	60
501	20
502	10
503	10
504	10
505	20
506	20
507	30
508	30
509	90
510	149
511	719
512	609
513	339
514	139
515	50
516	30
518	10
520	30
521	20
522	40
523	40
524	90
525	149
526	849
527	559
528	399
529	159
530	70
531	10
532	60
533	40
534	30
535	40
536	20
537	40
538	30
539	139
540	149
541	1859
542	1289
543	659
544	249
545	60
546	20
549	20
550	90
551	60
552	119
553	80
554	599
555	479
556	9999
557	5279
558	2699
559	759
560	139
561	10
