Mass Spectrum: 2,3,4,5,6-Pentafluoro-N-(4-fluorophenyl)benzamide
Formula: C13 H5 F6 N O
CAS: 209109-65-9
Molecular weight: 305
Origin: Zaikin V.G., TIPS RAS, Moscow, Russia
m/z	RELATIVE INTENSITY
28	10
31	30
39	20
44	40
57	210
63	60
75	80
81	50
82	90
83	671
84	60
93	80
95	70
98	40
99	40
109	90
110	240
111	150
112	300
117	460
137	50
148	100
167	1872
168	200
176	40
194	40
195	9999
196	681
197	30
238	30
286	30
305	3483
306	480
307	30
