Mass Spectrum: 2,3,5,6-Tetrafluorophenyl isothiocyanate
Formula: C7 H F4 N S
CAS: 20925-31-9
Molecular weight: 207
Origin: NIST Mass Spectrometry Data Center, 1994
m/z	RELATIVE INTENSITY
20	28
26	27
28	63
31	2764
32	785
34	37
36	66
37	216
38	60
44	567
45	95
46	47
48	33
49	60
50	44
51	168
55	264
56	408
58	335
60	97
61	373
62	159
63	1206
64	34
65	50
68	372
69	914
70	2253
71	76
72	123
73	34
74	434
75	1549
76	178
79	559
80	716
81	183
82	224
86	378
87	399
88	39
91	32
92	111
93	811
94	363
99	4944
100	518
101	43
102	32
103	764
105	160
106	548
107	81
110	66
111	107
112	81
113	522
114	59
117	322
118	158
124	236
125	123
129	41
130	203
131	102
132	77
137	447
138	159
144	581
145	50
149	1739
150	131
156	84
157	257
162	136
163	363
164	37
175	3707
176	375
180	117
181	40
187	141
188	119
207	9999
208	893
209	477
210	37
