Mass Spectrum: 6-Methyl-6-hepten-4-yn-2-ol
Formula: C8 H12 O
CAS: 20937-57-9
Molecular weight: 124
Origin: NIST Mass Spectrometry Data Center, 1990.
m/z	RELATIVE INTENSITY
27	756
28	67
29	474
38	416
39	1591
40	384
41	672
42	157
43	1119
45	4808
50	763
51	1446
52	981
53	1185
54	226
55	200
61	165
62	458
63	1191
64	492
65	1365
69	167
74	284
75	136
77	3165
79	9999
80	9069
81	979
91	475
109	157
124	699
