Mass Spectrum: 1,3-Oxathiolane
Formula: C3 H6 O S
CAS: 2094-97-5
Molecular weight: 90
Origin: D.J.PASTO DEPT. OF CHEM., UNIV. OF NOTRE DAME, INDIANA, USA
m/z	RELATIVE INTENSITY
28	1100
29	1500
42	400
43	400
44	700
45	3800
46	800
47	800
59	3700
60	7800
61	2000
89	1700
90	9999
