Mass Spectrum: 1,3,6-Dioxathiocane
Formula: C5 H10 O2 S
CAS: 2094-92-0
Molecular weight: 134
Origin: J. E. CALIN
m/z	RELATIVE INTENSITY
27	1132
28	4906
29	2956
30	2201
31	943
45	2138
46	9999
47	818
59	1384
60	4528
61	6478
74	3019
75	881
76	566
90	692
104	3145
134	2956
