Mass Spectrum: Ethyl tellurac
Formula: C20 H40 N4 S8 Te
CAS: 20941-65-5
Molecular weight: 722
Origin: Japan AIST/NIMC Database- Spectrum MS-IW-6063
m/z	RELATIVE INTENSITY
14	10
15	50
25	20
26	169
27	749
28	929
29	1469
30	189
32	199
33	90
34	259
35	40
36	10
38	50
39	40
40	90
41	129
42	459
43	80
44	1859
45	149
46	30
47	30
51	20
52	40
53	20
54	169
55	259
56	719
57	90
58	239
59	799
60	2619
61	279
62	139
63	10
64	1049
65	40
66	90
67	30
68	30
69	80
70	139
71	199
72	1149
73	119
74	10
76	1099
77	569
78	109
79	50
80	20
81	40
82	40
83	30
84	50
85	20
86	339
87	1149
88	4429
89	259
90	199
91	129
92	90
93	50
94	10
95	40
96	30
97	30
98	80
99	10
100	70
101	10
104	40
105	10
106	10
107	10
108	10
109	10
110	10
111	30
112	20
113	50
114	70
115	20
116	9999
117	859
118	479
119	60
120	20
121	10
122	20
123	10
124	20
125	10
126	30
127	20
128	60
129	40
130	60
131	10
134	20
135	10
136	10
137	10
138	10
139	40
145	10
146	40
147	90
148	2569
149	679
150	279
151	60
152	20
153	10
155	10
156	10
157	20
158	40
159	20
160	60
161	10
162	50
163	10
166	10
168	90
169	10
171	10
175	10
177	30
178	10
180	30
192	20
196	10
200	20
202	10
203	60
204	40
205	60
206	60
207	20
208	70
209	20
210	60
211	40
212	90
213	30
214	40
220	10
232	50
233	10
241	10
248	20
249	10
250	60
251	50
252	139
253	99
254	259
255	99
256	399
257	20
258	379
259	10
260	209
261	10
264	119
265	10
266	20
268	10
270	99
271	40
272	199
273	299
274	769
275	99
276	1299
277	119
278	1439
279	129
280	129
281	20
282	10
283	10
284	10
285	20
286	10
287	10
288	10
289	10
296	509
297	80
298	90
299	10
300	10
302	10
303	20
305	30
307	40
308	10
310	10
312	20
314	30
316	20
318	10
350	10
351	10
352	119
353	20
354	60
355	10
356	20
357	149
358	20
359	279
360	40
361	159
362	20
363	20
402	10
404	10
418	50
419	20
420	109
421	159
422	419
423	80
424	719
425	99
426	799
427	119
428	129
429	20
430	10
500	10
505	779
506	119
507	139
508	20
509	10
