Mass Spectrum: Butanal, 2,2-dimethyl-
Formula: C6 H12 O
CAS: 2094-75-9
Molecular weight: 100
Origin: NIST Mass Spectrometry Data Center, 1990.
m/z	RELATIVE INTENSITY
14	38
15	205
16	13
18	28
26	241
27	2106
28	346
29	2580
30	61
31	62
37	89
38	232
39	1989
40	337
41	3077
42	61
43	9999
44	372
45	32
49	26
50	139
51	177
52	61
53	376
54	26
55	1188
56	131
57	351
58	18
65	29
67	60
69	118
71	3991
72	1472
73	60
85	46
100	100
