Mass Spectrum: Heptadecane, 7-methyl-
Formula: C18 H38
CAS: 20959-33-5
Molecular weight: 254
Origin: James Little, Eastman Chemical Co.
m/z	RELATIVE INTENSITY
27	440
28	400
29	1211
36	10
38	20
39	360
40	140
41	3193
42	831
43	5755
44	250
53	210
54	170
55	2062
56	1491
57	9999
58	450
67	270
68	210
69	1001
70	1221
71	7857
72	420
73	90
77	80
78	10
79	40
81	100
82	360
83	1071
84	751
85	2983
86	160
96	160
97	621
98	250
99	1001
100	60
110	50
111	430
112	2032
113	1051
114	50
125	90
126	80
127	270
139	50
140	450
141	220
168	1011
169	530
170	40
207	40
210	40
224	40
225	40
239	70
