Mass Spectrum: Methylselenoacetate
Formula: C3 H6 O Se
CAS: 209530-82-5
Molecular weight: 138
Origin: J.Tsai ET AL.J.Agr.Food Chem.,46,254(1998)
m/z	RELATIVE INTENSITY
35	160
36	100
39	130
40	100
41	400
42	661
43	9999
44	170
68	110
84	20
90	170
91	430
92	370
93	1511
94	691
95	1011
96	460
133	190
134	390
135	340
136	991
138	1882
140	420
