Mass Spectrum: p-Methoxybenzylidene p-decylaniline
Formula: C24 H33 N O
CAS: 209683-41-0
Molecular weight: 351
Origin: NIST Mass Spectrometry Data Center, 1994
m/z	RELATIVE INTENSITY
15	111
27	312
28	112
29	867
39	242
40	51
41	1086
42	132
43	1178
44	61
51	94
53	58
55	216
56	46
57	197
63	84
64	60
65	202
76	66
77	351
78	121
79	70
89	347
90	492
91	380
92	61
96	52
102	61
103	170
104	108
106	77
112	93
115	152
116	108
117	131
118	42
119	82
121	122
128	52
129	29
130	116
131	32
139	42
142	54
146	46
151	36
152	104
153	84
154	75
155	28
165	72
166	130
167	73
178	36
180	862
181	709
182	127
191	38
192	52
193	81
194	106
195	47
196	44
197	77
207	39
208	99
209	445
210	188
211	45
212	38
221	34
222	75
224	9999
225	3719
226	560
227	50
236	273
237	273
238	3419
239	1015
240	110
250	75
251	47
252	450
253	105
266	144
267	64
280	476
281	155
294	449
295	148
308	359
309	131
322	269
323	76
336	219
337	78
350	470
351	4824
352	1257
353	171
