Mass Spectrum: 3-Benzyloxyphenylacetonitrile
Formula: C15 H13 N O
CAS: 20967-96-8
Molecular weight: 223
Origin: NIST Mass Spectrometry Data Center, 1994
m/z	RELATIVE INTENSITY
26	53
27	144
28	26
29	25
37	59
38	226
39	1023
40	81
41	218
42	11
46	11
50	344
51	761
52	192
53	44
54	10
55	9
61	41
62	202
63	675
64	340
65	1799
66	119
73	9
74	66
75	93
76	184
77	749
78	194
79	22
82	6
86	22
87	24
89	412
91	9999
92	821
93	35
97	12
98	10
102	57
103	64
104	133
105	61
111	7
114	8
115	17
116	30
128	9
132	71
133	10
151	8
152	23
153	15
154	22
165	15
166	8
167	10
181	22
182	7
183	10
223	299
224	53
