Mass Spectrum: 5'-Chloro-2'-methoxy-2-methylvaleranilide
Formula: C13 H18 Cl N O2
CAS: 209683-34-1
Molecular weight: 255
Origin: NIST Mass Spectrometry Data Center, 1994
m/z	RELATIVE INTENSITY
4	23
14	22
15	517
16	35
17	6
18	41
26	130
27	2396
28	845
29	2732
30	124
32	18
35	19
36	31
37	51
38	153
39	1293
40	248
41	3296
42	606
43	9193
44	288
49	63
50	301
51	859
52	432
53	286
54	122
55	1276
56	176
57	43
60	24
61	72
62	200
63	632
64	166
65	340
66	92
67	91
68	24
69	553
70	24
71	4307
72	277
73	170
75	224
76	434
77	247
78	911
79	376
80	64
81	16
83	43
85	74
86	115
87	136
88	81
89	111
90	644
91	202
92	193
93	785
94	93
95	17
97	54
98	124
99	991
100	131
101	268
102	52
104	25
105	22
106	63
107	42
108	30
111	95
112	157
113	331
114	840
115	161
116	242
117	36
118	18
120	40
121	53
122	131
123	41
124	61
125	77
126	405
127	181
128	234
129	92
130	57
131	20
134	29
138	21
139	33
140	183
141	20
142	3592
143	341
144	1163
145	85
146	28
147	20
148	16
149	31
154	271
155	127
157	9999
158	975
159	3232
160	266
161	20
162	23
163	22
168	203
169	450
170	118
171	152
172	17
177	28
180	24
182	92
183	93
184	240
185	52
186	61
198	40
213	457
214	66
215	136
216	18
220	19
224	38
226	30
255	1501
256	219
257	460
258	69
