Mass Spectrum: 2,8,9-Trioxa-5-aza-1-silabicyclo[3.3.3]undecane, 1-ethyl-
Formula: C8 H17 N O3 Si
CAS: 2097-16-7
Molecular weight: 203
Origin: RADIAN CORP
m/z	RELATIVE INTENSITY
15	40
26	80
27	480
28	440
29	570
30	150
31	140
39	40
40	30
41	280
42	820
43	300
44	150
45	1390
46	90
47	270
48	10
52	10
53	20
54	250
55	190
56	760
57	200
58	170
59	210
60	80
61	150
62	220
63	720
64	50
65	30
67	20
68	160
69	60
70	210
71	260
72	150
74	400
75	230
76	120
77	220
78	40
79	140
80	20
81	20
82	50
83	20
84	60
85	90
86	400
88	460
89	680
90	340
91	210
92	40
93	60
94	30
96	20
97	20
98	130
99	80
100	590
101	320
102	670
103	380
104	380
105	340
106	60
107	60
112	140
113	100
114	380
115	260
116	640
117	690
118	990
119	270
120	110
121	30
126	20
127	40
128	210
129	180
130	1920
131	580
132	440
133	140
134	80
138	20
140	30
142	80
143	50
144	400
145	380
146	270
147	80
148	110
149	20
156	30
157	50
158	200
159	120
160	1150
161	200
162	60
172	630
174	9999
175	2010
176	730
177	60
188	60
202	40
203	510
204	80
205	30
