Mass Spectrum: 2,8,9-Trioxa-5-aza-1-silabicyclo[3.3.3]undecane, 1-phenyl-
Formula: C12 H17 N O3 Si
CAS: 2097-19-0
Molecular weight: 251
Origin: RADIAN CORP
m/z	RELATIVE INTENSITY
27	50
28	110
29	50
30	20
39	40
40	20
41	70
42	190
43	50
44	40
45	360
46	10
47	30
50	60
51	140
52	10
53	30
54	80
55	60
56	170
58	20
59	50
62	30
63	120
65	40
68	50
70	40
71	60
72	20
73	50
74	30
75	30
76	50
77	330
78	100
79	80
84	10
86	50
87	60
88	120
89	130
90	50
91	270
92	60
93	30
94	90
95	30
98	10
100	130
101	50
102	160
103	100
104	200
105	250
106	50
107	130
109	10
110	100
112	40
115	50
116	80
117	60
118	50
119	40
120	30
121	130
122	80
123	320
124	40
128	40
130	310
131	60
132	50
133	30
134	30
135	130
136	100
137	120
138	40
139	170
140	20
144	20
146	40
147	90
148	100
149	130
150	60
151	40
153	50
160	20
161	20
162	100
163	230
164	70
165	110
166	40
167	20
172	200
174	9999
175	1300
176	510
177	110
178	290
179	140
180	30
190	30
192	50
193	50
194	30
206	50
207	40
208	150
209	20
220	180
221	60
251	550
252	100
253	20
