Mass Spectrum: 4-Pentenal
Formula: C5 H8 O
CAS: 2100-17-6
Molecular weight: 84
m/z	RELATIVE INTENSITY
13	30
14	120
15	340
17	60
18	230
19	40
25	60
26	721
27	4224
28	2702
29	5445
30	150
31	300
32	100
36	20
37	280
38	540
39	4664
40	711
41	6136
42	2532
43	2022
44	1331
45	1081
46	30
48	20
49	130
50	510
51	561
52	190
53	1571
54	651
55	9999
56	5515
57	1021
58	170
59	20
60	40
61	50
62	50
63	50
65	280
66	410
67	160
68	160
69	1181
70	80
71	20
72	30
73	10
75	200
76	10
77	30
79	10
81	70
82	30
83	2893
84	1491
85	130
86	30
