Mass Spectrum: Benzene, 1-azido-4-methyl-
Formula: C7 H7 N3
CAS: 2101-86-2
Molecular weight: 133
Origin: TEXAS A&M UNIVERSITY, COLLEGE STATION, TEXAS, USA
m/z	RELATIVE INTENSITY
26	632
27	1105
28	1368
37	579
38	947
39	2474
40	211
41	632
49	421
50	2105
51	2842
52	2947
53	632
54	211
61	421
62	737
63	1526
64	737
65	2263
66	368
69	684
74	368
75	579
76	632
77	2737
78	5789
79	1211
90	526
91	737
103	368
104	5789
105	9999
106	1632
107	632
119	263
120	158
131	211
133	3684
134	316
