Mass Spectrum: Methanimidamide, N'-(4-chlorophenyl)-N,N-dimethyl-
Formula: C9 H11 Cl N2
CAS: 2103-46-0
Molecular weight: 182
Origin: H.F.GRUTZMACHER HAMBURG UNIVERSITY, HAMBURG, F.R.G
m/z	RELATIVE INTENSITY
28	140
30	530
39	60
41	70
42	640
45	500
50	230
51	170
57	240
58	230
63	70
64	50
73	1010
74	110
75	710
76	190
77	170
85	80
90	110
91	290
92	110
99	60
102	70
104	70
105	50
106	60
111	1790
112	200
113	650
114	60
125	290
126	50
127	140
128	190
131	100
132	90
136	50
138	1530
139	300
140	2300
141	250
142	640
143	60
146	60
152	60
153	80
154	780
155	100
156	260
163	60
165	100
166	220
167	2310
168	290
169	770
170	70
177	130
178	350
179	50
181	2860
182	9999
183	1910
184	3200
185	360
