Mass Spectrum: Pyrido[3,4-d]pyrimidine-2,4(1H,3H)-dione
Formula: C7 H5 N3 O2
CAS: 21038-67-5
Molecular weight: 163
Origin: D.G.WIBBERLEY UNIV. OF ASTON IN BIRMINGHAM, BIRMINGHAM, UK
m/z	RELATIVE INTENSITY
43	500
44	500
45	200
50	400
52	500
60	400
63	200
64	1100
65	1300
66	400
67	200
91	400
92	1200
93	3300
94	200
119	200
120	4300
121	500
147	400
163	9999
164	1100
