Mass Spectrum: Methanimidamide, N,N-dimethyl-N'-(3-nitrophenyl)-
Formula: C9 H11 N3 O2
CAS: 2103-47-1
Molecular weight: 193
Origin: H.F.GRUTZMACHER HAMBURG UNIVERSITY, HAMBURG, F.R.G
m/z	RELATIVE INTENSITY
27	70
28	250
30	875
32	50
39	160
41	130
42	2170
43	210
44	4370
45	670
46	80
50	470
51	220
52	70
57	610
63	200
64	160
65	125
66	80
71	50
74	130
75	440
76	950
78	130
79	120
80	60
81	310
90	170
91	240
92	270
93	110
94	90
103	485
104	375
105	360
106	270
107	90
116	60
117	80
118	110
119	250
120	140
122	280
131	485
132	980
133	150
134	50
135	80
136	60
145	170
146	1530
147	520
148	70
149	1050
150	120
151	1735
152	160
160	90
161	75
162	80
163	200
164	230
165	1380
166	160
176	830
177	150
178	2840
179	310
190	50
191	70
192	3940
193	9999
194	1130
195	100
