Mass Spectrum: 2-Amino-4-(4-nitrophenyl)thiazole
Formula: C9 H7 N3 O2 S
CAS: 2104-09-8
Molecular weight: 221
Origin: Japan AIST/NIMC Database- Spectrum MS-IW-6918
m/z	RELATIVE INTENSITY
26	20
27	169
28	169
29	10
30	80
31	10
32	20
33	10
34	50
37	10
38	40
39	169
40	10
41	10
42	20
43	70
44	40
45	309
46	60
47	20
49	10
50	159
51	149
52	40
53	20
55	10
57	20
58	20
59	10
60	80
61	30
62	109
63	409
64	60
65	40
66	30
67	10
69	159
70	40
71	40
72	10
73	60
74	129
75	159
76	179
77	209
78	30
79	10
81	50
82	139
83	40
84	10
85	20
86	30
87	149
88	80
89	1939
90	189
91	40
92	20
93	119
94	30
95	30
96	10
97	10
98	10
99	10
100	10
101	20
102	70
103	169
104	289
105	40
106	30
107	30
108	20
109	10
114	40
115	60
116	99
117	109
118	50
119	50
120	70
121	469
122	109
123	30
124	10
128	20
129	40
130	30
131	119
132	159
133	759
134	239
135	70
136	70
137	10
141	30
142	229
143	30
146	139
147	80
148	519
149	429
150	90
151	20
158	40
159	50
160	10
161	10
162	10
163	279
164	40
165	20
173	40
174	259
175	2879
176	369
177	159
178	20
179	80
180	10
190	10
191	849
192	99
193	40
194	10
203	20
204	10
205	109
206	10
221	9999
222	1219
223	559
224	50
