Mass Spectrum: Benzene, 1,2,4-trifluoro-5-nitro-
Formula: C6 H2 F3 N O2
CAS: 2105-61-5
Molecular weight: 177
Origin: Japan AIST/NIMC Database- Spectrum MS-NW-9951
m/z	RELATIVE INTENSITY
20	30
28	199
30	4219
31	909
32	10
36	30
37	229
38	50
44	70
45	10
46	209
48	10
49	50
50	219
51	279
52	10
55	90
56	279
57	399
58	10
60	40
61	689
62	759
63	80
64	20
67	10
68	399
69	699
70	30
71	10
72	20
73	50
74	209
75	1019
76	99
77	10
79	189
80	789
81	9999
82	579
83	10
85	20
86	189
87	199
88	30
91	159
92	209
93	269
94	119
95	109
97	30
98	40
99	579
100	139
101	20
105	30
106	20
110	50
111	189
112	299
113	50
117	10
118	80
119	3539
120	199
126	20
127	20
128	10
129	20
130	619
131	6819
132	459
133	10
135	10
144	10
145	40
146	10
147	2499
148	169
149	60
158	10
159	20
161	699
162	50
163	10
177	9699
178	679
179	60
