Mass Spectrum: 3-Nonanol, 3-methyl-
Formula: C10 H22 O
CAS: 21078-72-8
Molecular weight: 158
Origin: NIST Mass Spectrometry Data Center, 1990.
m/z	RELATIVE INTENSITY
15	110
27	1113
28	628
29	1526
31	278
32	79
39	665
40	160
41	1841
42	383
43	3160
44	144
45	1040
53	221
55	3186
56	272
57	836
58	382
59	430
67	153
69	2993
70	816
71	637
72	153
73	9999
74	445
83	420
85	287
111	152
129	1802
130	166
140	74
143	569
