Mass Spectrum: 5-Tetradecanol
Formula: C14 H30 O
CAS: 21078-83-1
Molecular weight: 214
Origin: NIST Mass Spectrometry Data Center, 1990.
m/z	RELATIVE INTENSITY
27	1198
28	815
29	2624
31	411
39	819
41	5188
42	1022
43	3453
44	672
45	594
53	289
54	385
55	3880
56	934
57	4030
58	979
59	182
67	525
69	9999
70	1025
71	987
72	178
81	449
83	5287
84	591
85	740
86	826
87	5230
88	315
95	222
96	308
97	2354
98	287
100	179
101	125
110	168
111	329
112	148
113	120
125	123
155	247
157	1377
158	196
196	356
