Mass Spectrum: 5,6-Dimethoxy-1-indanone
Formula: C11 H12 O3
CAS: 2107-69-9
Molecular weight: 192
Origin: J.E. WILKINSON S-CUBED, SAN DIEGO, CA.
m/z	RELATIVE INTENSITY
40	59
41	85
42	154
43	148
44	75
45	24
49	48
50	1154
51	1363
52	574
53	614
54	17
55	455
56	7
57	7
59	11
61	124
62	519
63	1120
64	487
65	633
66	129
67	90
69	32
73	33
74	328
75	371
76	542
77	2653
78	1711
79	475
80	15
81	21
82	41
85	7
86	42
87	53
88	29
89	790
90	281
91	1807
92	739
93	669
94	42
95	13
96	146
98	8
101	36
102	333
103	1226
104	175
105	499
106	998
107	2901
108	186
117	46
118	186
119	396
120	86
121	2764
122	230
129	4
130	10
131	454
132	138
133	204
134	278
135	1060
136	380
137	16
145	34
146	24
147	263
148	118
149	2120
150	174
151	5
161	243
162	527
163	251
164	985
165	130
175	33
176	99
177	2820
178	261
179	8
190	7
191	318
192	9999
193	1141
194	88
