Mass Spectrum: 1,2,4-Oxadiazol-3(2H)-one, 5-phenyl-
Formula: C8 H6 N2 O2
CAS: 21084-84-4
Molecular weight: 162
Origin: A. SHOEB
m/z	RELATIVE INTENSITY
51	3000
77	6000
91	900
103	4000
104	9999
105	4300
119	2600
162	9800
