Mass Spectrum: Benzoic acid, 4-methyl-, (4-methylphenyl)methyl ester
Formula: C16 H16 O2
CAS: 21086-87-3
Molecular weight: 240
m/z	RELATIVE INTENSITY
69	10
70	10
71	10
72	10
73	10
74	70
75	90
76	90
77	1291
78	591
79	681
80	40
81	10
82	10
83	10
84	10
85	10
86	30
87	40
88	30
89	470
90	310
91	2692
92	290
93	260
94	20
95	10
96	10
97	10
98	10
99	10
101	30
102	110
103	771
104	1341
105	8077
106	721
107	50
108	10
111	10
112	10
113	10
115	10
116	10
117	10
118	50
119	9999
120	991
121	771
122	70
123	10
125	10
126	10
127	10
128	10
129	10
131	10
132	10
133	20
134	10
135	30
136	10
137	10
139	10
140	10
141	10
142	10
143	10
147	10
148	60
149	30
150	10
151	10
152	10
153	20
154	10
155	10
163	10
164	10
165	40
166	40
167	10
168	10
176	10
177	10
178	20
179	40
180	30
181	60
182	30
183	10
195	60
196	30
197	10
205	10
206	10
207	60
208	20
209	10
210	10
211	10
221	10
222	260
223	50
224	10
225	120
226	20
227	10
238	20
239	20
240	2742
241	480
242	50
