Mass Spectrum: 3,4'-di(Trifluoromethyl)benzophenone
Formula: C15 H8 F6 O
CAS: 21084-22-0
Molecular weight: 318
Origin: NIST Mass Spectrometry Data Center, 1994
m/z	RELATIVE INTENSITY
18	33
27	24
38	72
39	116
50	833
51	396
53	29
57	273
62	90
63	97
68	46
69	431
70	26
73	30
74	331
75	1347
76	371
77	86
80	28
81	113
85	31
86	34
87	54
88	26
93	51
94	146
95	1517
96	109
99	237
100	107
101	51
105	24
106	30
107	116
110	21
111	20
118	27
119	167
120	51
123	39
125	994
126	499
127	51
143	121
145	6697
146	499
149	36
150	28
151	36
152	70
154	28
168	17
169	35
170	41
173	9999
174	997
175	80
181	21
193	21
199	41
201	184
202	46
219	93
220	74
221	25
249	328
250	63
251	40
269	72
271	151
272	22
290	51
299	1182
300	201
301	20
318	3960
319	642
320	58
