Mass Spectrum: Cyclohexane, 1,1-dichloro-
Formula: C6 H10 Cl2
CAS: 2108-92-1
Molecular weight: 152
Origin: A.CAMBON LAB. OF STRUCTURAL CHEM., UNIV. OF NICE, NICE, FRANCE
m/z	RELATIVE INTENSITY
28	400
29	200
39	1600
41	5200
53	900
54	700
55	700
56	700
65	700
80	900
81	9999
82	1400
88	700
90	200
116	700
117	3000
118	700
119	1100
