Mass Spectrum: Perhydroanthracene, (4a.alpha., 8a.alpha., 9a.alpha., 10a.beta.)-
Formula: C14 H24
CAS: 2109-05-9
Molecular weight: 192
m/z	RELATIVE INTENSITY
53	990
54	790
55	2902
56	640
57	870
68	1501
69	980
76	4904
77	710
79	1901
80	1101
81	4103
82	1000
83	760
91	660
93	1701
94	1401
95	2802
96	4604
97	1601
107	730
108	910
109	720
110	920
111	440
121	3302
122	1000
123	1000
135	9999
136	1501
149	1000
150	2001
163	710
164	350
177	170
192	8607
193	1321
194	91
