Mass Spectrum: 4-(2-Hydroxypropyl)morpholine
Formula: C7 H15 N O2
CAS: 2109-66-2
Molecular weight: 145
Origin: NIST Mass Spectrometry Data Center
m/z	RELATIVE INTENSITY
14	20
15	561
18	40
19	90
26	60
27	510
28	1011
29	851
30	410
31	320
38	10
39	140
40	50
41	651
42	1501
43	1051
44	390
45	510
46	10
51	10
52	20
53	10
54	140
55	120
56	2012
57	210
58	210
59	70
60	10
67	10
68	50
69	40
70	761
71	100
72	340
73	20
82	30
83	10
84	40
85	40
86	80
87	10
96	10
98	70
100	9999
101	601
102	60
111	10
112	10
114	10
126	30
128	40
130	380
131	30
144	50
145	420
146	30
