Mass Spectrum: Benzene, 1,1'-cyclohexylidenebis-
Formula: C18 H20
CAS: 21113-55-3
Molecular weight: 236
Origin: CARL DJERASSI DEPT OF CHEM STANFORD UNIV STANFORD CALIF 94305
m/z	RELATIVE INTENSITY
41	101
77	202
89	101
91	2020
92	101
102	101
103	202
104	101
115	2323
116	303
117	303
128	303
129	404
130	909
143	303
151	101
152	404
153	101
154	101
158	101
159	202
165	1919
166	404
167	2727
168	505
177	101
178	1919
179	1515
180	3030
181	404
189	101
191	404
192	404
193	9798
194	1818
195	101
205	202
206	303
207	101
234	1111
235	404
236	9999
237	2020
238	101
