Mass Spectrum: Benzene, 2-(1,1-dimethylethyl)-1,4-dimethoxy-
Formula: C12 H18 O2
CAS: 21112-37-8
Molecular weight: 194
Origin: NIST Mass Spectrometry Data Center
m/z	RELATIVE INTENSITY
15	130
26	20
27	90
28	30
29	130
30	10
31	10
33	10
37	10
38	30
39	320
40	50
41	460
42	30
43	160
45	40
46	10
50	100
51	370
52	160
53	330
54	120
55	280
56	20
57	150
58	10
59	40
60	10
61	10
62	80
63	280
64	140
65	480
66	110
67	160
68	20
69	50
71	10
73	10
74	60
75	410
77	1231
78	450
79	480
80	70
81	60
82	110
83	110
85	10
86	10
87	20
89	290
91	1531
92	320
93	290
94	100
95	100
96	20
97	30
98	10
101	20
102	100
103	510
104	180
105	470
106	110
107	290
108	270
109	200
110	20
111	10
114	10
115	480
116	150
117	210
118	100
119	360
120	160
121	1842
122	220
123	330
124	480
125	50
126	10
127	30
128	50
129	40
130	20
131	230
132	130
133	210
134	100
135	300
136	641
137	240
138	500
139	571
140	50
144	10
145	40
146	60
147	250
148	220
149	1241
150	160
151	2873
152	300
153	30
161	50
162	30
163	230
164	4374
165	500
166	50
177	20
179	9999
180	1171
181	110
182	10
192	10
194	4494
195	591
196	50
