Mass Spectrum: Gibbane-1,10-dicarboxylic acid, 4a-hydroxy-1-methyl-8-methylene-, 1,4a-lactone, 10-methyl ester, (1.alpha.,4a.alpha.,4b.beta.,10.beta.)-
Formula: C20 H26 O4
CAS: 2112-08-5
Molecular weight: 330
Origin: J.MACMILLAN UNIVERSITY OF BRISTOL, UK
m/z	RELATIVE INTENSITY
26	300
27	1400
28	650
29	1700
30	200
31	400
39	1700
40	400
41	5400
42	400
43	2000
44	700
45	500
51	600
52	200
53	1800
54	200
55	3900
56	300
57	600
58	100
59	1500
63	300
64	200
65	1600
66	300
67	2000
68	500
69	1300
70	200
71	500
73	200
74	100
75	200
76	100
77	3000
78	1200
79	3500
80	600
81	1800
82	500
83	500
84	300
85	500
87	200
89	200
90	200
91	5100
92	1400
93	2100
94	500
95	2200
96	400
97	400
98	400
99	400
101	200
102	200
103	800
104	600
105	2800
106	600
107	800
108	400
109	400
110	300
111	400
112	200
113	300
114	300
115	1700
116	700
117	2400
118	700
119	1400
120	500
121	800
122	200
123	200
125	300
127	500
128	1800
129	2800
130	1500
131	2200
132	700
133	1100
134	300
135	400
136	200
137	300
141	1500
142	900
143	1900
144	800
145	1900
146	500
147	500
149	400
151	200
152	300
153	500
154	500
155	1700
156	1100
157	1600
158	1000
159	3500
160	500
161	300
162	300
163	400
164	200
165	400
166	400
167	400
168	500
169	1700
170	800
171	1300
172	400
173	300
175	200
177	200
178	300
179	300
180	200
181	400
182	400
183	2500
184	800
185	1200
186	500
187	200
189	200
190	200
191	200
195	200
196	200
197	1100
198	700
199	700
200	200
201	200
202	200
203	500
204	300
205	300
206	100
207	200
209	500
210	200
211	1500
212	400
213	300
214	200
215	300
216	100
217	2800
218	1500
219	500
223	200
224	700
225	1900
226	4800
227	4900
228	900
229	500
230	300
231	200
241	300
242	1600
243	4300
244	1000
245	500
246	300
247	100
252	100
253	200
255	200
256	100
257	300
258	200
259	100
269	200
270	7900
271	3300
272	300
283	500
284	300
285	1500
286	500
297	300
298	9999
299	2800
300	500
330	700
331	100
