Mass Spectrum: 1,2-Tetradecanediol
Formula: C14 H30 O2
CAS: 21129-09-9
Molecular weight: 230
Origin: Japan AIST/NIMC Database- Spectrum MS-NW-8959
m/z	RELATIVE INTENSITY
15	30
17	30
18	109
27	189
28	129
29	709
30	20
31	229
32	20
33	20
39	129
40	30
41	1859
42	359
43	2969
44	349
45	149
47	10
53	109
54	299
55	4449
56	609
57	4199
58	279
59	80
60	159
61	1089
62	30
65	20
66	119
67	929
68	659
69	6239
70	649
71	1739
72	139
73	60
74	20
75	60
76	40
77	40
79	80
80	60
81	929
82	1149
83	6309
84	579
85	1309
86	119
87	50
89	40
91	10
93	30
94	40
95	749
96	939
97	6639
98	609
99	529
100	60
101	40
107	10
108	20
109	389
110	319
111	4579
112	499
113	129
114	50
115	50
117	20
121	10
122	10
123	219
124	209
125	2459
126	289
127	40
128	10
129	40
136	10
137	129
138	139
139	429
140	70
141	20
142	10
143	30
144	10
145	10
149	10
151	50
152	119
153	90
154	129
155	90
156	20
157	40
165	40
166	129
167	20
168	20
169	10
170	20
171	139
172	20
173	10
179	10
180	259
181	139
182	20
183	20
184	20
185	70
186	10
193	10
194	149
195	30
196	10
197	119
198	259
199	9999
200	1439
201	119
211	10
212	10
213	30
227	169
228	30
229	20
