Mass Spectrum: 1,1'-Biphenyl, 3-nitro-
Formula: C12 H9 N O2
CAS: 2113-58-8
Molecular weight: 199
Origin: NIST Mass Spectrometry Data Center, 1992
m/z	RELATIVE INTENSITY
15	9
16	6
17	12
18	44
26	71
27	239
28	174
29	6
30	683
37	58
38	166
39	506
40	22
41	18
46	141
50	795
51	1113
52	198
53	39
55	12
56	5
57	17
61	121
62	387
63	1021
64	114
65	107
66	9
70	19
71	8
72	7
74	764
75	933
76	1717
77	902
78	112
79	10
83	4
84	12
85	72
86	241
87	345
88	142
89	189
90	18
91	45
92	7
98	246
99	227
100	151
101	267
102	445
103	74
104	9
105	17
109	21
110	62
111	64
112	24
113	148
114	110
115	826
116	99
117	10
121	16
122	52
123	27
124	24
125	169
126	906
127	848
128	93
129	8
137	22
139	260
141	1188
142	157
143	15
146	8
147	6
150	951
151	3080
152	9999
153	6211
154	683
155	52
164	10
165	6
166	25
167	17
168	30
169	28
170	12
181	8
183	18
184	6
195	7
199	8927
200	1130
201	105
202	8
