Mass Spectrum: 1,1'-Biphenyl, 3-bromo-
Formula: C12 H9 Br
CAS: 2113-57-7
Molecular weight: 232
Origin: NIST Mass Spectrometry Data Center, 1998.
m/z	RELATIVE INTENSITY
26	30
27	70
37	30
38	100
39	250
49	40
50	660
51	760
52	140
53	20
55	10
61	130
62	360
63	1120
65	50
69	10
73	70
74	690
75	1000
76	2910
78	90
79	20
80	10
81	20
82	10
84	10
85	80
86	250
87	330
88	130
89	110
90	30
91	20
97	30
98	290
99	230
100	110
101	320
102	410
103	90
104	40
105	10
106	10
109	30
110	80
111	80
112	20
113	170
114	130
115	110
116	340
117	330
119	10
120	10
121	20
122	70
123	30
124	30
125	200
126	980
127	790
128	100
129	10
130	10
131	10
137	20
138	20
139	10
143	10
146	10
149	70
150	980
151	2870
152	9999
153	2960
154	320
155	30
157	10
180	10
182	10
193	10
195	10
206	10
208	10
232	7989
233	1090
234	7679
235	1010
236	60
