Mass Spectrum: Acetamide, N-(1,1'-biphenyl)-2-yl-
Formula: C14 H13 N O
CAS: 2113-47-5
Molecular weight: 211
Origin: Japan AIST/NIMC Database- Spectrum MS-NW-9810
m/z	RELATIVE INTENSITY
15	50
27	20
28	10
38	20
39	129
40	10
41	20
42	10
43	799
44	10
50	50
51	119
52	40
62	50
63	159
64	40
65	70
66	10
69	20
70	20
74	40
75	70
76	90
77	119
78	30
82	10
83	40
84	10
86	20
87	40
88	40
89	129
90	30
91	30
98	10
99	10
100	10
101	30
102	50
103	20
113	60
114	60
115	299
116	50
117	20
126	40
127	70
128	60
129	10
130	20
137	10
138	20
139	359
140	229
141	189
142	40
143	99
144	10
150	30
151	99
152	159
153	50
154	119
155	10
164	20
165	40
166	449
167	2039
168	5149
169	9999
170	1319
171	80
177	10
178	50
179	10
180	30
182	20
194	20
195	20
196	60
210	10
211	5509
212	899
213	70
