Mass Spectrum: Phthalimide, N-(2-bromopropyl)-
Formula: C11 H10 Br N O2
CAS: 21134-25-8
Molecular weight: 267
Origin: NIST Mass Spectrometry Data Center, 1994
m/z	RELATIVE INTENSITY
14	23
15	78
18	27
26	170
27	833
28	347
29	135
37	65
38	170
39	554
40	93
41	719
42	149
43	30
44	11
50	1322
51	477
52	227
53	68
54	83
55	33
56	122
57	12
58	43
61	22
62	47
63	116
64	81
65	46
66	220
70	53
71	9
72	137
73	85
74	574
75	695
76	2281
77	1257
78	121
79	27
80	24
81	31
82	23
85	10
87	38
88	26
89	82
90	137
91	38
92	25
93	20
94	32
102	338
103	241
104	1414
105	669
106	79
107	66
108	10
109	63
114	11
115	41
116	49
117	53
118	17
120	14
122	12
128	11
130	1051
131	136
132	171
133	774
134	66
142	14
143	29
145	23
146	12
148	298
149	30
157	10
158	48
160	9999
161	1018
162	96
169	69
170	16
173	14
183	7
186	31
188	1048
189	150
190	13
267	800
268	141
269	795
270	106
271	11
