Mass Spectrum: Benzene, (2-bromopropyl)-
Formula: C9 H11 Br
CAS: 2114-39-8
Molecular weight: 198
Origin: Japan AIST/NIMC Database- Spectrum MS-NW-9935
m/z	RELATIVE INTENSITY
26	20
27	159
28	10
37	10
38	50
39	459
40	40
41	549
42	20
43	10
49	10
50	209
51	529
52	119
53	30
57	229
58	179
59	60
61	20
62	90
63	259
64	60
65	559
66	40
73	10
74	70
75	60
76	70
77	389
78	289
79	129
80	20
81	10
82	20
85	10
86	20
87	20
88	10
89	209
90	99
91	9999
92	879
93	30
98	10
99	10
101	10
102	80
103	209
104	209
105	229
106	20
107	20
109	10
115	379
116	90
117	629
118	439
119	3539
120	359
121	10
169	20
171	20
198	1359
199	139
200	1319
201	129
