Mass Spectrum: Santolina alcohol
Formula: C10 H18 O
CAS: 21149-19-9
Molecular weight: 154
Origin: W.Epstein ET AL.J.Chem.Eng.Data,21,500(1976)
m/z	RELATIVE INTENSITY
41	3773
42	400
43	7627
45	270
50	420
51	1081
52	460
53	2022
54	771
55	2002
56	400
57	420
58	1191
59	9999
65	1121
66	400
67	2883
68	460
69	1692
77	4544
78	731
79	6256
80	771
81	7086
82	731
91	3023
92	460
93	2983
94	1331
95	1461
96	4354
97	621
98	60
105	1381
106	230
107	771
108	270
121	1712
122	210
136	270
139	330
