Mass Spectrum: Trifluoroacetamide, 2TMS derivative
Formula: C8 H18 F3 N O Si2
CAS: 21149-38-2
Molecular weight: 257
Origin: RADIAN CORP
m/z	RELATIVE INTENSITY
15	60
27	50
29	70
30	10
41	10
42	60
43	540
44	260
45	1360
46	100
47	220
49	140
50	10
53	40
54	30
55	100
56	80
57	120
58	170
59	270
60	30
61	30
62	30
63	130
68	10
69	60
70	350
71	90
72	720
73	9999
74	880
75	420
76	80
77	1280
78	100
79	60
81	50
85	40
86	50
87	60
89	40
90	20
91	20
99	10
100	840
101	90
102	40
103	40
104	40
105	30
113	10
114	10
115	30
117	30
122	20
131	80
133	40
135	20
147	210
148	40
149	20
151	30
176	40
188	1470
189	270
190	120
192	1410
193	240
194	110
242	190
243	30
244	10
257	180
258	40
