Mass Spectrum: Cyclohexane, 2-propenyl-
Formula: C9 H16
CAS: 2114-42-3
Molecular weight: 124
Origin: Japan AIST/NIMC Database- Spectrum MS-NW-6804
m/z	RELATIVE INTENSITY
15	40
26	60
27	879
28	99
29	709
30	10
36	30
37	30
38	70
39	1439
40	209
41	4239
42	229
43	369
44	20
45	10
50	70
51	189
52	109
53	609
54	759
55	9999
56	519
57	40
58	10
62	20
63	50
64	10
65	179
66	219
67	2199
68	479
69	179
70	10
74	10
75	10
77	179
78	50
79	299
80	209
81	1059
82	6289
83	9829
84	649
85	20
91	50
93	30
94	20
95	209
96	699
97	50
109	60
123	20
124	639
125	70
