Mass Spectrum: Benzyl(chloro)mercury
Formula: C7 H7 Cl Hg
CAS: 2117-39-7
Molecular weight: 328
Origin: Institute of Organic Chemistry, Novosibirsk, USSR 1988
m/z	RELATIVE INTENSITY
38	319
39	369
40	89
41	209
45	69
50	419
51	569
52	199
61	109
62	399
63	889
64	269
65	1399
77	39
89	739
90	809
91	2099
92	789
198	3099
199	5599
200	7699
201	4299
202	9999
204	2099
233	279
234	569
235	849
236	569
237	1299
239	469
324	1899
325	3199
326	5099
327	3799
328	7099
329	1299
330	2999
