Mass Spectrum: 4-Pentyn-2-ol
Formula: C5 H8 O
CAS: 2117-11-5
Molecular weight: 84
Origin: Japan AIST/NIMC Database- Spectrum MS-NW-4197
m/z	RELATIVE INTENSITY
13	10
14	60
15	299
17	10
18	80
19	40
25	20
26	80
27	1089
28	99
29	629
30	20
31	80
32	20
34	10
36	20
37	219
38	419
39	1729
40	1289
41	1259
42	149
43	1569
44	129
45	9999
46	219
47	20
49	30
50	90
51	109
52	20
53	30
55	20
56	99
57	10
61	40
62	50
63	60
65	119
66	50
67	50
68	10
69	459
70	20
83	20
