Mass Spectrum: Pentanedioic acid, 2,4-dimethyl-, dimethyl ester
Formula: C9 H16 O4
CAS: 2121-68-8
Molecular weight: 188
Origin: L.E. Slivon, Battelle Columbus Laboratories, Columbus, Ohio 43201
m/z	RELATIVE INTENSITY
40	499
41	5415
42	1134
43	1354
44	143
45	882
46	62
47	15
48	43
49	54
50	81
51	163
52	77
53	809
54	182
55	2814
56	4115
57	2123
58	182
59	8781
60	313
61	66
62	62
63	58
64	54
65	182
66	58
67	650
68	425
69	9999
70	839
71	174
72	313
73	4806
74	329
75	81
76	50
77	31
78	15
79	31
81	224
82	66
83	74
84	4
85	340
86	205
87	777
88	4492
89	232
90	46
91	19
92	8
94	19
95	193
96	398
97	1250
98	139
99	116
100	81
101	2372
102	321
108	31
109	12
110	8
111	46
112	50
113	4535
114	1157
115	66
119	4
124	46
126	77
127	135
128	8142
129	4356
130	395
131	39
139	39
141	35
142	39
146	197
151	27
155	46
156	635
157	2231
158	228
159	19
168	8
171	35
185	12
187	4
