Mass Spectrum: Benzamide, 2-fluoro-N-(4-methoxyphenyl)-
Formula: C14 H12 F N O2
CAS: 212209-96-6
Molecular weight: 245
Origin: Zaikin V.G., TIPS RAS, Moscow, Russia
m/z	RELATIVE INTENSITY
28	10
39	30
41	60
50	40
51	50
52	100
53	60
63	40
64	30
65	50
69	30
75	250
76	30
77	30
78	30
79	50
80	60
94	70
95	1471
96	140
106	30
107	60
108	50
109	60
122	530
123	9999
124	971
125	60
134	20
244	30
245	5475
246	751
247	70
