Mass Spectrum: Phenol, 4-methyl-2-(1-piperidinylmethyl)-
Formula: C13 H19 N O
CAS: 21236-74-8
Molecular weight: 205
Origin: Chuck Anderson, Aldrich Chemical Co.
m/z	RELATIVE INTENSITY
15	33
18	15
26	57
27	393
28	615
29	523
30	443
31	21
32	8
36	13
37	7
38	40
39	400
40	74
41	577
42	615
43	337
44	500
45	26
46	4
50	48
51	153
52	91
53	174
54	99
55	357
56	615
57	398
58	25
59	6
60	11
61	10
62	20
63	88
64	36
65	364
66	60
67	105
68	104
69	101
70	301
71	16
73	16
74	43
75	37
76	24
77	896
78	187
79	97
80	61
81	36
82	178
83	107
84	9999
85	1883
86	125
88	14
89	73
90	28
91	1286
92	337
93	141
94	32
95	6
96	40
97	97
98	951
99	66
102	98
103	58
104	32
105	88
106	33
107	187
108	23
109	15
115	11
116	11
117	18
118	25
119	78
120	273
121	1431
122	412
123	33
130	9
131	10
132	45
133	49
134	156
135	47
136	15
144	5
145	21
146	42
147	17
148	133
149	39
150	30
158	1
159	1
160	94
161	15
162	187
163	30
164	6
174	5
176	52
177	5
186	11
188	131
189	15
190	43
202	12
203	23
204	697
205	2535
206	371
207	30
