Mass Spectrum: Padimate O
Formula: C17 H27 N O2
CAS: 21245-02-3
Molecular weight: 277
Origin: Tox21 Consortium/NIST Mass Spectrometry Data Center, 2012
m/z	RELATIVE INTENSITY
15	10
26	10
27	120
28	30
29	270
30	10
38	10
39	140
40	20
41	561
42	500
43	310
44	80
45	10
50	50
51	80
52	30
53	70
54	30
55	330
56	80
57	280
58	20
62	10
63	70
64	30
65	100
66	30
67	40
68	30
69	100
70	90
71	20
72	10
74	70
75	30
76	100
77	540
78	220
79	270
80	50
81	20
82	10
83	30
84	10
89	20
90	80
91	280
92	130
93	70
94	30
97	10
102	20
103	90
104	380
105	460
106	50
107	30
108	10
112	10
116	10
117	50
118	270
119	300
120	320
121	200
122	50
132	100
133	10
134	20
135	10
136	10
146	20
148	4154
149	540
150	80
151	10
162	20
164	3263
165	9999
166	1181
167	100
168	10
178	30
179	10
191	10
204	10
205	10
260	20
276	40
277	1682
278	310
279	40
