Mass Spectrum: p-Toluenesulfonamide, alpha-[6-(methylthio)-9H-purin-9-yl]-
Formula: C13 H13 N5 O2 S2
CAS: 21268-01-9
Molecular weight: 335
Origin: Div. of Experiment Therapeutics WRAIR, WRAMC, Washington DC 20307
m/z	RELATIVE INTENSITY
41	107
42	105
43	66
44	97
45	416
46	169
47	425
48	146
49	72
50	184
51	427
52	233
53	219
54	64
55	78
56	24
57	62
58	140
59	102
60	32
61	31
62	132
63	890
64	1351
65	264
66	222
67	112
69	63
70	193
71	215
72	46
73	38
74	75
75	95
76	137
77	1001
78	403
79	323
80	171
81	24
82	126
83	144
84	142
85	50
86	255
87	54
88	37
89	2114
90	1479
91	316
92	181
93	207
94	216
95	35
96	57
97	87
98	85
99	41
100	55
101	61
102	76
103	69
104	134
105	122
106	1219
107	1433
108	122
109	74
110	43
111	456
112	40
113	49
114	59
115	40
116	178
117	47
119	661
120	149
121	170
122	50
123	51
125	64
126	60
127	184
128	102
129	59
131	46
133	44
134	60
136	85
137	73
138	325
139	39
140	33
141	34
142	33
152	70
153	98
154	117
155	98
158	10
159	29
165	9999
166	883
167	509
168	61
169	10
170	139
171	37
179	44
180	150
181	98
182	85
183	17
185	34
195	9
206	20
207	59
208	119
209	53
211	10
212	69
213	36
221	34
222	17
239	21
253	9
254	70
255	166
256	35
261	116
288	105
289	45
303	10
320	22
335	3095
336	638
337	182
338	41
