Mass Spectrum: p-Toluenesulfonamide, alpha-9H-adenin-9-yl-
Formula: C12 H12 N6 O2 S
CAS: 21267-98-1
Molecular weight: 304
Origin: Div. of Experiment Therapeutics WRAIR, WRAMC, Washington DC 20307
m/z	RELATIVE INTENSITY
41	291
42	139
43	380
44	131
45	247
47	57
48	32
49	391
50	260
51	610
52	275
53	533
54	371
55	366
57	76
62	181
63	1225
64	1717
65	350
66	441
67	352
68	207
69	32
71	149
75	116
76	168
77	1299
78	461
79	352
80	389
81	162
84	316
85	39
86	87
89	2758
90	1228
91	255
92	164
93	43
94	194
95	153
98	537
103	38
104	167
105	164
106	1761
107	2707
108	420
112	676
115	110
116	225
117	146
119	149
120	153
121	130
131	69
134	71
135	357
136	83
141	118
142	131
143	122
144	32
147	41
148	1053
149	80
153	36
155	34
168	132
169	152
170	336
180	224
181	226
182	110
195	322
196	371
197	163
206	32
207	38
222	162
223	846
224	656
225	128
235	38
260	383
261	2318
262	742
263	207
276	178
277	162
286	308
288	109
303	9999
304	7419
305	1862
306	471
307	34
