Mass Spectrum: Phosphine oxide, methyldiphenyl-
Formula: C13 H13 O P
CAS: 2129-89-7
Molecular weight: 216
Origin: H. Luftmann, Org. Chem. Inst., Westfalisch Wilhelms Univ., Munster, Germany
m/z	RELATIVE INTENSITY
39	200
44	100
47	400
50	200
51	1400
52	100
63	200
65	200
74	100
75	100
76	100
77	2100
78	300
89	100
91	600
95	300
98	100
99	300
106	200
107	600
108	100
109	200
115	100
121	300
123	300
124	100
125	200
128	200
129	100
133	100
139	800
151	100
152	500
153	400
154	400
165	100
171	200
173	300
183	600
199	400
200	200
201	6500
202	800
203	100
214	100
215	9999
216	2900
217	500
218	200
