Mass Spectrum: Benzenamine, 4-isothiocyanato-N,N-dimethyl-
Formula: C9 H10 N2 S
CAS: 2131-64-8
Molecular weight: 178
Origin: NIST Mass Spectrometry Data Center
m/z	RELATIVE INTENSITY
15	230
26	30
27	90
29	10
30	30
32	70
37	80
38	160
39	370
40	60
41	120
42	771
43	80
44	250
45	90
46	10
49	30
50	540
51	591
52	240
53	60
54	40
55	10
56	10
57	20
58	60
59	40
60	20
61	80
62	210
63	721
64	440
65	190
66	170
67	140
68	70
69	110
70	200
71	30
72	40
73	50
74	270
75	430
76	390
77	971
78	400
79	90
81	1371
83	100
84	60
85	10
86	10
87	40
89	1631
90	1021
91	280
92	160
93	120
94	50
95	80
96	90
97	50
98	10
99	20
100	10
101	10
102	510
103	130
104	651
105	591
106	70
107	230
108	100
109	120
110	10
115	10
116	70
117	160
118	1041
119	520
120	120
121	60
122	130
123	20
128	40
129	440
130	200
131	50
132	10
133	240
134	1401
135	911
136	270
137	60
138	10
143	40
144	20
145	601
146	170
147	110
148	140
149	110
150	20
161	1491
162	2702
163	941
164	200
165	40
175	110
177	7707
178	9999
179	1521
180	530
181	50
