Mass Spectrum: 3-Bromophenyl isothiocyanate
Formula: C7 H4 Br N S
CAS: 2131-59-1
Molecular weight: 213
Origin: NIST Mass Spectrometry Data Center, 1994
m/z	RELATIVE INTENSITY
25	88
26	288
27	256
28	240
32	615
36	129
37	1092
38	1189
39	1021
40	133
44	660
45	356
48	114
49	657
50	4688
51	1270
52	282
56	81
57	148
58	338
59	102
60	149
61	689
62	896
63	2071
64	1214
65	80
66	80
67	1473
68	80
69	402
70	716
71	114
72	146
73	528
74	2444
75	4332
76	2628
77	165
79	171
80	101
81	329
82	228
83	386
84	200
86	81
87	150
88	251
89	81
90	2485
91	200
93	165
94	163
95	95
99	127
100	89
102	753
105	74
107	1030
109	58
117	95
118	55
119	93
129	120
130	83
131	100
134	7272
135	604
136	357
155	1726
156	197
157	1591
158	138
181	129
183	193
213	9430
214	998
215	9999
216	862
217	453
