Mass Spectrum: 4-Chlorophenyl isothiocyanate
Formula: C7 H4 Cl N S
CAS: 2131-55-7
Molecular weight: 169
Origin: Chuck Anderson, Aldrich Chemical Co.
m/z	RELATIVE INTENSITY
25	5
26	56
27	55
32	122
35	23
36	65
37	527
38	502
39	419
40	37
44	249
45	169
46	20
47	75
48	41
49	289
50	1523
51	688
52	97
53	5
56	36
57	43
58	111
59	35
60	90
61	275
62	262
63	488
64	256
65	14
67	92
68	10
69	73
70	241
71	51
72	74
73	238
74	551
75	1542
76	288
77	20
79	47
81	51
82	57
83	119
85	805
86	405
87	158
88	106
89	43
90	361
91	28
93	24
94	34
95	24
96	25
97	43
98	62
99	128
100	58
101	47
102	220
103	23
105	8
106	39
107	130
108	70
109	54
110	68
111	3515
112	242
113	1215
114	80
118	45
120	28
124	43
125	336
126	38
127	114
133	196
134	825
135	81
136	43
137	410
138	35
139	146
142	228
143	37
144	86
145	8
153	34
155	2
168	2
169	9999
170	859
171	3827
172	302
173	162
174	5
