Mass Spectrum: Naphthalene, 1,4,5-trimethyl-
Formula: C13 H14
CAS: 2131-41-1
Molecular weight: 170
Origin: L.E. Slivon, Battelle Columbus Laboratories, Columbus, Ohio 43201
m/z	RELATIVE INTENSITY
40	78
41	126
42	10
43	10
44	8
45	6
47	1
48	5
49	1
50	337
51	731
52	173
53	135
54	8
55	5
56	12
57	20
58	28
61	40
62	263
63	856
64	266
65	303
66	29
67	5
68	5
69	67
70	91
71	126
73	14
74	285
75	392
76	738
77	724
78	169
79	33
80	3
81	79
82	468
83	480
84	458
85	320
86	159
87	263
88	102
89	407
90	47
91	235
92	27
93	3
95	2
96	3
97	8
98	102
99	76
100	46
101	102
102	290
103	102
104	14
105	12
106	8
108	1
109	8
110	36
111	55
112	16
113	162
114	80
115	1854
116	226
117	29
118	8
119	13
120	3
121	1
122	18
123	11
124	5
125	33
126	281
127	844
128	2043
129	978
130	111
131	8
132	5
133	1
134	3
135	3
136	3
137	42
138	46
139	673
140	152
141	820
142	242
143	83
144	17
145	3
146	5
147	24
148	7
149	10
150	177
151	581
152	2366
153	3070
154	1209
155	9999
156	1255
157	83
158	7
159	8
161	6
162	26
163	126
164	142
165	602
166	158
167	526
168	93
169	1066
170	7392
171	992
172	70
