Mass Spectrum: Benzene, (1-methylhexyl)-
Formula: C13 H20
CAS: 2132-84-5
Molecular weight: 176
Origin: D.HENNEBERG, MAX-PLANCK INSTITUTE, MULHEIM, WEST GERMANY
m/z	RELATIVE INTENSITY
26	90
27	870
28	250
29	700
37	60
38	100
39	800
40	130
41	930
42	170
43	450
50	180
51	490
52	160
53	180
55	210
56	100
57	100
62	70
63	180
64	80
65	240
66	60
69	70
74	70
75	100
76	110
77	930
78	420
79	670
80	80
82	5
89	100
90	60
91	1601
92	180
101	80
102	150
103	520
104	590
105	9999
106	1221
107	110
115	210
116	100
117	180
118	100
119	140
128	80
154	100
161	110
176	1121
