Mass Spectrum: Cobalt, dicarbonylhydrobis(phosphorus trifluoride)-
Formula: C2 H Co F6 O2 P2
CAS: 21329-73-7
Molecular weight: 292
Origin: F.E.SAALFELD NAVAL RESEARCH LAB, WASHINGTON D.C., USA
m/z	RELATIVE INTENSITY
28	3242
59	9999
60	822
69	1781
71	548
78	731
87	7215
88	1781
115	3196
116	913
147	3973
149	868
175	3425
176	1684
203	502
204	1598
236	91
238	137
263	91
264	1553
292	1416
