Mass Spectrum: Cobalt, tricarbonylhydro(phosphorus trifluoride)-
Formula: C3 H Co F3 O3 P
CAS: 21329-74-8
Molecular weight: 232
Origin: F.E.SAALFELD NAVAL RESEARCH LAB, WASHINGTON D.C., USA
m/z	RELATIVE INTENSITY
28	7603
59	9999
60	737
69	1797
71	737
78	506
87	7834
88	1935
115	4792
116	1382
143	506
144	414
147	1889
148	460
175	1751
176	783
203	276
204	1797
232	921
