Mass Spectrum: Ethanol, 2-(octadecyloxy)-
Formula: C20 H42 O2
CAS: 2136-72-3
Molecular weight: 314
Origin: R.T.HOLMAN,UNIVERSITY OF MINNESOTA
m/z	RELATIVE INTENSITY
25	30
26	220
27	980
28	1490
29	2440
30	100
31	390
32	120
36	30
37	20
38	30
39	510
40	150
41	4720
42	1250
43	7950
44	490
45	3850
46	170
47	30
50	30
51	50
52	30
53	230
54	510
55	5270
56	2040
57	9999
58	480
59	150
60	100
66	100
67	770
68	1410
69	3850
70	1650
71	6370
72	370
73	170
74	50
75	1370
76	80
77	70
78	30
79	110
80	60
81	510
82	1960
83	3770
84	1100
85	4330
86	290
87	50
88	30
89	20
90	30
91	70
92	30
93	50
94	50
95	360
96	710
97	2990
98	700
99	1330
100	110
101	40
102	20
103	20
104	20
105	40
106	20
107	30
108	20
109	170
110	290
111	1570
112	490
113	790
114	80
115	40
116	30
117	120
118	30
119	30
120	10
121	20
122	20
123	90
124	170
125	780
126	320
127	530
128	70
129	30
130	20
131	30
132	20
133	30
134	10
135	20
136	20
137	60
138	110
139	360
140	240
141	400
142	50
143	20
144	10
145	20
146	10
147	20
148	10
149	40
150	20
151	30
152	90
153	230
154	180
155	310
156	50
157	10
158	10
159	10
160	10
161	10
162	10
163	10
164	10
165	30
166	60
167	150
168	150
169	240
170	40
171	10
173	10
174	10
175	10
176	10
177	10
178	10
179	10
180	40
181	90
182	110
183	190
184	30
185	20
186	10
191	10
192	10
193	20
194	30
195	70
196	110
197	120
198	30
199	10
200	10
207	30
208	30
209	30
210	40
211	70
212	20
213	10
214	10
215	10
216	10
217	10
218	10
219	30
220	10
221	10
222	30
223	30
224	440
225	100
226	20
227	10
228	10
229	10
236	10
237	10
238	10
239	10
240	10
241	20
242	10
243	10
248	10
249	20
250	30
251	20
252	440
253	340
254	70
255	40
256	20
257	10
258	10
264	10
265	10
266	10
267	50
268	20
269	40
270	10
271	40
272	10
273	10
274	10
278	10
279	10
283	510
284	130
285	30
286	10
296	10
297	10
298	10
311	10
312	10
313	10
314	14
315	10
