Mass Spectrum: Ethanol, 2-(eicosyloxy)-
Formula: C22 H46 O2
CAS: 2136-73-4
Molecular weight: 342
Origin: R.T.HOLMAN,UNIVERSITY OF MINNESOTA
m/z	RELATIVE INTENSITY
26	60
27	630
28	240
29	2000
30	60
31	300
32	30
39	310
40	100
41	4100
42	1000
43	8000
44	400
45	4100
46	120
47	30
51	20
52	10
53	160
54	450
55	5100
56	1800
57	9999
58	470
59	60
60	50
61	60
62	40
63	5700
64	140
65	60
66	70
67	710
68	1400
69	4000
70	1500
71	6900
72	390
73	60
74	20
75	1600
76	70
77	50
78	10
79	60
80	50
81	490
82	2100
83	4300
84	1100
85	4900
86	320
87	30
88	20
89	10
90	30
91	20
93	20
94	30
95	330
96	750
97	3500
98	730
99	1600
100	120
101	30
105	30
107	10
108	10
109	170
110	290
111	1900
112	490
113	1000
114	100
115	20
117	130
118	20
119	20
121	10
122	20
123	90
124	180
125	1000
126	350
127	700
128	70
129	20
131	20
135	10
136	20
137	60
138	150
139	490
140	260
141	510
142	60
143	10
151	30
152	100
153	290
154	190
155	370
156	50
157	10
165	20
166	70
167	200
168	160
169	290
170	400
179	10
180	60
181	140
182	130
183	240
184	30
185	10
193	10
194	40
195	100
196	120
197	210
198	300
199	10
207	10
208	40
209	70
210	90
211	160
212	30
213	10
221	10
222	30
223	50
224	80
225	100
226	20
227	10
235	10
236	20
237	30
238	30
239	50
240	20
241	10
250	20
251	20
252	430
253	90
254	20
276	10
277	20
278	30
279	30
280	500
281	410
282	80
283	10
284	10
285	10
294	10
295	40
296	20
297	40
298	10
299	40
300	10
301	10
311	630
312	150
313	20
340	10
341	10
342	14
