Mass Spectrum: 1,1'-Biphenyl, 2,2',3,3',5,5',6,6'-octachloro-
Formula: C12 H2 Cl8
CAS: 2136-99-4
Molecular weight: 426
Origin: Organic Synthesis Lab, MSU, Moscow.TRC 1185
m/z	RELATIVE INTENSITY
41	10
44	87
47	48
48	10
49	33
55	8
57	13
59	12
60	25
61	72
62	15
66	15
67	12
71	27
72	104
73	170
74	27
78	27
79	15
82	21
83	48
84	113
85	101
86	31
89	15
90	126
91	43
94	21
95	60
96	81
97	64
98	46
106	23
107	137
108	322
109	222
110	112
111	12
113	15
114	15
118	39
119	79
120	124
121	71
122	66
123	9
131	57
132	159
133	63
134	56
141	12
142	68
143	423
144	553
145	296
146	159
147	31
148	26
149	40
150	33
154	25
155	38
156	79
157	48
158	29
159	18
160	104
161	168
165	13
166	35
167	41
168	45
169	33
177	27
178	479
179	832
180	781
181	395
182	116
183	26
191	23
192	56
193	21
194	21
195	23
196	45
197	27
198	39
202	35
203	30
204	35
213	119
214	360
215	451
216	526
217	159
218	178
219	33
220	26
226	40
227	17
228	46
230	14
237	24
239	64
240	16
241	43
242	10
249	18
250	147
251	201
252	151
253	169
254	73
255	46
257	11
261	14
262	21
263	22
264	29
265	12
272	25
274	51
275	17
276	29
285	47
286	899
287	179
288	1193
289	178
290	564
291	83
292	143
293	10
294	12
296	36
298	60
300	23
309	13
313	18
320	75
321	263
322	181
323	406
324	136
325	289
326	56
327	85
328	15
329	14
356	1891
357	289
358	3783
359	537
360	3295
361	399
362	1319
363	170
364	346
365	36
366	47
391	87
392	41
393	244
394	62
395	213
396	49
397	112
398	25
399	47
426	3286
427	458
428	8757
429	1170
430	9999
431	1273
432	6451
433	752
434	2486
435	329
436	597
437	79
438	115
