Mass Spectrum: Ethanol, 2-(tetradecyloxy)-
Formula: C16 H34 O2
CAS: 2136-70-1
Molecular weight: 258
m/z	RELATIVE INTENSITY
15	60
17	150
18	581
19	90
26	20
27	711
28	320
29	2032
30	60
31	571
32	40
39	430
40	100
41	4534
42	1241
43	7607
44	440
45	2642
46	80
53	230
54	591
55	6156
56	3303
57	9999
58	520
59	120
60	30
61	50
62	40
63	2492
64	70
65	60
66	90
67	921
68	2142
69	5395
70	3183
71	6216
72	380
73	200
75	1021
76	50
77	60
79	70
80	40
81	520
82	2642
83	5885
84	2292
85	4034
86	380
87	80
88	40
89	110
90	30
91	30
95	290
96	931
97	4564
98	1451
99	1121
100	90
101	40
103	20
109	130
110	430
111	2602
112	1031
113	771
114	70
115	20
117	100
123	70
124	240
125	1391
126	671
127	550
128	60
133	30
137	40
138	160
139	550
140	470
141	400
142	50
152	80
153	220
154	260
155	190
156	30
166	60
167	110
168	771
169	120
181	40
182	50
194	30
195	30
196	801
197	350
198	50
211	60
213	50
215	40
224	140
225	40
227	500
228	90
258	10
