Mass Spectrum: 1(2H)-Naphthalenone, octahydro-, trans-
Formula: C10 H16 O
CAS: 21370-71-8
Molecular weight: 152
Origin: Chuck Anderson, Aldrich Chemical Co.
m/z	RELATIVE INTENSITY
15	77
26	174
27	2115
28	689
29	1289
30	35
31	40
37	42
38	216
39	4743
40	1057
41	6473
42	1241
43	729
44	50
45	65
46	100
47	85
48	46
50	266
51	753
52	512
53	2563
54	3429
55	4775
56	460
57	296
58	49
59	27
61	14
62	104
63	198
64	71
65	945
66	1113
67	9229
68	3012
69	737
70	404
71	164
74	26
75	18
76	34
77	1065
78	656
79	3333
80	1057
81	7242
82	1217
83	961
84	1858
85	156
89	22
90	18
91	905
92	841
93	1514
94	681
95	1562
96	809
97	3717
98	342
99	21
103	24
104	26
105	368
106	362
107	270
108	2627
109	9999
110	4967
111	777
112	60
115	13
117	12
118	17
119	777
120	86
121	152
122	98
123	2115
124	1081
125	97
133	164
134	1265
135	164
136	22
137	406
138	40
150	14
151	478
152	4262
153	492
154	37
