Mass Spectrum: 8-Methyl-6-nonenoic acid
Formula: C10 H18 O2
CAS: 21382-25-2
Molecular weight: 170
Origin: NIST Mass Spectrometry Data Center
m/z	RELATIVE INTENSITY
26	20
27	470
28	100
29	410
30	10
31	50
37	10
38	50
39	1211
40	220
41	3894
42	420
43	1101
44	40
45	721
46	20
47	10
50	70
51	200
52	110
53	781
54	380
55	4714
56	3894
57	811
58	60
59	140
60	460
61	40
62	20
63	60
64	10
65	310
66	140
67	1912
68	1571
69	9999
70	1431
71	581
72	40
73	711
74	50
77	280
78	50
79	470
80	90
81	1041
82	550
83	981
84	480
85	290
86	50
87	140
88	20
89	10
91	130
92	40
93	440
94	90
95	1501
96	430
97	1111
98	110
99	150
100	100
101	420
102	50
103	20
106	30
107	60
108	881
109	871
110	741
111	210
112	20
113	170
114	741
115	671
116	50
117	10
119	170
123	350
124	140
125	20
126	10
127	260
128	70
129	10
133	20
134	20
135	30
137	961
138	90
139	10
141	40
142	30
151	30
152	510
153	70
154	10
155	40
170	601
171	60
172	10
