Mass Spectrum: 1-Propene, 1,1,2-trichloro-
Formula: C3 H3 Cl3
CAS: 21400-25-9
Molecular weight: 144
m/z	RELATIVE INTENSITY
12	70
13	30
14	50
15	110
16	10
17	20
18	90
19	10
20	10
24	70
25	150
26	350
27	410
28	200
29	50
30	10
31	10
32	40
35	731
36	1601
37	2132
38	1732
39	1581
40	70
41	110
42	10
43	30
44	20
45	40
47	1031
48	200
49	1611
50	80
51	410
52	10
53	200
54	220
55	110
56	10
57	10
59	120
60	220
61	681
62	150
63	240
64	30
65	20
66	10
67	10
69	10
70	20
71	250
72	831
73	1161
74	540
75	1491
76	120
77	100
78	10
79	10
80	10
82	410
83	3263
84	330
85	2052
86	70
87	330
88	10
89	10
91	10
94	190
95	100
96	210
97	811
98	90
99	500
100	20
101	80
105	60
106	20
107	410
108	190
109	9999
110	470
111	6566
112	230
113	1191
114	40
115	30
116	10
117	50
119	50
121	10
123	10
124	10
125	10
126	10
129	80
130	40
131	100
132	40
133	40
134	20
135	10
136	10
139	10
140	10
141	10
142	10
143	310
144	2562
145	430
146	2422
147	180
148	771
149	80
