Mass Spectrum: (-)-Menthylamine
Formula: C10 H21 N
CAS: 21411-81-4
Molecular weight: 155
Origin: NIST Mass Spectrometry Data Center
m/z	RELATIVE INTENSITY
15	40
17	10
18	190
27	550
28	991
29	290
30	1191
39	631
40	140
41	1411
42	571
43	1661
44	270
50	20
51	60
52	40
53	250
54	200
55	701
56	1071
57	170
58	40
63	10
65	70
67	450
68	190
70	9999
71	540
72	30
77	80
79	100
80	90
81	631
82	240
83	90
84	400
85	30
86	10
91	40
93	50
94	80
95	460
96	130
98	621
99	60
109	40
110	30
112	120
113	10
123	140
124	20
138	340
139	50
140	330
141	30
155	300
156	40
