Mass Spectrum: Abietic acid, TMS derivative
Formula: C23 H38 O2 Si
CAS: 21414-50-6
Molecular weight: 374
Origin: O A MAMER, MCGILL UNIVERSITY, MONTRE
m/z	RELATIVE INTENSITY
22	83
30	181
31	335
32	1774
34	431
39	105
41	1037
42	30
43	1122
44	81
45	365
46	53
47	94
53	192
54	57
55	1169
56	46
57	66
58	10
59	109
60	47
61	79
65	105
66	59
67	609
68	45
70	40
71	42
72	103
73	4174
74	345
75	1021
76	75
77	391
78	102
79	601
80	124
81	614
82	73
83	113
84	18
87	45
89	72
91	1052
92	455
93	701
94	147
95	393
96	46
97	255
98	63
99	34
101	50
103	167
104	195
105	1296
106	202
107	401
108	141
109	758
110	109
111	58
113	10
115	195
116	114
117	575
118	127
119	175
120	133
121	871
122	172
123	547
124	82
125	64
127	94
128	283
129	445
130	222
131	721
132	64
133	754
134	262
135	279
136	587
137	154
141	236
142	237
143	909
144	238
145	527
146	141
147	274
148	289
149	164
150	43
151	54
152	64
153	79
154	71
155	176
156	209
157	417
158	160
159	339
160	306
161	229
162	15
163	20
164	46
165	113
166	56
167	85
168	59
170	96
171	308
172	725
173	417
174	135
175	211
177	83
179	103
182	63
183	151
184	79
185	1608
186	368
187	392
188	195
189	121
190	44
191	6
192	45
194	44
195	90
196	44
197	153
198	66
199	358
200	140
201	177
202	63
203	53
205	15
208	5
209	35
210	48
211	106
213	1626
214	339
215	134
217	46
221	70
222	15
223	23
224	51
225	100
227	382
229	119
233	44
237	113
239	450
241	3501
242	758
243	125
244	53
251	79
253	67
256	9999
257	2474
258	387
259	82
265	45
267	8
269	15
282	3
295	9
296	14
297	4
325	50
331	96
341	117
343	6
355	40
356	17
357	53
359	1278
360	419
361	160
362	45
374	1943
375	628
376	204
377	53
