Mass Spectrum: Isopimaric acid, TMS
Formula: C23 H38 O2 Si
CAS: 21414-47-1
Molecular weight: 374
Origin: M.ENDE, STAATLICHES CHEM. UNTERSUCHUNGS AMT, OLDENBURG, W.GEZ
m/z	RELATIVE INTENSITY
41	2727
42	182
43	1939
44	121
45	606
53	485
54	121
55	2727
56	242
57	1697
58	121
59	182
61	152
65	242
66	121
67	1212
68	364
69	1939
70	303
71	909
72	182
73	9999
74	788
75	2727
76	182
77	1091
78	182
79	1697
80	606
81	2545
82	303
83	424
84	61
85	545
91	1818
92	606
93	1515
94	152
95	970
96	121
97	727
98	152
103	152
104	152
105	1939
106	1091
107	1152
108	485
109	2121
110	152
116	152
117	1212
118	242
119	1697
120	970
121	1758
122	152
123	606
131	1212
132	364
133	1091
134	303
135	303
142	182
143	1212
144	152
145	758
146	364
147	485
148	758
149	303
157	394
158	303
159	788
160	303
161	424
171	485
172	242
173	727
174	242
175	606
184	121
185	727
186	606
187	1364
188	455
199	606
200	303
201	1515
202	121
213	606
214	303
215	152
216	91
227	1030
228	364
229	152
241	6061
242	1212
243	121
255	242
256	7273
257	3030
258	606
345	182
359	1818
360	455
374	606
375	152
