Mass Spectrum: Ethanone, 1-(3-bromophenyl)-
Formula: C8 H7 Br O
CAS: 2142-63-4
Molecular weight: 198
Origin: Japan AIST/NIMC Database- Spectrum MS-NW-2686
m/z	RELATIVE INTENSITY
13	10
14	50
15	339
18	20
25	10
26	40
27	70
28	50
29	20
36	30
37	179
38	429
39	239
40	20
41	20
42	139
43	4159
44	119
45	30
48	10
49	169
50	2219
51	669
52	109
53	40
57	10
60	20
61	119
62	189
63	299
64	70
65	99
66	10
67	20
72	10
73	169
74	939
75	2349
76	2919
77	649
78	70
79	50
80	40
81	50
82	50
84	10
85	30
86	40
87	40
88	30
89	269
90	229
91	159
92	119
93	10
98	20
99	10
101	20
102	30
103	20
104	289
105	40
106	10
107	30
117	20
118	30
119	30
128	20
129	80
130	30
131	90
133	10
143	10
145	10
153	10
154	30
155	4589
156	379
157	4509
158	369
159	10
169	60
170	10
171	50
172	10
174	10
176	10
180	10
182	10
183	9999
184	779
185	9699
186	759
187	50
198	3639
199	339
200	3539
201	309
202	20
