Mass Spectrum: 3-Chloro-4-methylbenzonitrile
Formula: C8 H6 Cl N
CAS: 21423-81-4
Molecular weight: 151
Origin: Japan AIST/NIMC Database- Spectrum MS-IW- 661
m/z	RELATIVE INTENSITY
26	10
27	40
28	40
36	30
37	70
38	99
39	279
40	20
41	10
43	60
44	60
47	10
49	50
50	159
51	149
52	40
55	10
56	50
57	389
58	50
60	20
61	129
62	279
63	429
64	169
65	80
66	10
72	20
73	119
74	60
75	119
76	70
77	10
84	20
85	40
86	60
87	149
88	429
89	1049
90	179
91	10
97	40
98	30
99	60
100	50
101	10
110	10
111	10
112	10
114	559
115	1049
116	9999
117	919
118	30
123	319
124	129
125	119
126	40
149	10
150	619
151	4569
152	619
153	1459
154	129
