Mass Spectrum: 1,1'-Biphenyl, 3-chloro-4-methoxy-
Formula: C13 H11 Cl O
CAS: 21424-83-9
Molecular weight: 218
Origin: D. KUEHL AND G. VEITH, EPA- DULUTH, USA
m/z	RELATIVE INTENSITY
63	1120
73	858
75	745
87	501
89	850
102	547
113	635
114	560
115	1507
138	716
139	6284
140	1915
149	1203
150	708
151	1038
152	1777
153	545
175	6366
176	529
177	2220
203	9999
204	1563
205	2867
218	9139
219	1294
220	3253
