Mass Spectrum: Furan, tetrahydro-2,5-dimethyl-, cis-
Formula: C6 H12 O
CAS: 2144-41-4
Molecular weight: 100
Origin: SHELL RESEARCH LIMITED THORNTON RESEARCH CENTRE
m/z	RELATIVE INTENSITY
27	971
28	971
29	1461
39	1069
40	333
41	7451
42	373
43	5490
44	314
45	1667
54	451
55	941
56	9999
57	1480
67	990
85	8628
86	451
100	833
