Mass Spectrum: Bicyclo[2.2.1]heptane, 2-ethyl-
Formula: C9 H16
CAS: 2146-41-0
Molecular weight: 124
Origin: D.HENNEBERG, MAX-PLANCK INSTITUTE, MULHEIM, WEST GERMANY
m/z	RELATIVE INTENSITY
27	249
29	129
39	748
40	39
41	1506
42	59
53	389
54	638
55	1377
56	39
65	159
66	488
67	4281
68	1766
69	359
70	269
77	149
78	39
79	249
81	1117
82	1407
83	269
93	39
94	9
95	9999
96	1706
109	209
124	518
