Mass Spectrum: 1-Ethylcyclopentene
Formula: C7 H12
CAS: 2146-38-5
Molecular weight: 96
Origin: NIST Mass Spectrometry Data Center, 1990.
m/z	RELATIVE INTENSITY
15	226
26	121
27	941
28	144
29	291
37	82
38	218
39	1712
40	405
41	1366
42	128
50	248
51	456
52	237
53	879
54	463
55	749
62	110
63	211
65	780
66	959
67	9999
68	858
77	559
78	149
79	891
80	132
81	865
91	135
95	319
96	1955
97	150
