Mass Spectrum: 2-Amino-6-chlorobenzoic acid
Formula: C7 H6 Cl N O2
CAS: 2148-56-3
Molecular weight: 171
Origin: LAC, NIDDK, NIH, Bethesda, MD 20892
m/z	RELATIVE INTENSITY
41	266
42	59
44	317
45	795
46	89
49	159
50	190
51	296
52	559
53	341
54	100
59	135
60	70
61	360
63	3373
64	676
65	671
66	110
68	75
72	158
73	355
74	185
75	282
76	326
77	261
78	131
79	47
80	142
84	42
86	196
87	98
88	129
89	354
90	2005
91	362
92	148
97	86
98	283
99	424
100	146
101	136
107	53
108	13
110	81
117	54
119	77
124	115
125	330
126	5289
127	555
128	1469
129	139
137	60
149	81
152	305
153	9999
154	1598
155	3439
156	509
157	39
170	314
171	5471
172	469
173	1800
174	141
