Mass Spectrum: 2-Mercaptoethyl ether
Formula: C4 H10 O S2
CAS: 2150-02-9
Molecular weight: 138
Origin: NIST Mass Spectrometry Data Center, 1994
m/z	RELATIVE INTENSITY
12	14
13	32
14	114
15	299
16	5
19	29
26	428
27	2518
28	374
29	474
30	57
31	276
32	97
33	333
34	293
35	1837
36	32
37	78
42	71
44	243
45	1818
46	598
47	1495
48	197
49	88
50	16
58	498
59	1031
60	2977
61	9999
62	443
63	509
64	105
65	22
66	18
67	2
74	12
75	22
76	139
77	34
78	2
79	1116
80	69
81	50
82	19
86	113
87	66
88	8
89	43
90	82
91	169
92	466
93	48
94	217
95	19
96	22
104	332
105	202
106	28
107	18
110	91
120	129
122	11
136	19
138	29
