Mass Spectrum: Benzoic acid, 2,5-dihydroxy-, methyl ester
Formula: C8 H8 O4
CAS: 2150-46-1
Molecular weight: 168
Origin: NIST Mass Spectrometry Data Center, 1994
m/z	RELATIVE INTENSITY
12	12
13	72
14	131
15	1076
16	7
17	2
18	46
20	4
22	29
23	27
25	121
26	419
27	997
28	2
29	901
30	73
31	314
32	11
33	37
34	17
36	27
37	166
38	150
39	380
40	51
41	146
42	140
43	60
44	4
45	103
46	31
48	6
49	64
50	590
51	906
52	2171
53	2750
54	792
55	598
56	5
57	21
59	124
60	52
61	171
62	295
63	308
64	45
65	27
66	72
67	40
68	5
69	586
70	56
71	24
73	20
74	47
75	29
76	27
77	111
78	90
79	564
80	2629
81	1380
82	1054
83	52
84	46
85	28
90	8
91	8
92	42
93	9
94	27
95	8
96	25
97	143
98	50
99	24
105	21
108	3308
109	727
110	20
111	55
112	23
123	30
124	26
125	29
133	20
136	9999
137	2014
138	154
139	47
147	22
150	10
151	19
153	140
154	18
166	120
168	3185
169	281
170	11
