Mass Spectrum: Carbamic acid, (3-chlorophenyl)-, ethyl ester
Formula: C9 H10 Cl N O2
CAS: 2150-89-2
Molecular weight: 199
Origin: Zaikin V.G., TIPS RAS, Moscow, Russia
m/z	RELATIVE INTENSITY
26	140
27	911
28	1601
29	4004
30	80
31	190
37	100
38	200
39	210
40	30
43	40
44	40
45	380
46	30
49	60
50	220
51	140
52	80
57	20
58	150
60	20
61	110
62	320
63	991
64	581
70	80
71	280
72	40
73	380
74	170
75	651
76	180
77	100
85	60
86	30
87	50
88	80
89	260
90	761
91	811
93	120
98	70
99	1411
100	721
101	510
102	230
103	20
105	120
111	761
112	140
113	370
114	40
115	1051
116	380
117	80
118	20
119	50
120	130
125	671
126	921
127	9999
128	921
129	3413
130	210
136	40
140	6246
141	350
142	2082
143	2863
144	300
153	1762
154	1021
155	671
156	340
157	20
171	110
172	40
199	7056
200	731
201	2392
202	230
