Mass Spectrum: 3',4'-Dichloroacetanilide
Formula: C8 H7 Cl2 N O
CAS: 2150-93-8
Molecular weight: 203
Origin: NIST Mass Spectrometry Data Center, 1994
m/z	RELATIVE INTENSITY
14	150
15	614
26	35
28	265
29	57
32	26
35	48
36	51
37	174
38	198
39	165
40	91
41	169
42	26
43	5539
44	182
47	61
48	20
49	126
50	173
51	120
52	184
53	21
54	26
60	77
61	393
62	770
63	1137
64	252
65	110
66	31
71	49
72	230
73	598
74	405
75	386
76	83
77	34
83	122
84	111
85	134
86	97
87	115
88	195
89	204
90	808
91	201
95	23
96	48
97	307
98	189
99	702
100	120
101	210
102	26
104	31
107	151
109	266
110	69
111	119
112	29
124	314
125	571
126	696
127	252
128	231
133	603
134	304
135	415
136	194
137	74
138	60
139	25
145	73
146	20
147	50
159	73
161	9999
162	894
163	6289
164	493
165	1024
166	82
167	24
174	42
176	28
187	37
188	30
189	30
190	19
203	2449
204	272
205	1484
206	155
207	260
208	28
