Mass Spectrum: trans-.beta.-Terpinyl butanoate
Formula: C14 H24 O2
CAS: 2153-28-8
Molecular weight: 224
Origin: Japan AIST/NIMC Database- Spectrum MS-NW-1459
m/z	RELATIVE INTENSITY
14	20
15	129
16	10
17	40
18	219
19	10
20	10
26	90
27	1559
28	309
29	919
30	20
31	119
32	99
36	30
37	30
38	80
39	1229
40	319
41	3159
42	439
43	4679
44	169
45	199
46	10
47	10
50	60
51	259
52	129
53	909
54	129
55	959
56	70
57	139
58	70
59	459
60	1739
61	50
62	20
63	80
64	30
65	319
66	139
67	1649
68	2359
69	1019
70	109
71	5519
72	269
73	519
74	20
75	20
76	10
77	979
78	209
79	1799
80	929
81	2529
82	289
83	90
84	80
85	40
86	10
87	40
88	50
89	60
90	10
91	1009
92	1849
93	8129
94	1619
95	1369
96	169
97	60
98	10
99	10
102	10
103	60
104	30
105	529
106	209
107	2079
108	829
109	319
110	249
111	90
112	20
115	50
116	20
117	60
118	10
119	429
120	109
121	9999
122	1009
123	209
124	40
125	20
126	10
127	10
128	10
129	109
130	10
131	20
132	30
133	50
134	319
135	249
136	9039
137	2219
138	199
139	149
140	10
147	20
148	20
149	10
150	80
151	30
152	139
153	40
154	30
161	40
162	10
163	10
166	30
167	10
172	20
175	10
177	40
189	20
204	30
209	99
210	10
224	10
