Mass Spectrum: 3-Carboxy-2,2,5,5-tetramethyl-1-pyrolidinyloxy
Formula: C9 H16 N O3
CAS: 2154-68-9
Molecular weight: 186
Origin: NIST Mass Spectrometry Data Center
m/z	RELATIVE INTENSITY
15	220
17	20
18	210
26	90
27	1031
29	941
30	360
31	130
38	90
39	1802
40	350
41	4074
42	2022
43	1281
44	340
45	591
46	30
50	90
51	270
52	140
53	951
54	360
55	1992
56	5025
57	701
58	581
59	1101
60	90
63	60
65	230
66	100
67	931
68	270
69	1351
70	440
71	340
72	80
73	150
74	1712
75	70
77	250
78	60
79	310
80	220
81	540
82	831
83	2162
84	811
85	571
86	120
88	90
91	170
92	50
93	290
94	430
95	1051
96	981
97	220
98	450
99	721
100	540
101	9999
102	520
103	50
106	30
107	70
108	420
109	721
110	1101
111	611
112	370
113	200
114	320
115	30
120	90
121	40
122	50
123	90
124	110
125	60
126	3934
127	310
128	50
136	60
137	70
138	370
139	110
140	110
141	40
153	30
154	410
155	140
156	4224
157	390
158	30
171	1782
172	1501
173	140
186	2132
187	320
188	30
