Mass Spectrum: Dibutyl itaconate
Formula: C13 H22 O4
CAS: 2155-60-4
Molecular weight: 242
Origin: NIST Mass Spectrometry Data Center, 1994
m/z	RELATIVE INTENSITY
12	7
14	8
15	147
16	3
24	5
27	1941
28	784
29	6109
30	197
31	231
34	4
39	2277
40	2208
41	6120
42	487
43	465
44	70
45	108
46	5
50	18
51	33
53	146
54	157
55	740
56	1850
57	4760
58	334
59	37
60	13
65	8
67	256
68	941
69	151
70	23
71	44
72	15
73	33
74	6
75	19
77	4
79	7
80	14
81	18
82	15
85	2190
86	3527
87	355
88	26
89	5
94	29
95	64
96	14
97	18
98	34
99	23
100	12
101	28
102	7
107	6
108	27
109	14
113	9999
114	761
115	97
116	8
118	15
119	4
122	27
123	27
124	17
125	21
126	34
127	33
129	74
131	1390
132	90
133	16
138	8
139	26
140	89
141	87
142	165
143	25
144	5
150	49
151	6
153	7
156	4
157	20
158	4
168	286
169	1112
170	124
171	23
172	3
185	61
186	290
187	399
188	44
189	6
196	5
197	7
213	8
214	5
242	88
243	17
