Mass Spectrum: Oleic Acid, (Z)-, TMS derivative
Formula: C21 H42 O2 Si
CAS: 21556-26-3
Molecular weight: 354
Origin: MO-43
m/z	RELATIVE INTENSITY
15	209
26	198
27	711
28	562
29	1608
39	585
41	4046
42	725
43	3055
44	269
45	866
47	439
53	402
54	1293
55	5496
56	1005
57	1463
58	222
59	294
61	638
66	188
67	2571
68	1173
69	2479
70	566
71	426
72	382
73	9999
74	1056
75	8812
76	664
77	589
79	764
80	541
81	2269
82	1364
83	1732
84	1899
85	414
89	325
91	362
93	541
94	431
95	1655
96	2259
97	1503
98	1573
99	338
105	341
107	342
108	299
109	945
110	971
111	692
112	363
116	692
117	6344
118	675
119	513
121	412
122	202
123	788
124	498
125	298
129	4504
130	630
131	991
132	2084
133	731
134	290
135	312
137	531
138	377
139	166
143	322
145	2999
146	461
147	382
149	198
151	346
152	381
155	296
157	182
159	287
161	123
165	215
166	270
169	216
171	372
172	183
173	235
180	581
181	172
183	204
185	665
186	211
187	248
194	123
199	767
200	184
201	284
213	180
220	234
221	242
222	924
223	205
227	209
236	193
241	178
255	131
257	149
264	1008
265	234
272	108
311	108
339	4376
340	1259
341	365
354	692
355	250
