Mass Spectrum: Propanoic acid, 2-hydroxy-, methyl ester, (.+/-.)-
Formula: C4 H8 O3
CAS: 2155-30-8
Molecular weight: 104
Origin: Japan AIST/NIMC Database- Spectrum MS-NW-4338
m/z	RELATIVE INTENSITY
13	30
14	90
15	799
16	20
17	50
18	219
19	50
25	30
26	159
27	729
28	299
29	1129
30	159
31	329
32	99
33	1529
34	10
39	20
40	10
41	40
42	169
43	1349
44	329
45	9999
46	239
47	20
53	20
55	139
56	70
57	10
58	40
59	319
60	30
61	339
62	10
69	20
71	10
72	10
75	10
76	20
89	119
104	20
