Mass Spectrum: N-Allyl-N,N-dimethylamine
Formula: C5 H11 N
CAS: 2155-94-4
Molecular weight: 85
Origin: Japan AIST/NIMC Database- Spectrum MS-NW-3224
m/z	RELATIVE INTENSITY
14	50
15	799
16	10
26	99
27	309
28	279
29	239
30	739
31	10
36	20
37	80
38	179
39	1049
40	199
41	2349
42	4189
43	769
44	1159
45	90
50	40
51	60
52	80
53	20
54	60
55	99
56	129
57	139
58	9999
59	409
63	10
64	10
65	10
66	50
67	50
68	319
69	129
70	1129
71	60
80	10
81	10
82	249
83	159
84	2459
85	4049
86	249
87	20
