Mass Spectrum: Naphthalene, 1,2,3,4-tetrahydro-1,5-dimethyl-
Formula: C12 H16
CAS: 21564-91-0
Molecular weight: 160
Origin: G.A.M.S., PARIS, FRANCE.
m/z	RELATIVE INTENSITY
15	20
26	20
27	220
28	80
29	80
38	20
39	420
40	40
41	290
42	20
44	10
50	90
51	350
52	90
53	210
54	30
55	100
56	10
57	30
58	60
62	50
63	250
64	340
65	390
66	40
67	160
68	40
69	70
70	100
71	340
72	50
73	10
74	40
75	80
76	120
77	480
78	170
79	240
80	20
81	120
82	80
83	40
86	10
87	30
88	10
89	120
90	20
91	660
92	140
93	50
94	20
95	230
96	90
97	10
98	10
101	30
102	110
103	180
104	70
105	910
106	90
107	10
108	30
109	70
110	40
111	10
113	20
114	20
115	1020
116	320
117	1070
118	930
119	180
120	10
121	20
122	10
123	20
124	10
125	10
126	40
127	320
128	1010
129	900
130	870
131	470
132	1540
133	170
134	10
135	10
137	10
139	70
140	20
141	370
142	150
143	350
144	210
145	9999
146	1220
147	70
149	20
150	10
151	40
152	50
153	40
154	10
155	70
156	200
157	50
158	60
159	260
160	3420
161	450
162	30
