Mass Spectrum: Fluorenone oxime
Formula: C13 H9 N O
CAS: 2157-52-0
Molecular weight: 195
Origin: Japan AIST/NIMC Database- Spectrum MS-NW-2548
m/z	RELATIVE INTENSITY
26	20
27	40
28	80
30	80
31	10
37	30
38	60
39	169
49	20
50	209
51	259
52	60
55	20
57	10
61	80
62	209
63	369
64	50
65	20
69	119
70	129
71	10
73	40
74	279
75	589
76	669
77	139
78	20
81	50
82	139
83	119
84	30
85	50
86	139
87	169
88	109
89	219
90	40
97	429
98	159
99	149
100	109
101	129
102	80
103	20
109	10
110	40
111	70
112	40
113	90
114	50
115	60
116	20
122	40
123	40
124	50
125	179
126	179
127	159
128	60
129	10
137	60
138	60
139	239
140	249
141	40
149	99
150	649
151	2039
152	1029
153	189
154	10
161	30
162	90
163	699
164	659
165	2029
166	749
167	439
168	90
169	20
175	90
176	329
177	2079
178	3239
179	3309
180	1549
181	199
182	20
194	70
195	9999
196	1479
197	119
