Mass Spectrum: Hexafluoroisopropyl acrylate
Formula: C6 H4 F6 O2
CAS: 2160-89-6
Molecular weight: 222
Origin: NIST Mass Spectrometry Data Center
m/z	RELATIVE INTENSITY
12	20
13	40
14	40
15	50
20	10
25	230
26	1541
27	6636
29	681
30	10
31	250
37	20
38	20
41	30
42	80
43	40
44	70
45	100
46	30
47	20
49	50
50	170
51	450
52	30
53	260
55	9999
56	350
57	30
63	80
64	10
69	2162
70	30
75	10
77	10
78	30
79	40
82	140
89	10
93	40
97	10
99	50
100	10
101	10
107	10
109	10
112	10
113	190
114	10
129	20
132	30
135	10
151	60
153	40
155	10
158	240
159	10
183	320
184	20
203	110
222	340
223	20
