Mass Spectrum: Hexane, 1,2-dichloro-
Formula: C6 H12 Cl2
CAS: 2162-92-7
Molecular weight: 154
Origin: NIST Mass Spectrometry Data Center, 1990.
m/z	RELATIVE INTENSITY
15	153
26	452
27	2811
28	152
29	1825
36	99
37	171
38	497
39	3968
40	948
41	9999
42	3697
43	2508
44	132
49	1303
50	430
51	1036
52	257
53	2220
54	1003
55	4177
56	2920
57	2063
61	834
62	993
63	1307
64	311
65	628
66	250
67	8336
68	250
69	8134
70	429
73	118
75	1201
76	1624
77	905
78	550
79	271
82	6376
83	2619
84	169
89	818
90	843
91	340
92	235
96	79
97	207
99	139
103	106
105	91
118	175
125	629
127	415
