Mass Spectrum: Fluometuron
Formula: C10 H11 F3 N2 O
CAS: 2164-17-2
Molecular weight: 232
Origin: MASS SPECTROMETRY CENTER, UNIV. OF UTAH, EPA-PTSEL 3620
m/z	RELATIVE INTENSITY
14	20
15	1403
27	165
28	120
30	133
32	17
37	81
38	194
39	249
40	50
41	126
42	1149
43	419
44	2231
45	263
50	178
51	120
52	52
56	393
57	123
62	124
63	393
64	201
65	35
69	157
72	9999
73	663
74	45
75	273
83	144
88	47
90	102
91	112
95	130
113	190
114	147
120	40
133	115
139	37
140	145
145	361
159	104
160	190
161	67
168	261
187	280
188	50
213	276
231	117
232	2467
233	270
