Mass Spectrum: 2-Propenamide, N-(3,4-dichlorophenyl)-2-methyl-
Formula: C10 H9 Cl2 N O
CAS: 2164-09-2
Molecular weight: 229
Origin: J. SHAW, BORRISTON RESEARCH, ROCKVILLE, MD, USA
m/z	RELATIVE INTENSITY
12	20
13	20
14	80
15	610
16	70
17	490
18	1711
19	10
25	20
26	200
27	330
28	380
29	110
30	10
31	40
32	10
35	70
36	160
37	350
38	830
39	4874
40	1231
41	9669
42	750
44	70
45	70
47	60
48	10
49	150
50	210
51	160
52	210
53	150
54	50
55	50
56	20
57	40
58	20
59	70
60	50
61	290
62	740
63	1161
64	260
65	120
66	30
67	40
69	9999
70	810
72	190
73	530
74	410
75	420
76	70
77	50
78	20
79	10
80	10
81	10
82	10
83	100
84	110
85	130
86	70
87	120
88	210
89	200
90	450
91	80
92	10
95	10
96	30
97	310
98	160
99	340
100	80
101	120
102	20
103	30
104	10
106	10
107	110
108	30
109	370
110	80
111	130
112	30
113	10
114	10
115	20
116	10
119	10
121	10
122	10
123	30
124	390
125	410
126	220
127	150
128	40
129	10
130	40
131	40
133	590
134	70
135	350
136	50
137	60
138	10
139	10
140	10
141	10
144	10
145	130
146	20
147	80
148	10
149	30
150	10
151	20
152	10
153	10
158	30
159	60
160	230
161	250
162	180
163	140
164	60
165	40
166	50
167	10
168	10
172	10
173	10
174	40
175	10
176	30
186	80
187	40
188	70
189	20
190	20
193	10
194	270
195	30
196	80
197	10
200	10
201	100
202	10
203	60
204	10
205	10
214	10
229	1111
230	170
231	690
232	100
233	110
234	10
