Mass Spectrum: trans-5,6-Epoxydecane
Formula: C10 H20 O
CAS: 2165-61-9
Molecular weight: 156
Origin: D.A. GEORGE, US AGRIC. RES. LAB., YAKIMA, WASH.,
m/z	RELATIVE INTENSITY
26	200
27	4800
28	2200
29	6300
30	200
31	700
32	100
38	100
39	2800
40	600
41	8000
42	6900
43	7500
44	3100
45	1400
51	100
52	100
53	800
54	600
55	7100
56	1300
57	9999
58	1900
59	400
65	100
67	1500
68	1200
69	8900
70	3500
71	3800
72	600
73	400
77	200
79	200
81	2000
82	900
83	700
84	400
85	800
86	3300
87	1100
88	100
95	600
96	300
97	200
98	100
99	7500
100	800
113	2200
114	200
127	900
128	100
138	200
139	100
140	100
156	600
