Mass Spectrum: 2,5-Dichlorobenzonitrile
Formula: C7 H3 Cl2 N
CAS: 21663-61-6
Molecular weight: 171
Origin: NIST Mass Spectrometry Data Center, 1994
m/z	RELATIVE INTENSITY
4	25
12	37
14	27
24	28
25	100
26	121
27	51
28	140
32	32
35	236
36	261
37	808
38	488
39	96
47	306
48	188
49	710
50	1950
51	391
52	60
54	87
55	55
60	374
61	556
62	512
63	313
64	79
68	254
71	62
72	424
73	949
74	1201
75	1727
76	499
77	29
83	76
84	450
85	623
88	100
95	25
96	49
97	90
98	223
99	1046
100	2936
101	316
107	49
108	125
109	470
110	419
111	202
112	119
113	28
119	27
120	45
122	53
124	36
133	28
134	81
135	369
136	2004
137	308
138	686
139	63
143	24
144	134
145	37
146	71
147	17
148	25
171	9999
172	920
173	6195
174	554
175	1007
176	81
