Mass Spectrum: Chromic acetylacetonate
Formula: C15 H21 Cr O6
CAS: 21679-31-2
Molecular weight: 349
Origin: Japan AIST/NIMC Database- Spectrum MS-IW-5613
m/z	RELATIVE INTENSITY
28	40
39	10
42	10
43	159
52	109
53	10
67	30
68	10
69	20
82	10
85	10
91	10
93	20
95	10
100	10
107	10
108	109
109	40
110	20
111	80
112	10
117	30
121	10
122	10
124	10
125	10
127	10
133	129
134	30
135	40
136	159
137	30
149	119
150	30
151	2119
152	369
153	90
159	10
166	50
167	60
168	729
169	119
170	30
174	80
175	20
189	20
190	10
208	10
210	50
211	10
221	30
232	30
233	20
234	20
235	329
236	70
237	10
248	509
249	199
250	9999
251	2199
252	539
253	50
288	10
306	10
347	159
348	10
349	2969
350	839
351	219
352	30
