Mass Spectrum: Cobalt tris(acetylacetonate)
Formula: C15 H21 Co O6
CAS: 21679-46-9
Molecular weight: 356
Origin: Japan AIST/NIMC Database- Spectrum MS-NW-5037
m/z	RELATIVE INTENSITY
14	30
15	219
17	20
18	109
26	50
27	169
28	219
29	70
31	60
32	10
37	20
38	40
39	139
40	30
41	119
42	129
43	2979
44	90
45	20
50	10
51	10
53	30
55	80
56	10
57	20
58	40
59	519
60	60
63	10
67	30
69	50
70	10
71	50
72	60
73	70
74	569
75	20
76	70
81	10
82	30
83	10
84	30
85	989
86	90
87	339
88	20
89	10
95	40
96	10
97	30
98	99
99	70
100	749
101	90
102	50
103	50
104	10
105	20
106	20
107	10
109	10
110	10
111	20
112	50
113	99
114	40
115	319
116	70
117	20
118	70
121	40
123	20
124	10
125	10
126	10
127	10
128	80
129	149
130	20
131	99
132	10
133	10
137	10
138	10
139	159
140	119
141	99
142	249
143	729
144	60
145	10
146	10
147	50
149	30
151	10
153	30
154	30
155	329
156	99
157	219
158	6389
159	749
160	99
161	10
162	40
163	40
164	30
165	20
166	10
167	10
168	10
169	10
170	20
171	30
172	40
173	70
174	10
175	50
176	40
178	50
180	10
181	30
182	10
184	50
185	20
186	30
187	70
188	10
193	10
196	30
197	20
198	10
199	10
200	129
201	80
202	20
205	10
207	20
208	10
209	10
211	10
212	10
214	60
215	209
216	30
217	10
218	40
219	20
222	10
223	20
224	20
225	80
226	20
227	20
228	109
229	60
230	20
231	40
232	20
233	20
234	10
235	10
236	10
237	20
238	20
239	189
240	30
241	70
242	6349
243	689
244	99
245	20
246	60
247	30
248	30
249	30
250	40
251	20
252	90
253	40
254	1129
255	169
256	139
257	9999
258	1149
259	169
260	20
261	109
262	40
263	50
264	20
266	10
267	10
270	50
271	10
272	10
280	10
282	10
283	10
284	10
285	10
286	20
288	10
293	10
295	30
296	339
297	50
298	20
314	99
315	20
321	10
324	10
326	10
328	10
335	10
338	219
339	40
340	10
351	30
353	319
354	70
355	20
356	1919
357	349
358	60
359	10
