Mass Spectrum: Benzene, 2,4-dibromo-1-methoxy-
Formula: C7 H6 Br2 O
CAS: 21702-84-1
Molecular weight: 264
Origin: Japan AIST/NIMC Database- Spectrum MS-NW-9370
m/z	RELATIVE INTENSITY
14	10
15	129
25	10
26	40
27	50
28	60
29	70
30	10
31	20
36	50
37	329
38	279
39	99
41	50
42	20
43	99
44	10
48	10
49	99
50	519
51	169
52	40
53	169
55	40
56	40
57	60
60	50
61	409
62	929
63	2389
64	179
65	30
66	10
69	10
70	20
71	40
72	40
73	189
74	809
75	1049
76	429
77	219
78	249
79	70
80	90
81	50
82	80
83	10
84	10
85	20
86	20
90	20
91	70
92	30
93	20
97	10
104	20
105	20
106	30
107	10
115	20
116	99
117	239
118	99
119	209
120	10
128	40
129	20
130	40
131	20
132	20
133	50
134	20
140	10
141	179
142	379
143	299
144	359
145	119
146	10
153	80
154	179
155	319
156	219
157	269
158	50
159	30
170	689
171	229
172	689
173	249
174	10
175	40
184	10
185	60
186	379
187	80
188	359
189	20
195	30
197	70
199	30
200	20
202	20
221	1379
222	90
223	2689
224	149
225	1319
226	70
233	60
234	10
235	129
236	20
237	70
238	10
239	10
248	10
249	2649
250	199
251	5149
252	359
253	2549
254	169
255	10
263	10
264	5099
265	399
266	9999
267	779
268	4869
269	369
270	20
