Mass Spectrum: Cyclohexaneethanol, acetate
Formula: C10 H18 O2
CAS: 21722-83-8
Molecular weight: 170
Origin: Japan AIST/NIMC Database- Spectrum MS-NW-7331
m/z	RELATIVE INTENSITY
14	10
15	179
18	10
26	30
27	589
28	169
29	629
30	20
31	90
32	40
38	30
39	959
40	169
41	2699
42	279
43	6909
44	209
45	99
46	10
50	40
51	109
52	70
53	549
54	2289
55	3809
56	329
57	70
58	129
59	70
60	40
61	1119
62	30
63	30
65	139
66	369
67	6569
68	2269
69	1519
70	229
71	70
72	10
73	229
74	20
75	10
77	129
78	50
79	419
80	539
81	9469
82	9999
83	1399
84	90
85	20
87	359
88	249
89	20
91	70
92	10
93	129
94	169
95	1709
96	149
97	80
98	20
99	10
102	10
103	10
104	50
105	20
106	10
107	30
108	199
109	1049
110	5029
111	509
112	30
115	20
123	10
124	10
125	99
126	159
127	40
137	30
142	10
152	40
155	149
156	10
