Mass Spectrum: O-Ethyl S-2-diethylaminoethyl ethylphosphonothiolate
Formula: C10 H24 N O2 P S
CAS: 21738-25-0
Molecular weight: 253
Origin: VERIFIN - Methodology B1-1979
m/z	RELATIVE INTENSITY
27	200
28	200
29	300
30	200
42	300
43	80
44	200
56	400
57	80
58	500
59	50
61	100
65	300
70	300
71	700
72	200
84	700
85	50
86	9999
87	500
93	500
98	50
99	2702
100	400
121	200
130	50
181	60
