Mass Spectrum: 5-Bromo-2-chlorobenzoic acid
Formula: C7 H4 Br Cl O2
CAS: 21739-92-4
Molecular weight: 234
Origin: Japan AIST/NIMC Database- Spectrum MS-NW-9693
m/z	RELATIVE INTENSITY
16	10
26	20
27	20
28	20
29	30
35	10
36	139
37	259
38	189
39	99
40	40
41	20
42	10
43	30
44	219
45	179
46	10
47	20
48	20
49	169
50	659
51	199
52	30
53	119
54	50
55	409
56	129
57	30
60	50
61	109
62	99
63	379
64	119
65	50
66	30
67	10
69	109
70	30
71	10
72	60
73	539
74	1739
75	2429
76	309
77	279
78	179
79	70
80	50
81	70
82	50
83	20
84	279
85	129
86	129
87	50
89	10
90	20
91	189
92	90
93	20
94	129
95	159
96	40
97	20
98	20
99	349
100	50
101	129
102	10
103	30
104	50
105	60
106	20
107	10
108	179
109	519
110	989
111	799
112	359
113	209
114	10
115	10
117	80
118	50
119	50
121	20
122	30
123	10
125	10
126	40
127	70
128	50
129	40
130	30
131	20
135	10
137	30
138	10
139	189
140	20
141	70
142	20
143	99
144	20
145	139
146	10
147	30
152	10
153	139
154	419
155	309
156	509
157	119
158	50
159	10
164	10
165	10
169	20
170	20
171	60
172	20
173	229
174	20
175	99
176	10
177	20
179	10
183	99
184	20
185	90
186	10
188	50
189	1579
190	389
191	2079
192	339
193	519
194	70
195	10
199	239
200	149
201	239
202	139
203	30
206	109
207	20
208	139
209	10
210	30
216	40
217	5179
218	449
219	6649
220	529
221	1659
222	129
232	10
233	20
234	7699
235	619
236	9999
237	769
238	2449
239	189
240	10
