Mass Spectrum: Pentanoic acid, pentyl ester
Formula: C10 H20 O2
CAS: 2173-56-0
Molecular weight: 172
Origin: V.Zaikin,Topchiev Inst.Petrochem.Synth.,Moscow
m/z	RELATIVE INTENSITY
27	841
28	1001
29	6126
30	290
31	290
34	20
36	100
37	150
38	270
39	3013
40	651
41	7517
42	4774
43	7046
44	931
45	480
48	20
50	100
51	270
52	70
53	631
54	340
55	5875
56	1491
57	9038
58	530
59	330
60	2412
61	1211
62	40
63	40
65	40
66	60
67	130
68	170
69	1051
70	9088
71	1882
72	110
73	1812
74	180
75	370
76	30
77	60
79	20
82	40
83	180
84	120
85	9999
86	460
87	270
95	50
96	20
100	150
101	130
102	601
103	8047
104	430
105	70
109	30
112	20
113	60
115	450
129	90
130	370
143	50
172	60
