Mass Spectrum: Flamenol
Formula: C7 H8 O3
CAS: 2174-64-3
Molecular weight: 140
Origin: Japan AIST/NIMC Database- Spectrum MS-NW-9929
m/z	RELATIVE INTENSITY
14	10
15	60
18	20
26	50
27	199
28	109
29	129
31	20
34	10
37	50
38	149
39	439
40	99
41	379
42	199
43	219
44	10
45	10
49	20
50	149
51	289
52	90
53	309
54	159
55	469
56	30
57	20
59	40
61	30
62	80
63	109
64	80
65	239
66	139
67	50
68	259
69	1139
70	179
71	109
77	30
78	30
79	299
80	30
81	299
82	689
83	159
84	50
85	10
92	30
93	449
94	159
95	179
96	149
97	539
98	40
99	40
107	20
108	20
109	199
110	2369
111	3949
112	279
113	20
121	129
122	40
123	90
124	50
125	30
126	10
137	20
138	10
139	779
140	9999
141	809
142	90
