Mass Spectrum: Pyridine, pentachloro-
Formula: C5 Cl5 N
CAS: 2176-62-7
Molecular weight: 249
Origin: NIST Mass Spectrometry Data Center, 1994
m/z	RELATIVE INTENSITY
12	77
24	46
26	12
35	589
36	323
37	172
38	289
39	9
47	864
48	181
49	280
50	51
53	10
59	100
60	34
61	132
62	221
63	37
71	335
72	43
73	235
74	519
75	59
76	80
77	73
78	22
82	122
83	402
84	109
85	316
86	22
87	56
89	39
90	36
91	10
94	771
95	552
96	508
97	219
98	57
99	54
106	266
108	246
109	1091
110	129
111	361
112	26
118	981
120	671
121	39
122	127
124	96
125	126
126	85
127	26
129	27
131	33
132	162
133	25
134	107
136	18
141	111
143	118
144	462
145	67
146	292
147	23
148	46
153	713
155	666
157	222
158	9
159	23
179	960
181	978
182	67
183	292
184	21
185	37
188	173
190	216
192	105
194	22
202	10
204	13
214	2492
216	3303
218	1629
219	100
220	351
221	19
222	28
249	6135
250	365
251	9999
252	590
253	6529
254	400
255	2061
256	127
257	322
258	14
259	20
