Mass Spectrum: Stannane, tetrapropyl-
Formula: C12 H28 Sn
CAS: 2176-98-9
Molecular weight: 292
Origin: M.GEILEN UNIVERSITE LIBRE DE BRUXELLES, BELGIUM
m/z	RELATIVE INTENSITY
39	250
40	80
41	430
42	160
43	170
44	20
112	30
113	90
114	20
115	90
116	490
117	1550
118	1450
119	2750
120	1900
121	3400
122	430
123	1360
124	210
125	630
127	210
130	30
131	320
132	250
133	570
134	280
135	700
136	60
137	190
138	20
139	140
141	30
143	60
144	30
145	130
146	50
147	160
148	50
149	130
150	20
151	60
153	30
154	20
155	80
156	20
157	330
158	110
159	1000
160	680
161	5000
162	2800
163	7600
164	2500
165	8400
166	320
167	1450
168	80
169	1420
170	60
175	50
176	50
177	90
178	50
179	90
181	10
183	10
187	10
189	60
190	30
191	90
192	30
193	110
195	20
197	20
199	310
200	30
201	250
202	190
203	4400
204	2750
205	7500
206	3150
207	9999
208	720
209	1440
210	140
211	1770
212	130
217	30
218	20
219	60
220	30
221	80
223	20
225	20
231	20
232	20
233	50
234	20
235	50
239	20
241	220
242	30
243	140
244	80
245	3000
246	1900
247	5100
248	2200
249	6900
250	690
251	1000
252	110
253	1200
254	120
259	30
260	20
261	50
262	20
263	60
288	20
289	10
290	10
291	10
292	30
