Mass Spectrum: Phosphonothioic acid, methyl-, S-(2-(diethylamino)ethyl) O-ethyl ester
Formula: C9 H22 N O2 P S
CAS: 21770-86-5
Molecular weight: 239
Origin: VERIFIN - Methodology B1-1979
m/z	RELATIVE INTENSITY
26	50
27	200
28	200
29	200
30	200
41	60
42	400
43	80
44	300
47	100
54	50
55	50
56	500
57	100
58	700
59	60
60	50
61	100
70	200
71	500
72	200
79	700
84	600
85	70
86	9999
87	600
99	2201
100	300
107	200
130	90
139	100
167	100
238	10
