Mass Spectrum: 2-Propenoic acid, ethenyl ester
Formula: C5 H6 O2
CAS: 2177-18-6
Molecular weight: 98
Origin: Japan AIST/NIMC Database- Spectrum MS-NW-4201
m/z	RELATIVE INTENSITY
12	10
13	30
14	109
15	339
16	10
18	10
24	10
25	90
26	579
27	4189
28	109
29	159
32	10
37	10
38	10
39	30
41	30
42	199
43	629
44	239
45	20
53	90
54	60
55	9999
56	319
57	30
70	239
71	10
98	319
99	20
