Mass Spectrum: Pentanoic acid, 2-methyl-, methyl ester
Formula: C7 H14 O2
CAS: 2177-77-7
Molecular weight: 130
m/z	RELATIVE INTENSITY
15	801
26	100
27	1161
28	871
29	1331
31	170
32	180
39	771
40	100
41	1972
42	721
43	4994
44	180
45	210
53	160
55	1251
56	641
57	2142
58	130
59	1271
69	550
70	350
71	2142
72	140
73	200
83	150
87	741
88	9999
89	410
99	1161
101	1271
102	170
115	210
130	30
