Mass Spectrum: Butanoic acid, 2-methylene-, methyl ester
Formula: C6 H10 O2
CAS: 2177-67-5
Molecular weight: 114
Origin: James Little,Eastman Chem.Co.,Kingsport,TN
m/z	RELATIVE INTENSITY
27	3033
29	3143
39	2983
40	631
41	811
43	821
51	671
53	2002
54	1862
55	9999
56	691
59	2482
66	280
68	150
69	400
71	420
72	130
81	480
82	2102
83	7086
84	490
85	350
86	140
99	2712
100	200
113	240
114	4774
115	671
