Mass Spectrum: 2,4-Dimethylbenzonitrile
Formula: C9 H9 N
CAS: 21789-36-6
Molecular weight: 131
Origin: M. NELSON, RES. DEP., IMPERIAL TOBACCO LTD., BRISTOL
m/z	RELATIVE INTENSITY
28	930
32	300
38	350
39	1230
41	220
49	130
51	1200
52	260
61	230
63	820
64	540
66	130
74	250
75	410
77	1510
78	600
86	120
87	190
89	880
90	270
101	260
102	520
103	1460
104	810
105	190
115	140
116	9999
117	1100
128	270
129	270
130	2560
131	7560
132	850
