Mass Spectrum: Mesurol sulfone
Formula: C11 H15 N O4 S
CAS: 2179-25-1
Molecular weight: 257
Origin: S.M. Lee, CA Export Lab. Services, CA, USA
m/z	RELATIVE INTENSITY
51	360
52	210
53	280
54	40
55	310
56	340
57	911
58	741
59	50
60	10
61	30
62	80
63	390
64	150
65	681
66	130
67	190
68	50
69	140
70	20
71	20
72	10
73	10
74	60
75	60
76	70
77	1171
78	260
79	330
80	100
81	210
82	40
84	20
85	30
86	20
87	40
88	20
89	110
90	90
91	2112
92	380
93	150
94	140
95	80
96	30
97	30
98	20
99	20
101	20
102	70
103	300
104	70
105	160
106	40
107	300
108	220
109	200
110	20
111	40
113	10
114	10
115	20
116	10
117	10
118	40
119	350
120	550
121	8267
122	761
123	100
124	10
125	20
130	10
132	10
133	40
134	40
135	70
137	4274
138	400
139	50
140	20
141	30
147	10
148	20
149	20
150	20
151	80
152	30
153	40
155	10
166	20
167	90
168	100
169	90
170	10
171	30
172	10
177	30
178	10
183	60
185	4024
186	360
187	240
188	30
197	10
200	9999
201	1051
202	530
203	60
207	10
213	10
240	20
257	120
258	20
