Mass Spectrum: Naphtho(2,1-f)quinoline
Formula: C17 H11 N
CAS: 218-08-6
Molecular weight: 229
Origin: Organic Synthesis Lab, MSU, Moscow.TRC 202q
m/z	RELATIVE INTENSITY
74	130
75	230
81	90
87	400
88	671
100	1301
101	1271
114	1111
150	170
151	110
174	180
175	180
176	160
189	150
198	130
199	240
200	981
201	921
202	480
203	170
216	110
217	550
218	110
225	160
226	230
227	1151
228	2132
229	9999
230	1842
231	160
