Mass Spectrum: 4-Amino-3-chlorobenzonitrile
Formula: C7 H5 Cl N2
CAS: 21803-75-8
Molecular weight: 152
Origin: NIST Mass Spectrometry Data Center, 1994
m/z	RELATIVE INTENSITY
12	42
13	24
14	34
16	28
17	20
18	34
24	25
25	83
26	217
27	42
28	871
35	101
36	190
37	970
38	1024
39	697
40	246
41	426
42	68
45	293
47	184
48	106
49	359
50	404
51	457
52	1304
53	169
54	78
59	220
60	200
61	644
62	1449
63	2006
64	904
65	820
66	313
67	45
71	40
72	123
73	403
74	101
75	416
76	655
77	238
78	50
79	23
84	51
85	40
86	148
87	257
88	660
89	962
90	2072
91	205
92	38
96	40
97	267
98	286
99	237
100	198
101	109
103	31
112	43
114	26
115	158
116	511
117	1429
118	127
124	565
125	1437
126	300
127	473
128	42
152	9999
153	975
154	2924
155	268
