Mass Spectrum: Silanediol, dimethyl-, diacetate
Formula: C6 H12 O4 Si
CAS: 2182-66-3
Molecular weight: 176
Origin: RADIAN CORP
m/z	RELATIVE INTENSITY
29	20
42	200
43	600
44	70
45	1380
46	100
47	390
58	80
59	520
60	130
61	500
62	160
63	390
74	540
75	4280
76	980
77	7260
78	470
79	290
91	80
103	70
116	1360
117	3330
118	420
119	9999
120	840
121	410
134	170
161	900
162	80
