Mass Spectrum: 2-Cyclopenten-1-one, 2-hydroxy-3,4-dimethyl-
Formula: C7 H10 O2
CAS: 21835-00-7
Molecular weight: 126
Origin: J.A. ENZELL, RES. DEP., SWED. TOB. CO., STOCKHOLM, SWEDEN
m/z	RELATIVE INTENSITY
41	2300
43	1600
55	2400
56	2300
69	3700
83	2800
97	1300
98	1400
111	4400
126	9999
