Mass Spectrum: 2-Hydroxy-3,5-dimethylcyclopent-2-en-1-one
Formula: C7 H10 O2
CAS: 21834-98-0
Molecular weight: 126
Origin: J.A. ENZELL, RES. DEP., SWED. TOB. CO., STOCKHOLM, SWEDEN
m/z	RELATIVE INTENSITY
41	4900
43	9000
53	2500
55	9999
69	2400
70	2000
83	6000
98	2900
111	5200
126	4600
