Mass Spectrum: Dexetimide
Formula: C23 H26 N2 O2
CAS: 21888-98-2
Molecular weight: 362
Origin: Patti Price, Georgia Bureau of Investigation, Decatur, Georgia
m/z	RELATIVE INTENSITY
41	160
42	700
43	40
44	150
47	10
50	10
51	120
52	50
53	60
54	80
55	440
56	130
57	20
58	10
59	10
61	10
62	10
63	10
64	30
65	610
66	40
67	60
68	60
69	60
70	30
71	10
72	10
74	10
75	10
76	20
77	200
78	80
79	60
80	110
81	10
82	2732
83	120
84	30
85	10
86	10
87	10
89	180
90	80
91	9999
92	820
93	40
94	10
95	10
96	100
97	20
98	40
99	10
100	10
101	10
102	50
103	110
104	310
105	100
106	90
107	10
108	10
110	10
113	10
114	10
115	320
116	90
117	210
118	190
119	70
120	690
121	80
126	10
127	20
128	160
129	170
130	50
131	40
132	180
133	50
134	80
135	10
139	10
141	80
142	40
143	50
144	60
145	10
146	290
147	30
148	10
149	10
152	10
153	10
154	10
155	20
156	10
157	10
158	90
159	20
160	90
161	10
162	10
165	10
166	10
168	10
169	10
170	90
171	70
172	1121
173	350
174	2532
175	410
176	10
179	10
182	10
183	10
184	10
186	10
187	10
188	10
189	60
190	10
199	10
207	10
208	10
209	10
210	10
223	10
241	10
242	30
243	10
248	10
249	10
250	10
251	10
262	10
263	10
271	1811
272	350
273	10
276	10
279	10
284	10
285	160
286	10
290	10
361	220
362	280
363	70
364	10
