Mass Spectrum: Pentanoic acid, 4-oxo-, 1-methylethyl ester
Formula: C8 H14 O3
CAS: 21884-26-4
Molecular weight: 158
Origin: W.Jennings, T.Shibamoto
m/z	RELATIVE INTENSITY
27	190
28	190
41	651
42	70
43	9999
44	70
55	270
56	1151
57	270
59	270
61	270
71	681
72	260
73	450
74	2282
75	190
98	180
99	6486
100	370
101	1181
103	70
116	591
117	480
130	70
143	190
