Mass Spectrum: Benzene, 1-methyl-2-[(3-methylphenyl)methyl]-
Formula: C15 H16
CAS: 21895-13-6
Molecular weight: 196
Origin: R.EVANS LOUISIANA STATE UNIV., NEW ORLEANS, LOUISIANA, USA
m/z	RELATIVE INTENSITY
27	200
38	120
39	450
41	190
50	180
51	370
52	150
53	220
63	300
64	180
65	420
66	100
75	230
76	500
77	950
78	400
79	670
80	100
81	110
82	300
83	350
84	100
88	260
89	950
90	220
91	450
96	920
97	500
98	420
102	160
103	740
104	7000
105	2000
106	240
115	530
116	120
127	150
128	400
129	180
139	200
141	350
151	150
152	430
153	280
154	220
155	100
164	250
165	2650
166	2300
167	540
168	80
176	200
177	210
178	1300
179	1250
180	870
181	9540
182	1720
195	1050
196	9999
197	1660
