Mass Spectrum: Nortricyclyl formate
Formula: C8 H10 O2
CAS: 21892-95-5
Molecular weight: 138
Origin: P. Vainiotalo, Dep. Chem., Joensuu Univ., Joensuu, Finland
m/z	RELATIVE INTENSITY
26	140
27	810
29	400
38	160
39	1700
41	1470
42	100
43	330
44	500
50	230
51	530
52	250
53	1070
54	870
55	1530
57	200
63	220
65	1180
66	9999
67	2220
68	680
69	240
72	100
77	2590
78	760
79	3560
80	520
81	2020
82	560
83	210
91	9780
92	9230
93	1660
94	210
95	1520
96	130
109	720
110	540
138	2120
139	220
