Mass Spectrum: Phenanthro(2,1-b)thiophene
Formula: C16 H10 S
CAS: 219-25-0
Molecular weight: 234
Origin: Organic Synthesis Lab, MSU, Moscow.TRC 349
m/z	RELATIVE INTENSITY
45	30
62	50
63	60
69	60
73	20
74	100
75	50
76	20
77	70
78	60
79	30
86	90
87	120
89	70
90	40
91	180
92	30
98	90
99	30
102	30
103	290
104	1261
106	30
109	50
110	80
111	30
115	220
116	971
117	2062
122	60
123	50
124	20
125	40
126	70
132	30
134	40
135	40
137	120
138	80
139	120
140	30
141	30
146	30
149	50
150	140
151	70
152	60
161	170
162	220
163	500
164	190
165	80
174	90
175	60
176	120
177	30
185	80
186	160
187	871
188	631
189	1712
190	320
191	30
195	40
198	30
199	70
200	290
201	200
202	651
203	90
206	80
207	60
208	270
209	50
232	1031
234	9999
235	1972
236	611
