Mass Spectrum: Phenol, o-(o-methoxyphenoxy)-
Formula: C13 H12 O3
CAS: 21905-60-2
Molecular weight: 216
m/z	RELATIVE INTENSITY
39	2002
40	200
50	701
51	1501
52	1601
53	601
55	701
63	1101
64	1201
65	1702
66	200
77	1601
78	1001
79	100
80	500
81	1101
82	100
92	1101
93	601
107	701
108	9999
109	1001
110	100
184	1001
185	100
201	500
216	9008
217	1301
218	100
