Mass Spectrum: Estrone, heptafluorobutyrate
Formula: C22 H21 F7 O3
CAS: 2192-60-1
Molecular weight: 466
Origin: NIST Mass Spectrometry Data Center
m/z	RELATIVE INTENSITY
15	20
20	40
25	10
26	40
27	410
28	430
29	581
30	20
31	60
37	10
38	30
39	861
40	210
41	2823
42	410
43	661
44	140
45	50
50	140
51	350
52	180
53	1351
54	300
55	3693
56	330
57	440
58	30
59	10
62	50
63	250
64	130
65	891
66	270
67	2702
68	550
69	7687
70	160
71	130
72	20
73	30
74	50
75	80
76	190
77	1842
78	851
79	2062
80	300
81	2132
82	530
83	591
84	110
85	200
86	20
87	30
88	40
89	470
90	170
91	3433
92	440
93	1341
94	460
95	1411
96	340
97	6336
98	601
99	70
100	711
101	130
102	530
103	1221
104	701
105	1181
106	270
107	1561
108	250
109	1121
110	1211
111	340
112	60
113	80
114	230
115	9999
116	2282
117	2142
118	280
119	1331
120	160
121	631
122	100
123	701
124	170
125	30
126	160
127	4064
128	5735
129	4534
130	1101
131	1441
132	380
133	941
134	130
135	170
136	40
137	90
138	70
139	470
140	691
141	6286
142	1682
143	1952
144	841
145	1772
146	390
147	240
148	40
149	220
150	220
151	280
152	1451
153	2212
154	1041
155	2152
156	691
157	1742
158	731
159	1081
160	170
161	60
162	20
163	200
164	130
165	1712
166	771
167	1321
168	510
169	7567
170	561
171	801
172	190
173	100
174	20
175	20
176	60
177	160
178	651
179	801
180	320
181	751
182	310
183	520
184	250
185	470
186	100
187	40
188	10
189	60
190	70
191	180
192	130
193	671
194	230
195	410
196	320
197	1051
198	280
199	140
200	20
201	20
202	30
203	20
204	20
205	120
206	40
207	100
208	80
209	510
210	160
211	230
212	140
213	100
214	20
215	10
217	20
218	20
219	150
220	30
221	30
222	30
223	80
224	20
225	110
226	30
227	60
228	10
230	10
231	20
232	10
233	40
234	80
235	901
236	190
237	30
238	10
239	20
241	40
242	10
245	10
246	10
247	10
248	10
250	10
251	100
252	190
253	2292
254	430
255	60
256	10
259	10
263	10
265	10
269	30
270	20
275	40
276	10
277	20
279	20
280	10
281	30
283	40
285	20
287	10
289	20
290	10
291	10
292	10
293	10
295	10
297	20
299	30
300	10
301	10
303	210
304	20
305	10
306	10
307	10
309	40
310	10
311	10
312	20
313	30
314	40
315	10
316	210
317	100
318	20
321	10
323	10
324	10
325	30
326	10
327	170
328	150
329	931
330	160
331	30
332	10
333	10
334	10
335	20
336	10
337	20
338	10
339	10
340	420
341	681
342	1151
343	320
344	50
345	10
346	10
349	10
351	10
352	10
353	1772
354	1922
355	2152
356	3083
357	601
358	90
359	30
361	10
362	10
363	20
364	10
365	20
366	370
367	550
368	2372
369	561
370	280
371	80
373	20
375	30
376	10
377	30
378	20
379	130
380	170
381	711
382	761
383	180
384	40
385	10
387	30
389	80
390	20
391	160
392	130
393	270
394	340
395	1251
396	370
397	70
398	10
399	10
401	10
402	10
403	30
404	10
405	300
406	621
407	2262
408	591
409	4394
410	2702
411	490
412	50
413	10
415	20
419	190
420	380
421	140
422	7146
423	1692
424	420
425	80
426	10
429	80
430	20
431	20
433	711
434	150
435	50
436	20
437	120
438	180
439	40
446	10
447	110
448	971
449	260
450	50
451	90
452	10
453	10
463	10
464	50
466	7156
467	1732
468	230
469	30
