Mass Spectrum: 4-Chloro-4'-nitrodiphenyl sulfide
Formula: C12 H8 Cl N O2 S
CAS: 21969-11-9
Molecular weight: 265
Origin: NIST Mass Spectrometry Data Center, 1994
m/z	RELATIVE INTENSITY
12	23
16	10
17	23
18	82
28	156
30	2787
32	8
35	63
36	66
37	219
38	566
39	828
40	46
45	1008
46	411
47	75
48	20
49	8
50	3266
51	949
52	99
53	73
57	214
58	490
60	57
61	270
62	605
63	2163
64	446
65	146
69	2112
70	307
71	153
72	56
73	531
74	1042
75	2044
76	863
77	169
78	63
79	317
80	93
81	379
82	964
83	117
84	146
85	281
86	115
87	182
88	74
89	305
90	124
91	867
92	620
93	229
94	44
95	116
96	132
97	70
98	44
99	739
100	105
101	357
102	111
103	59
105	95
106	129
108	3347
109	400
110	238
111	343
112	59
113	250
114	191
115	184
116	36
117	29
118	59
120	47
121	29
122	25
123	67
124	81
125	115
126	106
127	154
128	113
132	63
133	140
134	117
136	62
137	92
139	2259
140	477
141	51
142	51
143	789
144	138
145	385
146	76
147	32
149	273
150	222
151	401
152	1188
153	153
154	30
155	87
156	27
157	84
158	231
159	31
160	36
162	32
163	28
168	125
169	44
171	1160
172	1584
173	348
174	101
175	105
176	20
177	26
181	76
182	311
184	8615
185	1325
186	689
187	100
188	76
192	41
198	24
199	49
200	142
201	25
203	51
205	54
206	25
207	155
208	31
209	57
213	102
214	24
218	504
219	891
220	312
221	349
222	48
230	59
235	2044
236	307
237	787
238	116
239	44
249	103
251	36
263	29
265	9999
266	1567
267	3700
268	547
269	187
