Mass Spectrum: 1-Propanamine, N-(1-methylethyl)-
Formula: C6 H15 N
CAS: 21968-17-2
Molecular weight: 101
Origin: AIR PRODUCTS & CHEMICALS, INC BOX 538, ALLENTOWN, PA 18105, D M PAREES
m/z	RELATIVE INTENSITY
27	1480
29	470
30	8290
31	140
39	860
40	180
41	2280
42	1120
43	2390
44	7240
45	200
54	130
56	720
57	260
58	1670
70	380
71	110
72	8450
73	470
84	160
86	9999
87	650
100	660
101	2010
102	300
