Mass Spectrum: 2-Butene, 1,1-dimethoxy-
Formula: C6 H12 O2
CAS: 21962-24-3
Molecular weight: 116
Origin: RADIAN CORP
m/z	RELATIVE INTENSITY
14	30
15	340
26	130
27	550
28	80
29	1470
30	240
31	390
33	120
37	70
38	200
39	1690
40	190
41	1010
42	230
43	280
44	20
45	1190
46	20
47	550
50	130
51	170
52	70
53	1380
54	130
55	3570
56	200
57	90
58	40
59	520
67	20
68	90
69	930
70	60
71	130
73	70
74	30
75	2060
76	80
83	60
84	330
85	9999
86	630
87	40
88	210
101	2360
102	140
115	330
116	50
