Mass Spectrum: Naphthalene, 2,7-dichloro-
Formula: C10 H6 Cl2
CAS: 2198-77-8
Molecular weight: 196
Origin: Div. of Experiment Therapeutics WRAIR, WRAMC, Washington DC 20307
m/z	RELATIVE INTENSITY
47	38
49	300
50	666
51	448
52	55
60	57
61	458
62	963
63	1629
65	29
67	180
68	90
69	8
72	36
73	200
74	808
75	1073
76	296
77	37
79	14
80	1114
81	480
84	111
85	580
86	513
87	275
88	33
96	24
97	138
98	1857
99	1608
100	295
101	42
108	43
109	64
110	57
111	77
120	16
121	60
122	95
123	123
124	107
125	811
126	2628
127	274
135	17
136	27
159	34
160	589
161	1807
162	368
163	586
164	64
194	43
196	9999
197	1175
198	6062
199	655
200	980
201	100
