Mass Spectrum: 3,3-Dimethoxy-2-butanone
Formula: C6 H12 O3
CAS: 21983-72-2
Molecular weight: 132
Origin: Chuck Anderson, Aldrich Chemical Co.
m/z	RELATIVE INTENSITY
13	12
14	128
15	1464
16	19
18	4
25	8
26	108
27	356
28	116
29	605
30	52
31	380
32	18
33	59
37	2
38	15
39	74
40	18
41	174
42	497
43	9999
44	241
45	176
46	3
47	1125
48	24
50	14
51	15
52	2
53	133
54	18
55	89
56	13
57	148
58	84
59	256
60	2
68	11
69	383
70	87
71	9
72	24
73	2131
74	103
75	115
83	166
84	5
85	25
86	43
87	6
88	23
89	7529
90	323
91	39
99	54
100	4
101	4382
102	239
103	25
117	30
