Mass Spectrum: Phenol, 2-bromo-4-(1,1-dimethylethyl)-
Formula: C10 H13 Br O
CAS: 2198-66-5
Molecular weight: 228
m/z	RELATIVE INTENSITY
15	30
17	40
18	170
26	20
27	230
28	60
29	180
32	20
37	30
38	110
39	601
40	60
41	871
42	40
43	90
44	40
45	30
46	20
49	10
50	150
51	571
52	130
53	360
54	30
55	200
56	20
57	110
58	30
59	240
60	30
61	50
62	180
63	470
64	180
65	400
66	621
67	150
72	20
73	60
74	100
75	100
76	50
77	661
78	220
79	240
80	30
81	20
85	10
86	20
87	30
88	40
89	260
90	120
91	380
92	100
93	60
94	270
95	100
103	170
105	380
106	150
107	320
118	370
119	410
120	110
121	70
132	130
133	100
134	561
135	3523
136	1001
137	90
149	110
151	180
170	120
171	100
172	120
173	100
183	1031
184	100
185	1011
186	80
198	150
199	70
200	170
201	60
202	20
213	9999
214	1071
215	9839
216	991
228	2552
229	290
230	2512
231	280
