Mass Spectrum: 4-Heptanol, 4-propyl-
Formula: C10 H22 O
CAS: 2198-72-3
Molecular weight: 158
Origin: NIST Mass Spectrometry Data Center, 1990.
m/z	RELATIVE INTENSITY
27	1065
28	212
29	847
31	254
32	15
39	1155
40	330
41	3153
42	412
43	2174
44	113
45	385
50	57
51	169
52	106
53	706
54	57
55	9999
56	1146
57	658
58	501
59	1246
63	52
65	237
66	103
67	779
68	52
69	3274
70	790
71	683
72	52
73	2151
74	97
77	206
79	229
81	291
82	90
83	374
84	436
85	82
86	77
91	58
95	95
97	3153
98	706
99	123
111	56
112	91
115	7522
116	588
140	883
141	96
