Mass Spectrum: 1,2-Dichlorobenzene-D4
Formula: C6 D4 Cl2
CAS: 2199-69-1
Molecular weight: 150
Origin: NIST Mass Spectrometry Data Center, 1990.
m/z	RELATIVE INTENSITY
12	72
14	48
16	28
24	60
26	166
28	484
30	226
32	5
35	875
36	225
37	457
38	1416
39	368
40	1061
41	53
42	385
43	29
47	295
48	162
49	222
50	1274
51	29
52	4898
53	306
54	1013
55	29
56	806
57	306
59	37
60	112
61	237
62	304
63	338
64	245
65	114
66	251
70	35
71	65
72	76
73	376
74	542
75	1236
76	2679
77	659
78	4765
79	347
80	546
83	26
84	71
85	643
86	26
87	1005
88	84
89	384
96	57
97	32
98	35
99	158
101	53
108	96
109	47
110	69
111	123
112	53
113	351
114	32
115	5713
116	417
117	1817
118	130
122	54
124	30
150	9999
151	667
152	6455
153	429
154	1024
155	67
