Mass Spectrum: 2,4,5-Trimethyl-1H-pyrrole-3-carboxylic acid ethyl ester
Formula: C10 H15 N O2
CAS: 2199-54-4
Molecular weight: 181
Origin: A.A.Kutin, Moscow, Russia
m/z	RELATIVE INTENSITY
33	378
34	31
36	6
39	786
40	689
41	780
42	1822
43	151
44	58
45	65
50	29
51	76
52	78
53	224
54	71
55	75
57	12
60	6
61	168
62	22
63	143
64	131
65	704
66	614
67	604
68	197
69	34
70	5
76	10
77	127
78	64
79	216
80	163
81	155
82	47
83	17
91	55
92	99
93	328
94	121
95	41
96	381
97	26
100	4
104	7
107	2715
108	1113
109	266
110	58
112	5
117	7
119	12
120	107
121	7
122	114
123	34
124	22
127	6
128	5
132	11
134	1000
135	1759
136	4193
137	440
138	196
150	218
152	9999
153	1047
154	103
179	103
181	8319
182	847
183	76
