Mass Spectrum: 1H-Pyrrole, 2,3,5-trimethyl-
Formula: C7 H11 N
CAS: 2199-41-9
Molecular weight: 109
Origin: D. GAMES, M. HEWLINS, A. JACKSON, CHEM DEPT, UNIV COLL, CARDIFF, U.K.
m/z	RELATIVE INTENSITY
41	460
42	1271
47	126
50	154
51	252
52	232
53	648
54	525
55	134
57	150
62	69
63	171
64	118
65	725
66	391
67	1112
68	142
69	85
70	93
71	273
77	32
79	236
80	187
81	150
83	48
85	61
91	122
92	326
93	1288
94	2600
95	256
106	350
107	864
108	9999
109	6343
110	485
