Mass Spectrum: N-Allyl-2-pyridone
Formula: C8 H9 N O
CAS: 21997-30-8
Molecular weight: 135
Origin: NIST Mass Spectrometry Data Center, 1994
m/z	RELATIVE INTENSITY
12	39
13	58
14	194
15	598
16	27
18	79
25	151
26	1530
27	2904
28	2040
29	307
30	100
36	87
37	1103
38	2591
39	9999
40	1621
41	5278
42	413
43	44
48	43
49	244
50	1550
51	3017
52	2536
53	2108
54	592
55	199
56	59
61	38
62	80
63	198
64	401
65	547
66	892
67	3742
68	476
69	29
74	32
75	86
76	129
77	680
78	2661
79	4093
80	2234
81	686
82	49
89	82
90	46
91	302
92	449
93	207
94	179
95	581
96	537
97	33
104	224
106	3370
107	383
108	310
109	157
116	276
117	467
118	1878
119	150
120	8042
121	680
122	43
134	7738
135	4915
136	489
137	28
