Mass Spectrum: 6-Tridecanone
Formula: C13 H26 O
CAS: 22026-12-6
Molecular weight: 198
Origin: NIST Mass Spectrometry Data Center, 1990.
m/z	RELATIVE INTENSITY
27	2674
28	1421
29	4289
39	1493
41	5940
42	1811
43	9999
44	360
53	463
55	3216
56	845
57	8136
58	7320
59	2504
67	747
68	197
69	483
71	7124
72	1821
81	376
82	871
83	390
84	371
85	1368
86	538
95	295
96	212
97	180
99	4468
100	676
109	461
113	295
114	895
115	663
124	159
127	4468
128	394
142	541
143	161
155	432
198	276
