Mass Spectrum: 3,4-Methylenedioxybenzhydrazide
Formula: C8 H8 N2 O3
CAS: 22026-39-7
Molecular weight: 180
Origin: NIST Mass Spectrometry Data Center, 1994
m/z	RELATIVE INTENSITY
4	25
14	36
16	42
17	35
18	40
26	87
27	81
28	269
29	414
30	164
31	557
32	53
37	253
38	259
39	710
40	57
42	47
43	42
44	62
49	87
50	345
51	390
52	147
53	483
54	39
60	72
61	373
62	1174
63	2611
64	39
65	3374
66	238
74	196
75	53
76	52
77	85
78	59
79	126
80	54
89	24
91	978
92	167
93	34
106	38
119	139
121	3386
122	269
123	21
146	48
147	48
149	9999
150	853
151	129
165	69
180	1457
181	141
