Mass Spectrum: 1,3,6-Octatriene, (E,E)-
Formula: C8 H12
CAS: 22038-69-3
Molecular weight: 108
Origin: D.HENNEBERG, MAX-PLANCK INSTITUTE, MULHEIM, WEST GERMANY
m/z	RELATIVE INTENSITY
25	13
26	176
27	1975
28	236
29	776
30	17
32	4
34	7
35	10
36	1
37	119
38	282
39	3537
40	583
41	2885
42	160
43	77
44	4
45	22
46	10
48	6
49	58
50	499
51	1184
52	646
53	1522
54	561
55	533
56	62
57	7
58	16
59	13
60	7
61	47
62	127
63	382
64	127
65	1623
66	2560
67	1403
68	162
69	20
70	4
71	2
73	21
74	99
75	290
76	81
77	7675
78	2083
79	9999
80	1839
81	375
82	26
85	7
86	9
87	23
88	6
89	168
90	51
91	5046
92	617
93	5364
94	422
95	11
98	6
101	3
102	14
103	91
104	34
105	305
106	119
107	307
108	2732
109	255
110	12
