Mass Spectrum: 1-(5-Methyl-2-pyrazinyl)-1-ethanone
Formula: C7 H8 N2 O
CAS: 22047-27-4
Molecular weight: 136
Origin: Philip Morris R&D
m/z	RELATIVE INTENSITY
38	255
39	383
40	652
41	181
42	154
43	1299
44	326
47	22
49	370
51	92
52	31
53	379
54	44
55	22
64	75
66	1246
67	991
68	150
77	35
84	225
86	132
93	2893
94	5455
95	476
108	1686
109	123
121	462
136	9999
137	920
