Mass Spectrum: 1-(6-Methyl-2-pyrazinyl)-1-ethanone
Formula: C7 H8 N2 O
CAS: 22047-26-3
Molecular weight: 136
Origin: Philip Morris R&D
m/z	RELATIVE INTENSITY
38	479
39	1913
40	1237
41	347
42	573
43	5014
44	389
47	56
49	218
51	299
52	779
53	1151
54	68
55	64
62	4
63	21
64	235
65	201
66	2045
67	2135
68	424
80	86
81	26
84	184
86	158
88	9
92	21
93	5802
94	7115
95	441
107	141
108	1848
109	86
120	13
121	1352
122	77
136	9999
137	856
138	9
