Mass Spectrum: 2-Benzyloxyphenylacetic acid
Formula: C15 H14 O3
CAS: 22047-88-7
Molecular weight: 242
Origin: NIST Mass Spectrometry Data Center, 1994
m/z	RELATIVE INTENSITY
26	42
27	163
28	17
29	41
37	28
38	126
39	879
40	67
41	174
42	21
43	7
44	13
45	176
50	244
51	738
52	330
53	151
54	14
55	26
60	7
61	21
62	111
63	427
64	7
65	1448
66	119
67	17
69	9
73	2
74	46
75	54
76	2
77	810
78	533
79	190
80	18
81	20
82	10
83	12
86	18
87	17
89	308
91	9999
92	783
93	31
98	32
105	71
106	79
107	317
108	155
109	36
115	15
128	10
134	502
135	63
136	10
141	8
151	9
152	26
153	12
165	18
166	9
167	12
178	8
181	16
242	387
243	65
244	4
