Mass Spectrum: 3-Penten-1-yne
Formula: C5 H6
CAS: 2206-23-7
Molecular weight: 66
Origin: NIST Mass Spectrometry Data Center, 1990.
m/z	RELATIVE INTENSITY
12	61
13	53
14	112
15	167
24	74
25	189
26	597
27	1004
28	10
31	650
32	172
36	338
37	1496
38	2622
39	8168
40	4935
41	205
48	114
49	511
50	1375
51	1338
52	58
60	425
61	1335
62	1618
63	2366
64	746
65	5718
66	9999
67	552
