Mass Spectrum: Cyclohexane, 1,4-dimethyl-, trans-
Formula: C8 H16
CAS: 2207-04-7
Molecular weight: 112
m/z	RELATIVE INTENSITY
14	10
15	310
16	10
26	100
27	2092
28	611
29	1852
30	40
37	20
38	50
39	1862
40	380
41	4324
42	1712
43	971
44	30
45	10
46	20
47	10
50	30
51	140
52	80
53	591
54	390
55	9999
56	2462
57	711
58	30
62	10
63	20
64	10
65	90
66	60
67	410
68	230
69	1611
70	1161
71	140
72	10
75	10
77	90
78	20
79	70
80	10
81	180
82	230
83	1041
84	671
85	60
89	10
91	30
92	10
93	10
94	10
95	50
96	561
97	9298
98	701
99	20
109	10
110	10
111	140
112	3483
113	300
114	10
