Mass Spectrum: Cyclohexane, 1,2-dimethyl-, cis-
Formula: C8 H16
CAS: 2207-01-4
Molecular weight: 112
Origin: Japan AIST/NIMC Database- Spectrum MS-NW-1104
m/z	RELATIVE INTENSITY
14	20
15	99
26	80
27	1509
28	90
29	1449
30	30
32	10
37	20
38	80
39	1709
40	279
41	4619
42	2759
43	1349
44	109
45	30
50	90
51	179
52	70
53	589
54	349
55	9999
56	3549
57	949
58	40
59	10
62	20
63	50
65	109
66	50
67	599
68	639
69	2689
70	3969
71	439
72	20
77	109
78	30
79	99
80	20
81	129
82	1079
83	4189
84	1189
85	80
91	40
93	10
95	50
96	149
97	6999
98	549
99	20
111	80
112	3199
113	309
114	10
