Mass Spectrum: Benzenepropanoic acid, hexyl ester
Formula: C15 H22 O2
CAS: 220766-75-6
Molecular weight: 234
Origin: V.Zaikin,Topchiev Inst.Petrochem.Synth.,Moscow
m/z	RELATIVE INTENSITY
27	310
28	100
29	440
30	40
31	70
36	140
37	90
38	180
39	1091
40	210
41	1802
42	601
43	4184
44	460
45	200
46	20
49	80
50	701
51	1451
52	400
53	330
54	110
55	1101
56	430
57	591
58	70
60	70
61	100
62	190
63	510
64	100
65	1011
66	50
67	110
68	30
69	300
70	30
71	50
72	210
73	170
74	310
75	260
76	290
77	2022
78	1742
79	1091
80	80
81	40
82	50
83	100
84	290
85	591
86	80
87	40
88	20
89	290
90	100
91	9408
92	861
93	60
94	40
95	40
96	50
97	90
98	50
99	40
101	60
102	300
103	1371
104	9999
105	4044
106	370
107	1872
108	150
111	40
113	30
115	30
117	40
118	20
119	30
121	50
122	30
123	20
129	30
130	60
131	360
132	621
133	781
134	60
139	120
141	40
145	20
146	30
147	70
148	80
149	380
150	4124
151	571
152	30
233	30
234	1021
235	170
