Mass Spectrum: Benzoic acid, 2-(dimethylamino)ethyl ester
Formula: C11 H15 N O2
CAS: 2208-05-1
Molecular weight: 193
Origin: Japan AIST/NIMC Database- Spectrum MS-NW-7591
m/z	RELATIVE INTENSITY
15	70
18	10
27	60
28	80
29	60
30	199
38	10
39	30
41	40
42	469
43	159
44	139
45	30
50	109
51	369
52	20
53	10
54	20
55	30
56	229
57	149
58	9999
59	359
70	70
71	1789
72	159
73	10
74	30
75	30
76	50
77	779
78	60
86	20
88	10
91	10
105	609
106	50
122	20
149	90
150	10
