Mass Spectrum: 4(1H)-Pyrimidinone, 6-amino-2-methyl-5-nitroso-
Formula: C5 H6 N4 O2
CAS: 2209-72-5
Molecular weight: 154
Origin: LAC, NIDDK, NIH, Bethesda, MD 20892
m/z	RELATIVE INTENSITY
41	1552
42	9999
43	2250
44	891
53	1525
54	1353
55	3539
68	1203
69	1079
70	1600
81	1348
82	166
96	301
137	1869
138	220
153	2261
154	7121
155	639
