Mass Spectrum: Oxirane, [(2-methylphenoxy)methyl]-
Formula: C10 H12 O2
CAS: 2210-79-9
Molecular weight: 164
Origin: RADIAN CORP
m/z	RELATIVE INTENSITY
15	70
25	20
26	440
27	2310
29	3850
30	280
31	2660
37	110
38	400
39	2310
41	490
42	290
43	310
50	1150
51	2510
52	1450
53	1290
54	110
55	290
57	3930
58	150
59	10
61	100
62	380
63	1280
64	370
65	3040
66	310
67	80
68	70
69	30
71	20
73	40
74	260
75	160
76	240
77	7900
78	3200
79	3850
80	1830
81	190
82	30
85	20
87	50
89	1230
90	1960
91	8670
92	820
93	1290
94	150
95	50
102	20
103	160
104	50
105	1030
106	1330
107	6540
108	9999
109	780
110	50
115	150
116	100
117	190
118	100
119	1540
120	250
121	2510
122	260
123	30
129	30
131	300
132	40
133	1110
134	1150
135	250
136	30
145	230
146	30
147	40
148	30
149	20
164	9850
165	1090
166	100
