Mass Spectrum: 2H-Azepin-2-one, hexahydro-5-methyl-
Formula: C7 H13 N O
CAS: 2210-07-3
Molecular weight: 127
Origin: V.KUBELKA INST. OF CHEM. TECH., PRAGUE, CZECHOSLOVAKIA
m/z	RELATIVE INTENSITY
14	100
15	500
16	100
17	380
18	1390
25	100
26	400
27	1900
28	3850
29	1670
30	9999
31	250
37	100
38	200
39	1450
40	263
41	3300
42	2100
43	1800
44	900
45	250
46	110
50	190
51	290
52	280
53	600
54	410
55	4100
56	3800
57	500
58	200
59	100
60	100
65	100
66	100
67	550
68	250
69	4500
70	1800
71	260
72	260
73	110
77	100
78	100
79	120
80	130
81	600
82	400
83	800
84	550
85	300
86	200
95	100
96	200
97	200
98	1700
99	2790
100	200
108	100
109	100
110	2200
111	150
112	200
125	110
126	200
127	1700
128	300
