Mass Spectrum: Butane, 2,3-dichloro-, (R*,R*)-(.+/-.)-
Formula: C4 H8 Cl2
CAS: 2211-67-8
Molecular weight: 126
m/z	RELATIVE INTENSITY
12	110
13	160
14	360
15	1571
16	30
24	40
25	250
26	1822
27	9028
28	1321
29	1732
30	40
35	330
36	40
37	530
38	621
39	2833
40	230
41	1171
42	160
43	2652
44	70
45	230
46	10
47	80
48	110
49	761
50	661
51	761
52	170
53	831
54	240
55	4684
56	420
57	30
58	10
59	10
60	80
61	300
62	9248
63	9999
64	3133
65	3163
66	70
70	10
71	20
72	30
73	100
74	10
75	811
76	70
77	250
78	20
83	100
84	10
85	80
86	10
87	20
88	10
89	70
90	2392
91	671
92	781
93	210
94	10
95	10
96	30
97	20
98	20
110	10
111	30
112	10
113	20
126	150
127	10
128	90
130	10
