Mass Spectrum: Molinate
Formula: C9 H17 N O S
CAS: 2212-67-1
Molecular weight: 187
Origin: D.G.Hayward MS, Center for Food Safety and Applied Nutrition, FDA, College Park MD.
m/z	RELATIVE INTENSITY
40	30
41	1501
42	691
43	320
44	370
45	60
46	50
47	70
51	30
52	10
53	190
54	240
55	8948
56	1361
57	190
58	210
59	100
60	90
61	210
62	90
63	40
64	10
65	100
66	30
67	200
68	400
69	581
70	891
71	70
72	70
73	40
74	10
75	60
76	110
77	30
78	20
79	130
80	40
81	721
82	290
83	4144
84	641
85	50
86	20
87	10
88	10
89	350
90	30
91	80
92	40
93	50
94	30
95	20
96	160
97	410
98	2602
99	200
100	20
101	20
102	30
103	10
104	40
106	10
108	70
109	50
110	10
111	10
112	30
113	10
115	10
116	20
118	10
124	90
126	9999
127	1531
128	120
129	10
130	60
131	10
132	10
142	10
144	10
153	20
154	410
155	50
156	10
158	460
159	340
160	50
161	20
185	40
186	20
187	3163
188	390
189	170
190	20
