Mass Spectrum: Benzene, 1,3,5-trichloro-2-isothiocyanato-
Formula: C7 H2 Cl3 N S
CAS: 22134-07-2
Molecular weight: 237
Origin: NIST Mass Spectrometry Data Center, 1994
m/z	RELATIVE INTENSITY
4	7
28	150
32	262
35	162
36	134
37	528
38	174
44	428
45	104
46	50
47	223
48	99
49	303
50	275
51	83
58	162
60	250
61	534
62	422
63	223
65	69
68	45
69	146
70	517
71	174
72	268
73	779
74	1220
75	311
76	64
79	592
80	43
81	290
82	128
83	275
84	511
85	244
86	303
87	382
88	413
89	46
93	44
94	113
95	80
96	110
97	180
98	359
99	364
100	244
101	178
102	122
103	110
105	77
106	110
107	370
108	576
109	707
110	262
111	212
117	70
118	518
119	428
120	175
122	150
124	62
130	38
131	164
132	207
133	96
134	226
135	55
136	75
141	69
143	584
144	298
145	319
146	188
147	72
158	545
159	44
160	355
162	68
167	1477
168	147
169	625
170	170
171	90
172	86
176	71
178	94
179	646
180	58
181	607
182	55
183	194
193	136
195	119
201	132
202	825
203	155
204	584
205	947
206	209
207	828
208	81
209	281
210	75
211	57
212	35
237	9845
238	1052
239	9999
240	963
241	3508
242	326
243	575
