Mass Spectrum: Alclofenac
Formula: C11 H11 Cl O3
CAS: 22131-79-9
Molecular weight: 226
Origin: RP-438-4
m/z	RELATIVE INTENSITY
39	1596
41	9999
51	1316
52	140
77	560
78	168
89	448
90	224
105	224
113	420
115	308
117	308
131	560
141	5434
142	448
143	2381
145	1288
163	280
181	1512
183	504
191	560
226	2689
228	924
