Mass Spectrum: Butalamine
Formula: C18 H28 N4 O
CAS: 22131-35-7
Molecular weight: 316
Origin: Finnigan MAT: Toxicological Library (LIBR-TX)
m/z	RELATIVE INTENSITY
41	306
44	389
56	87
57	392
58	216
70	90
77	191
84	203
86	199
98	200
100	786
103	190
112	394
127	99
140	202
142	9999
143	1129
145	195
155	577
156	94
188	195
273	103
