Mass Spectrum: 3,5-Dichlorosulfanilamide
Formula: C6 H6 Cl2 N2 O2 S
CAS: 22134-75-4
Molecular weight: 240
Origin: Japan AIST/NIMC Database- Spectrum MS-NW-1192
m/z	RELATIVE INTENSITY
14	40
15	30
16	219
17	40
25	20
26	90
27	189
28	569
29	90
30	40
32	20
33	20
34	30
35	90
36	469
37	529
38	529
39	609
40	90
41	479
42	139
43	249
44	389
45	129
46	279
47	239
48	569
49	379
50	479
51	509
52	2709
53	369
54	159
55	239
56	99
57	289
58	30
59	20
60	289
61	1469
62	2609
63	2169
64	1509
65	889
66	109
67	119
68	80
69	279
70	109
71	159
72	359
73	1669
74	469
75	1109
76	739
77	319
78	809
79	139
80	339
81	119
82	90
83	199
84	139
85	369
86	459
87	419
88	1259
89	1969
90	2549
91	229
92	40
93	99
94	70
95	159
96	489
97	2339
98	629
99	1029
100	309
101	139
102	70
103	70
104	159
105	329
106	119
107	219
108	119
109	199
110	99
111	70
112	419
113	249
114	609
115	109
116	179
117	40
118	20
119	20
120	50
121	139
122	129
123	269
124	9999
125	2099
126	3349
127	669
128	70
129	60
130	50
131	149
132	179
133	2299
134	249
135	1359
136	119
137	239
138	20
139	239
140	479
141	389
142	269
143	119
144	70
145	50
146	20
147	30
148	829
149	99
150	509
151	60
152	80
153	20
154	10
155	50
156	99
157	90
158	169
159	519
160	6039
161	869
162	3859
163	409
164	589
165	60
166	10
167	10
169	10
171	10
172	10
173	10
174	40
175	389
176	7029
177	1399
178	4519
179	759
180	739
181	109
182	20
188	20
190	40
191	40
192	60
193	80
194	40
195	119
196	10
197	80
199	30
205	70
206	40
207	30
208	199
209	40
210	119
211	20
212	30
213	10
215	10
216	10
220	10
221	10
222	30
223	10
224	4249
225	339
226	2829
227	239
228	549
229	50
230	20
238	10
239	20
240	4649
241	409
242	3149
243	279
244	619
245	50
246	30
