Mass Spectrum: 1-Piperidinamine
Formula: C5 H12 N2
CAS: 2213-43-6
Molecular weight: 100
Origin: Japan AIST/NIMC Database- Spectrum MS-NW-5765
m/z	RELATIVE INTENSITY
14	30
15	299
16	159
17	20
18	50
25	10
26	269
27	1269
28	989
29	879
30	789
31	189
32	30
33	10
37	40
38	119
39	1049
40	199
41	1569
42	1989
43	1529
44	7629
45	1089
46	20
49	20
50	129
51	179
52	269
53	279
54	469
55	2209
56	829
57	899
58	1099
59	1239
60	30
63	10
65	40
66	20
67	149
68	149
69	139
70	239
71	489
72	269
73	10
75	10
76	10
78	50
79	299
80	139
81	50
82	429
83	369
84	1259
85	569
86	30
96	10
97	80
98	189
99	9999
100	7409
101	469
102	10
