Mass Spectrum: 3,4-Dimethyl-2-hexene
Formula: C8 H16
CAS: 2213-37-8
Molecular weight: 112
Origin: NIST Mass Spectrometry Data Center, 1990.
m/z	RELATIVE INTENSITY
15	124
16	20
26	183
27	1592
28	358
29	1390
32	73
39	1746
40	387
41	3284
42	259
43	893
44	59
50	171
51	355
52	151
53	796
54	59
55	9999
56	799
57	185
63	74
65	264
66	115
67	834
68	126
69	961
70	167
77	195
78	55
79	172
80	51
81	234
82	51
83	7321
84	594
95	46
96	53
97	440
112	1873
113	170
