Mass Spectrum: Acetamide, 2-chloro-N-(2,5-dimethoxyphenyl)-
Formula: C10 H12 Cl N O3
CAS: 22158-78-7
Molecular weight: 229
Origin: Zaikin V.G., TIPS RAS, Moscow, Russia
m/z	RELATIVE INTENSITY
26	30
27	30
28	30
36	70
38	30
39	150
40	30
41	60
42	50
44	40
49	160
50	60
51	210
52	300
53	130
54	60
55	40
63	70
64	50
65	160
66	90
67	90
68	210
69	80
76	60
77	200
78	120
79	400
80	140
81	60
82	80
90	50
91	40
92	140
93	170
94	90
95	360
96	30
106	100
107	270
108	150
109	180
110	681
111	130
120	40
121	40
122	260
123	120
124	130
125	200
134	60
135	80
136	150
137	40
138	9999
139	941
140	80
148	80
149	30
150	340
151	220
152	160
153	170
154	70
162	140
163	190
164	290
165	601
166	90
178	40
179	130
180	280
183	30
186	150
188	40
194	70
198	140
200	50
214	3964
215	420
216	1331
217	130
229	7267
230	801
231	2452
232	270
233	30
