Mass Spectrum: Propanoic acid, heptyl ester
Formula: C10 H20 O2
CAS: 2216-81-1
Molecular weight: 172
Origin: Japan AIST/NIMC Database- Spectrum MS-IW-3528
m/z	RELATIVE INTENSITY
15	30
18	20
26	70
27	1009
28	449
29	3539
30	90
31	189
32	10
38	10
39	509
40	109
41	2359
42	1429
43	2009
44	99
45	60
50	10
51	20
52	10
53	129
54	359
55	2869
56	5469
57	9999
58	419
59	50
61	20
65	10
66	10
67	119
68	599
69	2669
70	4979
71	369
72	229
73	90
74	299
75	5579
76	189
77	40
79	10
81	70
82	40
83	609
84	70
85	119
86	30
87	579
88	50
89	20
95	20
96	60
97	429
98	3239
99	279
100	50
101	129
102	20
105	10
111	10
112	119
113	209
114	30
115	189
116	30
125	20
127	10
128	10
129	10
130	139
131	20
143	109
144	10
