Mass Spectrum: 3-Undecanone
Formula: C11 H22 O
CAS: 2216-87-7
Molecular weight: 170
Origin: Japan AIST/NIMC Database- Spectrum MS-NW-2009
m/z	RELATIVE INTENSITY
14	10
15	40
17	30
18	159
26	60
27	1079
28	189
29	3589
30	80
31	50
32	50
38	10
39	479
40	80
41	1949
42	379
43	3409
44	99
45	30
50	10
51	30
52	20
53	139
54	119
55	1069
56	299
57	6299
58	299
59	90
60	10
65	20
66	10
67	419
68	90
69	229
70	109
71	3649
72	9999
73	2199
74	99
77	10
79	20
80	10
81	599
82	109
83	119
84	50
85	1649
86	159
87	10
93	10
95	60
96	379
97	109
98	159
99	249
100	30
109	50
110	40
111	20
112	10
113	50
114	179
115	10
117	20
123	319
124	40
125	10
127	149
128	99
129	10
139	10
140	10
141	3689
142	369
143	30
151	10
152	40
155	10
170	489
171	60
