Mass Spectrum: N,N-Diethyl-O-nitroaniline
Formula: C10 H14 N2 O2
CAS: 2216-17-3
Molecular weight: 194
Origin: Japan AIST/NIMC Database- Spectrum MS-NW-3649
m/z	RELATIVE INTENSITY
14	30
15	259
16	10
17	80
25	10
26	229
27	1809
28	649
29	1809
30	209
31	40
32	10
37	129
38	319
39	1079
40	159
41	419
42	979
43	529
44	199
45	70
46	30
49	30
50	809
51	1869
52	829
53	239
54	159
55	99
56	1019
57	60
58	60
59	90
60	20
61	70
62	219
63	859
64	829
65	1479
66	509
67	80
68	50
69	50
70	149
71	30
72	90
73	40
74	209
75	329
76	709
77	4469
78	1899
79	789
80	379
81	40
82	20
83	10
86	10
87	30
88	50
89	249
90	529
91	3409
92	1689
93	2719
94	369
95	40
96	10
97	10
98	10
99	20
100	20
101	20
102	129
103	559
104	3679
105	5939
106	1299
107	319
108	139
109	30
110	10
111	10
114	10
115	40
116	99
117	619
118	1639
119	5159
120	1199
121	1219
122	129
123	80
124	10
127	199
128	50
129	99
130	319
131	809
132	2219
133	2189
134	489
135	1289
136	189
137	20
138	10
139	10
140	10
142	10
143	30
144	60
145	2219
146	1539
147	1289
148	479
149	119
150	30
151	2449
152	219
153	20
154	10
156	10
157	30
158	40
159	379
160	1609
161	399
162	479
163	99
164	40
165	80
166	70
167	10
168	10
169	10
170	10
171	10
173	10
174	10
175	70
176	40
177	7459
178	889
179	9999
180	1119
181	99
182	10
193	299
194	1979
195	249
196	20
