Mass Spectrum: Glycine, N-phenyl-, ethyl ester
Formula: C10 H13 N O2
CAS: 2216-92-4
Molecular weight: 179
Origin: Japan AIST/NIMC Database- Spectrum MS-IW-6534
m/z	RELATIVE INTENSITY
27	60
28	60
29	99
30	50
38	20
39	70
42	10
50	90
51	369
52	70
53	40
63	30
64	20
65	50
66	10
73	10
74	30
75	20
76	50
77	1009
78	219
79	369
80	20
91	20
92	10
93	30
104	249
105	159
106	9999
107	809
108	30
134	10
179	2809
180	369
181	30
