Mass Spectrum: Ethylphenylpropiolate
Formula: C11 H10 O2
CAS: 2216-94-6
Molecular weight: 174
Origin: NIST Mass Spectrometry Data Center
m/z	RELATIVE INTENSITY
15	20
26	40
27	210
29	260
30	30
37	30
38	50
39	160
42	10
43	70
44	10
45	30
49	70
50	330
51	911
52	110
53	40
61	130
62	260
63	370
64	50
73	130
74	991
75	2252
76	330
77	370
78	30
85	20
86	40
87	40
88	30
89	400
90	100
91	20
97	30
98	230
99	100
100	100
101	1081
102	8528
103	781
104	30
105	20
115	70
116	30
117	50
118	290
119	20
127	30
128	130
129	9999
130	1762
131	200
132	10
145	20
146	170
147	10
173	20
174	1191
175	130
176	10
