Mass Spectrum: Barbituric acid, 5,5-dipropyl-
Formula: C10 H16 N2 O3
CAS: 2217-08-5
Molecular weight: 212
Origin: NIST Mass Spectrometry Data Center
m/z	RELATIVE INTENSITY
15	240
16	20
17	20
18	60
26	290
27	2282
28	550
29	1221
30	140
37	20
39	1501
40	430
41	3353
42	510
43	1141
44	851
45	20
50	70
51	170
52	210
53	811
54	540
55	1171
56	210
57	50
58	40
59	40
61	10
63	30
64	10
65	120
66	100
67	350
68	170
69	550
70	480
71	110
72	20
73	40
77	60
78	40
79	90
80	641
81	200
82	100
83	180
84	70
85	60
86	10
87	10
91	10
92	10
93	10
94	60
95	100
96	180
97	400
98	2542
99	200
100	20
106	10
107	10
108	100
109	470
110	80
111	40
112	330
113	80
114	60
122	60
123	20
124	50
125	40
126	260
127	40
128	30
129	10
137	10
138	20
141	9999
142	1391
143	120
151	10
153	410
155	641
156	40
166	10
167	20
169	1191
170	5565
171	500
172	50
183	30
211	10
213	10
