Mass Spectrum: Benzene, 1,1'-thiobis[2,4,6-trinitro-
Formula: C12 H4 N6 O12 S
CAS: 2217-06-3
Molecular weight: 456
Origin: V.G.Zaikin, TIPS, Russian Acad. Sci.
m/z	RELATIVE INTENSITY
30	9999
46	500
50	300
53	600
80	700
106	600
120	2001
150	1000
168	600
180	400
228	300
229	400
230	300
244	500
254	400
258	300
270	500
287	200
299	500
316	1101
332	100
362	100
364	60
379	100
410	160
456	500
457	80
458	30
