Mass Spectrum: Phenol, 2-ethyl-4,5-dimethyl-
Formula: C10 H14 O
CAS: 2219-78-5
Molecular weight: 150
Origin: J.MACAK, DEP. GAS COKE TECH., PRAGUE INST. CHEM. TECH., CZECth
m/z	RELATIVE INTENSITY
38	200
39	1600
40	300
41	900
43	300
50	300
51	800
52	300
53	700
55	300
58	100
62	100
63	400
64	200
65	800
66	300
67	200
68	200
74	100
75	100
77	1100
78	300
79	1100
80	100
89	100
91	2300
92	300
93	200
103	300
105	700
106	200
107	700
115	400
116	200
117	300
119	100
121	700
131	200
133	200
135	9999
136	1100
149	400
150	3800
151	500
