Mass Spectrum: Phenol, 2-methyl-4-(1,1,3,3-tetramethylbutyl)-
Formula: C15 H24 O
CAS: 2219-84-3
Molecular weight: 220
Origin: L.E. Slivon, Battelle Columbus Laboratories, Columbus, Ohio 43201
m/z	RELATIVE INTENSITY
40	61
41	1403
42	106
43	330
44	3
45	9
47	27
49	6
50	36
51	127
52	64
53	178
54	48
55	378
56	278
57	807
58	42
59	9
61	3
62	48
63	73
64	15
65	151
66	48
67	30
68	27
69	39
70	36
71	9
72	9
74	36
75	27
76	12
77	615
78	160
79	315
80	79
81	45
82	6
83	12
84	9
85	33
86	39
88	30
89	54
90	54
91	663
92	76
93	97
94	91
95	39
96	36
97	12
98	30
99	27
100	27
102	18
103	178
104	73
105	321
106	76
107	330
108	151
109	608
110	79
112	18
115	169
116	112
117	103
118	67
119	94
120	94
121	1840
122	169
123	45
127	61
128	82
129	64
130	36
131	157
132	97
133	487
134	124
135	127
136	33
141	42
145	54
146	30
147	118
148	454
149	9999
150	1155
151	85
152	6
157	21
158	24
159	33
161	48
162	33
163	79
164	39
168	3
172	21
185	3
191	27
192	3
193	24
195	18
207	27
208	6
220	139
221	54
