Mass Spectrum: Naproxen
Formula: C14 H14 O3
CAS: 22204-53-1
Molecular weight: 230
Origin: Japan AIST/NIMC Database- Spectrum MS-IW-3664
m/z	RELATIVE INTENSITY
15	40
17	20
18	70
26	10
27	30
28	50
29	10
38	10
39	90
41	20
43	60
44	90
45	70
50	60
51	119
52	20
53	10
55	30
57	30
61	10
62	70
63	219
64	50
65	60
69	30
70	30
71	10
74	70
75	109
76	159
77	119
78	20
79	10
85	20
86	40
87	70
88	60
89	99
90	10
91	50
92	219
93	60
98	20
99	20
100	10
101	40
102	80
103	20
111	10
113	80
114	149
115	909
116	149
117	20
125	10
126	109
127	229
128	289
129	119
130	20
131	30
137	10
138	10
139	309
140	139
141	1139
142	599
143	109
144	129
145	60
149	10
150	30
151	99
152	359
153	739
154	719
155	389
156	90
157	60
158	99
159	99
160	10
167	10
168	40
169	299
170	1069
171	279
172	40
173	20
183	109
184	279
185	9999
186	1479
187	229
188	20
199	40
200	10
201	10
212	10
214	10
215	169
216	20
230	5359
231	829
232	90
