Mass Spectrum: Benzoylprop-ethyl
Formula: C18 H17 Cl2 N O3
CAS: 22212-55-1
Molecular weight: 365
Origin: J. SHAW, BORRISTON RESEARCH, ROCKVILLE, MD, USA
m/z	RELATIVE INTENSITY
14	10
15	70
16	30
17	50
18	100
26	40
27	260
28	190
29	580
30	20
31	10
36	20
38	20
39	40
41	30
42	40
43	130
44	30
45	40
49	10
50	120
51	590
52	40
53	10
55	40
56	20
57	30
58	30
61	10
62	20
63	40
64	10
65	10
69	10
71	10
73	40
74	60
75	130
77	3923
78	240
79	10
83	10
84	10
85	20
86	10
87	10
88	10
89	30
90	20
91	10
97	20
98	10
99	10
100	10
101	10
105	9999
106	1061
107	60
109	150
110	40
111	60
112	20
113	10
116	10
117	20
123	10
124	20
125	10
126	10
133	10
138	10
145	260
147	180
148	10
149	50
150	10
151	20
152	20
153	20
161	10
166	30
172	240
174	170
175	20
176	30
177	10
180	10
186	100
187	130
188	90
189	80
190	30
191	10
204	30
260	220
262	160
263	10
264	20
265	10
292	510
294	380
295	40
296	40
320	50
322	40
365	210
367	150
369	20
