Mass Spectrum: Mazindol
Formula: C16 H13 Cl N2 O
CAS: 22232-71-9
Molecular weight: 284
Origin: Patti Price, Georgia Bureau of Investigation, Decatur, Georgia
m/z	RELATIVE INTENSITY
50	120
51	120
63	150
74	150
75	490
76	230
77	200
82	10
86	110
87	130
88	770
94	100
99	100
101	520
102	800
103	490
104	80
111	120
113	80
115	680
119	80
126	100
127	90
128	660
129	440
133	260
134	100
137	230
138	220
139	130
140	100
149	90
150	190
151	210
152	90
155	410
162	80
163	190
164	290
174	140
175	260
176	810
177	380
178	90
188	110
189	120
190	590
191	140
199	80
201	180
202	210
203	570
204	920
205	200
211	100
212	160
224	100
229	340
230	330
231	1971
232	400
238	630
239	190
240	230
265	2191
266	9999
267	2662
268	3333
269	570
