Mass Spectrum: 2-Bromo-3'-nitroacetophenone
Formula: C8 H6 Br N O3
CAS: 2227-64-7
Molecular weight: 243
Origin: NIST Mass Spectrometry Data Center
m/z	RELATIVE INTENSITY
26	60
27	50
30	440
36	40
37	100
38	230
39	260
40	80
41	80
42	530
43	210
44	40
46	110
50	1591
51	330
52	80
61	90
62	270
63	621
64	360
65	70
66	30
73	150
74	621
75	741
76	1992
77	210
78	90
79	110
80	30
81	110
82	30
86	40
87	40
89	841
90	881
91	130
92	440
93	200
94	30
95	190
104	2332
105	170
117	20
118	150
120	60
121	50
122	150
123	50
134	140
136	60
150	9999
151	771
152	100
165	70
243	120
245	110
