Mass Spectrum: 2(1H)Pyrimidinone,4-(dimethylamino)-1-methyl-
Formula: C7 H11 N3 O
CAS: 2228-27-5
Molecular weight: 153
Origin: NIST Mass Spectrometry Data Center, 2010
m/z	RELATIVE INTENSITY
15	170
25	10
26	70
27	140
28	410
29	50
30	40
37	30
38	60
39	150
40	150
41	210
42	1621
43	70
44	30
46	10
47	20
48	10
51	70
52	390
53	300
54	621
55	2923
56	530
57	50
58	30
62	120
64	40
65	50
66	721
67	360
68	691
69	290
70	80
71	30
75	30
77	40
78	30
79	110
80	380
81	621
82	250
83	310
84	50
85	20
93	90
94	80
95	3063
96	2983
97	691
98	60
99	20
106	10
107	10
108	30
109	871
111	270
112	40
120	10
122	10
124	8418
125	881
126	90
135	10
136	40
138	370
140	40
149	10
150	50
152	1491
153	9999
154	881
155	50
