Mass Spectrum: 5-Nonanone, 2-methyl-
Formula: C10 H20 O
CAS: 22287-02-1
Molecular weight: 156
Origin: NIST Mass Spectrometry Data Center, 1990.
m/z	RELATIVE INTENSITY
15	230
16	24
18	80
26	182
27	2572
28	836
29	3689
30	83
31	101
38	114
39	1818
40	426
41	5051
42	1088
43	7145
44	244
45	78
50	53
51	172
52	75
53	504
54	156
55	1847
56	934
57	8361
58	9999
59	1155
67	160
69	248
70	228
71	2657
72	606
77	71
79	139
81	4101
82	292
83	194
84	71
85	5540
86	350
95	103
97	73
99	1853
100	1703
101	440
109	97
113	497
114	141
127	70
141	48
156	917
157	102
