Mass Spectrum: Clobazam
Formula: C16 H13 Cl N2 O2
CAS: 22316-47-8
Molecular weight: 300
Origin: N.W. Davies, Centr. Sci. Lab., Univ. Tasmania, Hobart, Australia
m/z	RELATIVE INTENSITY
26	220
27	790
28	140
29	370
30	160
31	20
32	20
37	190
38	470
39	1540
40	280
41	930
42	3030
43	680
44	190
45	160
49	240
50	1630
51	5820
52	750
53	260
54	160
55	420
57	310
58	220
60	310
61	330
62	510
63	1440
64	840
65	930
66	470
67	170
69	1400
71	170
73	640
74	580
75	1240
76	1470
77	8490
78	960
79	160
82	240
83	190
84	170
85	240
86	190
87	310
88	330
89	350
90	810
91	1140
92	1100
93	370
97	330
98	210
99	510
100	280
101	310
102	350
103	610
104	430
105	220
110	160
111	450
112	430
113	260
114	300
115	280
116	170
117	610
118	490
119	210
124	470
125	330
126	750
127	400
128	450
129	470
130	210
138	260
139	430
140	520
141	260
144	210
151	190
152	700
153	1260
154	720
155	470
157	240
162	160
163	160
164	300
165	450
166	1000
167	940
168	310
169	190
178	300
179	1100
180	1170
181	1940
182	450
183	580
192	190
193	300
194	580
195	1030
196	890
197	260
200	490
201	510
202	350
203	470
204	210
205	220
206	160
207	300
208	1590
209	330
214	1280
215	1330
216	1030
217	1070
218	400
219	420
220	210
221	210
222	170
223	140
228	210
229	2320
230	1160
231	3630
232	1800
233	1170
234	580
241	510
242	260
243	1490
244	370
245	510
255	5210
256	3840
257	3750
258	6680
259	4670
260	2320
261	1310
262	210
283	3770
284	790
285	1330
286	300
299	160
300	9999
301	1930
302	3450
303	640
