Mass Spectrum: 1,3-Dioxolane-4-methanol, 2,2-dimethyl-, (S)-
Formula: C6 H12 O3
CAS: 22323-82-6
Molecular weight: 132
Origin: NIST Mass Spectrometry Data Center, 1994
m/z	RELATIVE INTENSITY
14	76
15	581
16	26
19	49
26	126
27	606
28	220
29	1162
30	152
31	1383
32	46
37	25
38	92
39	763
40	176
41	1066
42	1393
43	9999
44	354
45	190
47	42
53	25
55	274
57	2912
58	261
59	1753
60	25
61	1591
62	38
72	1103
73	1034
74	66
75	155
83	383
85	115
86	74
99	90
101	2865
102	122
115	35
117	4948
118	265
119	36
