Mass Spectrum: Benzenebutanoic acid, 4-hydroxy-, methyl ester
Formula: C11 H14 O3
CAS: 22320-10-1
Molecular weight: 194
m/z	RELATIVE INTENSITY
50	10
55	10
56	10
58	20
74	581
75	170
76	10
85	70
86	10
87	20
91	20
94	40
101	10
105	30
106	10
107	3513
108	370
109	20
118	50
119	10
120	9999
121	1241
122	210
123	20
131	40
133	200
134	170
135	350
136	10
162	60
163	1311
164	240
165	50
192	30
194	4714
195	731
196	150
