Mass Spectrum: Cyclohexane, 1,2,4-trimethyl-
Formula: C9 H18
CAS: 2234-75-5
Molecular weight: 126
Origin: NIST Mass Spectrometry Data Center, 1990.
m/z	RELATIVE INTENSITY
15	125
27	1209
28	227
29	1142
39	2378
40	527
41	4670
42	1412
43	1451
44	73
50	105
51	298
52	152
53	863
54	73
55	6604
56	3110
57	647
63	74
65	258
66	102
67	978
68	74
69	9999
70	2270
71	426
77	257
78	79
79	219
81	284
82	347
83	902
84	1604
85	217
91	120
95	157
96	102
97	733
98	167
111	7815
112	681
126	3292
127	340
