Mass Spectrum: 2,4-Dimethylstyrene
Formula: C10 H12
CAS: 2234-20-0
Molecular weight: 132
Origin: NIST Mass Spectrometry Data Center, 1994
m/z	RELATIVE INTENSITY
15	725
17	26
18	86
26	297
27	1673
28	67
29	84
38	438
39	2717
40	351
41	404
50	858
51	1471
52	610
53	719
54	57
58	327
61	162
62	616
63	1742
64	1169
65	1602
66	177
67	32
73	49
74	408
75	372
76	317
77	1597
78	695
79	524
80	35
87	142
89	642
91	3477
92	380
93	42
98	72
99	27
101	76
102	440
103	590
104	323
105	710
106	86
113	45
115	5012
116	1921
117	9999
118	996
119	611
120	73
126	79
127	378
128	753
129	768
130	229
131	2366
132	6571
133	743
134	197
