Mass Spectrum: Cyclohexane, nonadecyl-
Formula: C25 H50
CAS: 22349-03-7
Molecular weight: 350
Origin: Japan AIST/NIMC Database- Spectrum MS-NW-9112
m/z	RELATIVE INTENSITY
26	10
27	70
28	20
29	219
39	70
40	10
41	749
42	139
43	1179
44	40
53	40
54	139
55	1839
56	369
57	1269
58	60
65	10
66	20
67	759
68	279
69	779
70	279
71	649
72	30
77	10
79	30
80	10
81	219
82	9999
83	6129
84	509
85	389
86	20
95	70
96	399
97	979
98	159
99	109
109	40
110	99
111	429
112	99
113	70
123	20
124	80
125	249
126	70
127	50
137	10
138	80
139	229
140	70
141	30
152	50
153	119
154	50
155	20
166	40
167	80
168	40
169	20
180	30
181	60
182	40
183	20
194	30
195	50
196	30
197	10
208	20
209	40
210	20
211	10
222	10
223	30
224	20
236	10
237	20
238	50
239	10
251	10
252	10
265	10
266	379
267	149
268	20
279	10
293	10
322	10
348	10
349	10
350	1389
351	379
352	50
