Mass Spectrum: 2-Pentanone, 5-phenyl-
Formula: C11 H14 O
CAS: 2235-83-8
Molecular weight: 162
m/z	RELATIVE INTENSITY
41	320
43	2692
44	130
50	160
51	480
52	130
58	540
63	270
64	80
65	731
71	130
77	350
78	480
79	130
89	220
90	80
91	2282
92	320
103	300
104	9999
105	1261
106	130
115	220
117	130
119	130
162	891
163	110
