Mass Spectrum: Etryptamine
Formula: C12 H16 N2
CAS: 2235-90-7
Molecular weight: 188
Origin: Drug Lab
m/z	RELATIVE INTENSITY
18	90
27	250
28	851
30	951
32	170
37	40
38	70
39	290
41	1271
42	280
43	370
44	30
49	20
50	200
51	581
52	250
53	80
54	80
56	270
58	9999
59	390
62	110
63	260
64	80
65	120
66	30
74	110
75	220
76	240
77	1291
78	180
79	230
86	10
87	30
89	190
90	110
91	60
98	10
101	140
102	611
103	891
104	100
114	50
115	160
116	60
117	220
118	40
127	40
128	450
129	320
130	5005
131	6216
132	751
133	50
140	50
142	50
143	40
144	20
154	40
155	30
156	30
157	40
158	90
159	160
160	20
168	10
188	270
189	30
