Mass Spectrum: 3-(4-Methoxyphenyl)-1-(2-naphthyl)prop-2-en-1-one
Formula: C20 H16 O2
CAS: 22359-67-7
Molecular weight: 288
Origin: NIST Mass Spectrometry Data Center, 1994
m/z	RELATIVE INTENSITY
15	192
18	111
39	387
41	114
50	298
51	589
55	156
62	183
63	634
64	406
65	166
74	139
75	505
76	383
77	1517
78	201
79	410
87	151
89	914
90	880
91	121
92	306
95	157
100	105
101	705
102	374
103	357
108	782
113	209
114	233
115	110
117	136
118	703
123	228
126	890
127	3873
128	627
129	96
130	287
132	156
133	1194
134	163
151	99
152	838
153	126
154	99
155	952
156	139
161	1628
162	243
180	5079
181	798
189	208
202	817
203	169
213	146
215	802
216	319
217	541
218	135
226	231
227	352
228	498
229	682
230	135
244	372
245	729
246	201
257	990
258	246
259	464
260	467
271	301
272	184
273	1825
274	394
287	3522
288	9999
289	2338
290	318
