Mass Spectrum: 2,2'-Diiodobiphenyl
Formula: C12 H8 I2
CAS: 2236-52-4
Molecular weight: 406
Origin: NIST Mass Spectrometry Data Center, 1994
m/z	RELATIVE INTENSITY
16	12
17	7
18	50
26	54
27	112
28	22
37	147
38	296
39	818
40	38
50	1013
51	738
52	118
61	275
62	543
63	1179
73	150
74	1090
75	1199
76	2117
77	291
78	82
84	25
85	192
86	424
87	515
88	72
89	46
97	70
98	573
99	448
100	192
101	163
102	325
103	29
109	54
110	133
111	128
112	28
113	119
114	26
120	16
121	34
122	126
123	65
124	62
125	315
126	994
127	1129
128	130
139	533
150	1293
151	2279
152	6679
153	887
154	57
176	24
254	80
279	9999
280	1347
281	87
406	5122
407	689
408	45
