Mass Spectrum: Benzenepropanamine, .alpha.-methyl-
Formula: C10 H15 N
CAS: 22374-89-6
Molecular weight: 149
Origin: Japan AIST/NIMC Database- Spectrum MS-NW-6644
m/z	RELATIVE INTENSITY
15	40
26	10
27	139
28	90
29	20
30	129
38	30
39	269
40	30
41	119
42	299
43	179
44	9999
45	309
50	90
51	249
52	70
53	40
54	40
55	10
56	70
57	129
58	129
62	30
63	119
64	30
65	349
66	30
67	10
70	50
71	219
72	10
74	30
75	30
76	30
77	279
78	149
79	139
80	10
84	20
87	10
89	70
90	30
91	1899
92	259
93	20
102	30
103	119
104	119
105	109
106	30
107	20
108	30
115	109
116	40
117	789
118	90
120	10
127	10
128	30
129	20
130	20
131	80
132	1419
133	149
134	179
135	20
146	20
147	20
148	70
149	99
150	20
