Mass Spectrum: Benzonitrile, m-amino-
Formula: C7 H6 N2
CAS: 2237-30-1
Molecular weight: 118
Origin: Japan AIST/NIMC Database- Spectrum MS-NW-7766
m/z	RELATIVE INTENSITY
14	10
15	10
26	50
27	60
28	349
32	20
36	20
37	199
38	289
39	449
40	139
41	379
42	40
43	10
44	30
45	70
49	40
50	169
51	159
52	359
53	50
54	60
58	30
59	119
60	20
61	109
62	209
63	589
64	819
65	339
66	109
67	90
73	20
74	50
75	139
76	119
77	80
78	99
79	50
86	20
87	40
88	60
89	80
90	659
91	2419
92	229
99	20
100	10
101	20
102	30
103	20
116	40
117	459
118	9999
119	859
120	30
