Mass Spectrum: Piperidine, 4-propyl-
Formula: C8 H17 N
CAS: 22398-09-0
Molecular weight: 127
Origin: J.E. WILKINSON S-CUBED, SAN DIEGO, CA.
m/z	RELATIVE INTENSITY
42	8330
43	4649
44	6865
45	166
46	182
50	36
51	172
52	98
53	757
54	492
55	4936
56	9999
57	5925
58	314
63	10
65	111
66	27
67	549
68	427
69	421
70	1194
71	127
72	5
77	51
78	8
79	88
80	155
81	44
82	1134
83	144
84	5434
85	4067
86	190
91	2
93	17
94	11
95	12
96	31
97	2
98	3793
99	364
100	7
106	167
110	2
112	3408
113	208
120	34
121	119
122	1
126	4389
127	3127
128	390
129	3
