Mass Spectrum: Octadecanedioic acid, 2TMS derivative
Formula: C24 H50 O4 Si2
CAS: 22396-20-9
Molecular weight: 458
m/z	RELATIVE INTENSITY
51	100
52	100
53	100
54	100
55	2002
56	300
57	701
58	200
59	300
60	100
61	500
67	701
68	200
69	1501
70	200
71	300
72	500
73	9999
74	1001
75	8007
76	701
77	601
78	100
79	400
80	100
81	1001
82	100
83	1101
84	300
85	200
86	100
87	100
89	300
91	200
93	300
94	100
95	1001
96	200
97	801
98	701
99	200
101	100
103	100
105	200
107	300
108	100
109	500
110	100
111	400
112	400
113	100
115	100
116	701
117	3003
118	400
119	200
121	400
122	100
123	300
124	100
125	200
126	200
129	3203
130	500
131	801
132	701
133	500
134	100
135	300
136	100
137	200
139	100
140	200
143	400
144	100
145	701
146	100
147	1201
148	200
149	601
150	100
151	100
153	100
154	200
155	100
156	300
157	200
159	200
161	100
163	100
168	100
169	100
170	801
171	400
172	100
173	200
174	100
181	100
182	200
183	100
184	400
185	400
186	100
187	100
188	100
189	100
196	200
197	100
198	100
199	200
201	200
202	100
203	200
204	6306
205	1401
206	701
207	200
212	100
213	100
214	200
215	100
216	100
217	3503
218	801
219	500
220	100
226	100
227	100
229	100
230	100
231	200
232	100
233	100
237	300
241	200
243	200
244	100
250	100
251	100
253	100
255	300
256	100
257	200
258	100
259	200
269	200
271	500
272	100
273	100
277	100
278	200
279	100
283	100
285	100
287	100
297	400
298	100
301	100
309	100
311	500
312	100
313	100
314	200
315	100
325	400
326	400
327	2302
328	701
329	300
335	300
343	100
352	100
357	100
368	100
369	100
371	100
399	500
414	100
427	300
428	200
429	100
443	5005
444	1802
445	701
446	200
458	500
459	200
460	100
