Mass Spectrum: 7-Methoxyflavone
Formula: C16 H12 O3
CAS: 22395-22-8
Molecular weight: 252
Origin: NIST Mass Spectrometry Data Center
m/z	RELATIVE INTENSITY
15	130
26	20
27	50
29	40
37	40
38	100
39	320
40	20
41	40
42	10
43	20
49	30
50	711
51	1842
52	420
53	440
54	30
55	130
56	20
57	10
59	30
61	100
62	601
63	1772
64	450
65	220
66	170
67	30
68	20
69	550
71	10
73	20
74	480
75	631
76	1171
77	1331
78	200
79	2322
80	160
82	160
84	10
85	20
86	90
87	150
88	70
89	210
90	110
91	450
92	550
93	240
94	631
95	60
96	40
97	20
98	100
99	70
100	40
101	180
102	1341
103	150
104	60
105	911
106	260
107	3433
108	270
109	40
110	30
111	40
112	1271
114	40
115	110
116	20
117	10
118	10
119	330
120	260
121	170
122	4764
123	360
124	40
125	40
126	250
127	270
128	50
129	300
130	30
131	10
132	10
134	90
135	20
137	30
138	30
139	240
140	50
141	10
142	10
147	10
148	10
150	4564
151	871
152	2082
153	781
154	90
155	20
157	10
161	10
162	20
163	140
164	90
165	170
166	30
167	10
168	20
169	10
176	10
178	10
179	30
180	80
181	180
182	30
183	10
192	10
193	10
194	20
195	40
196	10
207	30
208	160
209	7457
210	1131
211	130
212	10
220	10
221	80
222	20
224	5925
225	1001
226	90
227	10
235	10
236	90
237	20
248	10
249	10
251	1621
252	9999
253	1702
254	200
255	20
