Mass Spectrum: Hexadecanoic acid, propyl ester
Formula: C19 H38 O2
CAS: 2239-78-3
Molecular weight: 298
Origin: V.G. Zaikin, R.S.Borisov, TIPS RAS, Moscow, Russia
m/z	RELATIVE INTENSITY
15	20
26	40
27	731
28	530
29	1321
30	50
31	210
38	30
39	360
40	120
41	3463
42	1591
43	6376
44	250
45	120
53	150
54	290
55	2883
56	801
57	3383
58	310
59	410
60	3783
61	9999
62	250
63	50
65	30
66	30
67	520
68	300
69	1972
70	530
71	1822
72	170
73	4594
74	360
75	120
77	30
78	10
79	140
80	60
81	500
82	270
83	1581
84	751
85	1061
86	120
87	1071
88	80
89	80
91	30
93	130
94	50
95	470
96	240
97	1261
98	731
99	250
100	60
101	470
102	3934
103	1521
104	90
105	20
107	100
108	30
109	260
110	100
111	520
112	190
113	120
115	3273
116	310
117	50
119	10
121	130
122	20
123	130
124	60
125	280
126	50
127	70
128	30
129	1251
130	130
131	20
133	10
134	10
135	110
136	20
137	60
138	40
139	140
140	30
141	30
142	10
143	250
144	110
145	10
147	20
148	10
149	110
150	10
151	30
152	40
153	90
154	20
155	10
157	561
158	130
159	20
163	50
165	30
166	20
167	50
168	20
169	10
171	1061
172	130
173	10
177	20
181	30
185	330
186	60
187	10
191	20
192	10
193	10
194	40
195	30
196	10
199	300
200	50
201	10
209	10
212	10
213	721
214	110
215	10
219	60
220	20
221	20
223	10
225	10
227	320
228	50
229	10
236	60
237	90
238	40
239	1922
240	320
241	110
242	20
254	10
255	320
256	430
257	1802
258	310
259	30
269	60
270	10
298	761
299	130
300	10
