Mass Spectrum: Phosphonic acid, 1,3-propanediylbis-, tetraethyl ester
Formula: C11 H26 O6 P2
CAS: 22401-25-8
Molecular weight: 316
Origin: J.WHELAN DEFENCE STANDARDS LAB., ASCOT VALE, AUSTRALIA
m/z	RELATIVE INTENSITY
65	800
81	1500
82	500
91	1800
97	1200
108	800
109	2700
123	2700
125	3400
137	2600
138	1100
151	1100
152	3600
153	1000
165	9999
166	1500
169	800
179	6000
180	1500
187	2800
192	1400
203	500
215	500
243	500
271	700
301	100
316	200
