Mass Spectrum: 3,3,3-Trifluoro-1-propanol
Formula: C3 H5 F3 O
CAS: 2240-88-2
Molecular weight: 114
Origin: A. Musjce, AT&T Bell Labs., Murray Hill, N.J., USA
m/z	RELATIVE INTENSITY
14	75
15	115
16	22
17	44
18	44
19	73
20	15
21	27
24	32
25	77
26	377
27	688
29	2158
31	9999
32	181
33	383
34	11
36	34
37	56
38	55
39	37
40	24
41	80
42	298
43	632
44	485
45	1162
46	249
47	296
49	634
50	230
51	575
52	22
53	32
54	4
55	62
56	93
57	78
58	10
59	153
60	26
61	8
64	4670
65	4547
66	129
67	178
69	1961
70	33
71	100
72	8
73	141
74	101
75	432
77	549
78	39
79	6
80	13
81	11
82	19
83	138
84	46
85	9
91	359
94	3486
95	531
96	86
97	39
98	7
111	62
113	154
114	195
115	27
116	5
