Mass Spectrum: Dodecanoic acid, tetradecyl ester
Formula: C26 H52 O2
CAS: 22412-97-1
Molecular weight: 396
Origin: R.T.HOLMAN,UNIVERSITY OF MINNESOTA
m/z	RELATIVE INTENSITY
26	50
27	270
28	1700
29	810
30	40
31	30
32	390
33	30
34	10
35	10
36	30
37	20
38	30
39	250
40	90
41	2300
42	730
43	4900
44	280
45	80
50	50
51	40
52	20
53	150
54	460
55	3800
56	2000
57	5800
58	300
59	90
60	630
61	1100
62	50
63	40
64	240
65	50
66	150
67	650
68	1100
69	3400
70	2100
71	3400
72	200
73	1200
74	140
75	40
76	20
77	50
78	40
79	120
80	80
81	540
82	1700
83	3800
84	2000
85	2300
86	160
87	330
88	70
89	90
90	20
91	60
92	30
93	90
94	50
95	460
96	870
97	3300
98	1600
99	470
100	90
101	360
102	100
103	110
104	30
105	40
106	20
107	60
108	30
109	250
110	390
111	1800
112	920
113	250
114	70
115	370
116	310
117	80
118	20
119	40
120	30
121	70
122	30
123	110
124	210
125	950
126	590
127	170
128	40
129	610
130	100
131	40
132	10
133	20
134	20
135	40
136	40
137	60
138	250
139	420
140	440
141	160
142	50
143	160
144	50
145	40
146	20
147	30
148	20
149	90
150	30
151	40
152	80
153	200
154	250
155	80
156	30
157	460
158	70
159	30
160	10
161	20
162	20
163	100
164	40
165	40
166	50
167	130
168	920
169	140
170	30
171	170
172	30
173	20
174	10
175	10
176	10
177	10
178	10
179	20
180	40
181	100
182	50
183	1900
184	250
185	60
186	20
187	10
188	10
189	10
190	10
191	10
192	10
193	10
194	40
195	30
196	2200
197	410
198	70
199	100
200	1500
201	9999
202	1400
203	130
204	20
205	10
206	10
207	20
208	10
209	10
210	20
211	40
212	20
213	30
214	10
215	10
216	10
217	10
218	20
219	40
220	10
221	10
222	10
223	10
224	10
225	10
226	20
227	30
228	20
229	20
230	10
231	10
232	10
233	10
234	10
235	10
236	10
237	10
238	20
239	20
240	10
241	320
242	60
243	10
245	10
246	10
247	10
248	10
249	10
250	10
251	20
252	10
253	10
254	10
255	20
256	130
257	80
258	20
259	10
260	10
261	10
262	10
264	10
265	10
266	10
267	10
269	70
270	30
271	10
279	10
280	10
281	10
283	20
284	10
285	10
293	10
294	10
295	10
296	10
297	20
298	10
299	10
310	10
311	20
312	10
313	10
323	10
324	10
325	30
326	10
337	10
338	10
339	10
340	10
341	10
351	10
352	10
353	20
354	10
355	10
366	10
367	10
368	10
378	10
396	424
397	130
398	30
399	10
