Mass Spectrum: Erythro-2,3-dibromopentane
Formula: C5 H10 Br2
CAS: 22415-74-3
Molecular weight: 228
Origin: Susan Richardson
m/z	RELATIVE INTENSITY
43	961
44	20
50	90
51	150
52	40
53	571
54	110
55	731
56	20
61	10
62	40
63	30
65	70
66	10
67	220
68	60
69	9999
70	731
71	10
79	30
80	70
81	50
82	50
93	30
95	30
107	691
108	20
109	621
119	70
120	20
121	170
122	30
123	50
149	3533
150	200
151	3603
152	200
228	20
230	50
232	10
