Mass Spectrum: 1-Propene, 3-methoxy-2-methyl-
Formula: C5 H10 O
CAS: 22418-49-1
Molecular weight: 86
m/z	RELATIVE INTENSITY
14	150
15	1141
16	70
26	250
27	2132
28	1555
29	3393
30	270
31	911
32	48
33	23
36	60
37	150
38	330
39	3193
40	450
41	6656
42	561
43	4484
44	530
45	5305
46	170
47	100
49	120
50	270
51	310
52	130
53	1341
54	791
55	4974
56	981
57	1311
58	591
59	911
60	200
61	120
62	120
63	60
64	40
65	60
67	300
68	110
69	1241
70	320
71	9999
72	961
84	140
85	2402
86	4314
87	741
