Mass Spectrum: Cyclohexanethiol, 2-methyl-, cis-
Formula: C7 H14 S
CAS: 22425-07-6
Molecular weight: 130
m/z	RELATIVE INTENSITY
12	10
13	10
14	20
15	330
16	10
25	10
26	160
27	2192
28	380
29	1331
30	30
31	10
32	30
33	150
34	90
35	100
36	10
37	30
38	130
39	2072
40	300
41	3163
42	380
43	691
44	20
45	1151
46	120
47	641
48	20
49	40
50	110
51	250
52	110
53	831
54	1021
55	9999
56	500
57	100
58	190
59	410
60	1071
61	350
62	80
63	70
64	10
65	150
66	150
67	1672
68	1221
69	661
70	60
71	20
72	70
73	510
74	200
75	70
76	10
77	150
78	30
80	50
81	3183
82	210
83	40
84	10
85	70
86	20
87	300
88	30
89	20
90	10
91	30
92	10
93	30
94	10
95	280
96	1321
97	5085
98	370
99	20
100	10
101	90
102	10
103	10
111	10
113	10
115	10
129	10
130	2012
131	150
132	90
133	10
