Mass Spectrum: 1,3-Oxathiane, 2,4,6-trimethyl-, (2.alpha.,4.beta.,6.alpha.)-
Formula: C7 H14 O S
CAS: 22425-90-7
Molecular weight: 146
m/z	RELATIVE INTENSITY
41	581
42	657
43	833
44	732
45	354
53	227
55	808
59	303
60	9999
61	2576
62	657
67	808
68	2172
69	5858
70	1338
73	429
74	909
87	1717
102	5555
103	631
104	455
113	253
131	5757
132	429
133	354
146	8535
147	758
148	429
