Mass Spectrum: 3-Nitrobenzophenone
Formula: C13 H9 N O3
CAS: 2243-80-3
Molecular weight: 227
Origin: Chuck Anderson, Aldrich Chemical Co.
m/z	RELATIVE INTENSITY
17	53
18	135
27	126
28	72
29	11
30	116
38	72
39	187
50	702
51	1236
52	110
53	39
62	86
63	252
64	126
65	305
66	38
74	295
75	436
76	1330
77	4945
78	356
87	27
90	33
91	27
92	470
93	11
99	12
104	742
105	9999
106	766
107	44
115	58
120	745
121	63
122	63
126	80
127	12
134	66
139	25
150	981
151	241
152	329
153	96
167	37
168	36
169	55
180	184
181	128
196	72
197	635
198	94
210	218
211	95
227	1491
228	225
