Mass Spectrum: 1,2-Nonadiene
Formula: C9 H16
CAS: 22433-33-6
Molecular weight: 124
Origin: JACSAT, 99(2) 532(1977); C. DJERASSI, STAMFORD UNIVERSITY, USA
m/z	RELATIVE INTENSITY
39	2000
40	200
41	3800
42	1100
43	1900
50	100
51	300
52	300
53	1900
54	9999
55	2400
56	200
57	200
65	200
66	200
67	2700
68	1400
69	600
70	200
79	200
80	100
81	1300
82	1100
83	100
95	900
96	1000
109	100
110	3
123	3
124	3
