Mass Spectrum: Benzoic acid, 2-phenoxy-
Formula: C13 H10 O3
CAS: 2243-42-7
Molecular weight: 214
Origin: Japan AIST/NIMC Database- Spectrum MS-IW-8131
m/z	RELATIVE INTENSITY
27	40
28	30
37	10
38	40
39	259
40	20
45	10
50	159
51	609
52	30
53	40
55	20
57	30
62	30
63	139
64	109
65	449
66	70
69	50
70	50
71	20
74	60
75	60
76	70
77	609
78	50
81	10
84	30
88	10
89	30
91	20
92	309
93	669
94	489
95	30
98	30
102	10
105	10
107	20
113	20
114	20
115	249
116	30
120	709
121	9999
122	789
123	70
127	10
128	30
129	10
139	249
140	80
141	269
142	40
167	20
168	259
169	199
170	30
171	10
185	10
195	50
196	30
197	569
198	80
213	20
214	4859
215	709
216	70
