Mass Spectrum: Eicosanoic acid, octadecyl ester
Formula: C38 H76 O2
CAS: 22432-79-7
Molecular weight: 564
Origin: R.T.HOLMAN,UNIVERSITY OF MINNESOTA
m/z	RELATIVE INTENSITY
26	60
27	230
28	480
29	700
30	30
31	30
32	100
36	30
37	20
38	40
39	230
40	70
41	2100
42	660
43	6000
44	270
45	80
46	10
50	40
51	30
52	30
53	130
54	550
55	4200
56	1900
57	8300
58	440
59	100
60	850
61	1300
62	60
63	30
64	150
65	40
66	100
67	850
68	1200
69	4200
70	2000
71	5200
72	310
73	1600
74	170
75	40
76	30
77	60
78	40
79	140
80	120
81	780
82	2000
83	4600
84	1800
85	3500
86	260
87	400
88	60
89	50
90	10
91	70
92	40
93	110
94	100
95	680
96	1100
97	4200
98	1700
99	850
100	110
101	350
102	110
103	60
104	20
105	40
106	30
107	80
108	50
109	380
110	480
111	2400
112	900
113	500
114	110
115	420
116	390
117	80
118	20
119	30
120	20
121	100
122	40
123	210
124	300
125	1200
126	540
127	340
128	70
129	900
130	140
131	50
132	20
133	40
134	20
135	110
136	40
137	120
138	220
139	590
140	400
141	230
142	50
143	150
144	40
145	40
146	20
147	30
148	20
149	110
150	40
151	70
152	160
153	380
154	320
155	170
156	40
157	130
158	50
159	30
160	10
161	20
162	10
163	60
164	30
165	50
166	130
167	260
168	270
169	150
170	40
171	200
172	80
173	60
174	40
175	30
176	20
177	40
178	20
179	30
180	100
181	190
182	200
183	110
184	20
185	240
186	50
187	30
188	20
189	20
190	10
191	40
192	20
193	30
194	80
195	140
196	180
197	80
198	40
199	100
200	50
201	50
202	20
205	40
206	30
207	30
208	80
209	120
210	120
211	60
212	30
213	200
214	60
215	30
216	10
217	10
218	10
219	40
220	20
221	30
222	60
223	90
224	610
225	140
226	50
227	150
228	40
229	50
230	10
233	20
234	10
235	20
236	20
237	40
238	40
239	30
240	20
241	90
242	30
243	30
244	10
245	10
246	10
247	10
248	30
249	20
250	140
251	80
252	1700
253	530
254	90
255	80
256	40
257	40
258	20
263	20
264	20
265	20
266	30
267	40
268	20
269	440
270	100
271	30
272	10
273	10
274	10
275	50
276	50
277	30
278	20
279	20
280	20
281	20
282	20
283	100
284	40
285	50
286	20
290	10
291	10
292	160
293	150
294	80
295	830
296	190
297	460
298	110
299	50
300	10
306	10
307	10
308	10
309	20
310	60
311	170
312	2400
313	9999
314	2300
315	300
316	40
317	10
318	10
323	20
324	10
325	90
326	30
327	10
339	30
340	20
341	10
349	10
350	20
351	10
352	10
353	40
354	20
355	10
363	10
367	20
368	70
369	20
370	10
381	30
382	20
383	10
395	10
396	10
410	10
424	10
425	10
437	10
438	10
447	10
452	10
465	10
466	10
480	10
492	10
493	10
507	10
508	10
521	20
522	10
535	10
536	20
537	10
545	10
546	10
547	10
550	20
551	10
564	1304
565	520
566	130
567	30
