Mass Spectrum: Ethanone, 2-(acetyloxy)-1-phenyl-
Formula: C10 H10 O3
CAS: 2243-35-8
Molecular weight: 178
Origin: Japan AIST/NIMC Database- Spectrum MS-IW-7017
m/z	RELATIVE INTENSITY
15	60
18	10
27	20
28	20
29	10
38	10
39	60
41	10
42	40
43	1139
44	20
45	20
50	179
51	599
52	40
58	10
62	10
63	40
65	80
73	30
74	50
75	40
76	99
77	2679
78	199
79	20
89	20
90	10
91	169
92	10
102	10
104	30
105	9999
106	809
107	50
118	689
119	70
120	20
136	179
137	20
178	399
179	50
