Mass Spectrum: Pentamethylbenzoic acid
Formula: C12 H16 O2
CAS: 2243-32-5
Molecular weight: 192
Origin: Japan AIST/NIMC Database- Spectrum MS-IW-8068
m/z	RELATIVE INTENSITY
17	20
18	70
27	129
28	99
29	60
31	10
38	10
39	269
40	30
41	319
42	10
43	179
44	40
45	30
50	50
51	249
52	70
53	219
54	10
55	149
57	50
58	159
59	40
60	10
62	20
63	129
64	269
65	319
66	90
67	70
68	20
69	20
70	30
71	229
72	149
73	159
74	40
75	50
76	20
77	399
78	169
79	299
80	169
81	199
82	80
84	10
85	50
86	80
87	309
88	70
89	60
90	10
91	899
92	90
93	149
94	20
95	30
96	519
97	10
101	10
102	40
103	139
104	50
105	569
106	90
107	129
108	30
115	509
116	299
117	439
118	80
119	389
120	70
121	129
122	30
126	10
127	90
128	239
129	269
130	149
131	2199
132	359
133	929
134	119
135	40
141	20
143	30
144	10
145	249
146	1309
147	4489
148	689
149	159
150	20
157	10
158	10
159	459
160	90
161	80
162	20
163	50
164	30
173	80
174	4149
175	1509
176	189
177	2329
178	329
179	30
189	10
190	60
191	409
192	9999
193	1319
194	119
