Mass Spectrum: Benzeneacetic acid, 2-hydroxy-, methyl ester
Formula: C9 H10 O3
CAS: 22446-37-3
Molecular weight: 166
Origin: NIST Mass Spectrometry Data Center
m/z	RELATIVE INTENSITY
15	310
25	10
26	120
27	410
28	80
29	430
30	80
31	370
32	190
33	20
36	10
37	150
38	440
39	1491
40	130
41	80
42	80
43	90
44	30
45	70
48	10
49	120
50	1271
51	2813
52	1702
53	1291
55	220
56	10
57	10
59	571
60	30
61	130
62	330
63	801
64	170
65	240
66	140
67	130
68	30
69	10
73	60
74	280
75	160
76	260
77	6826
78	9068
79	2492
80	150
81	80
82	10
84	10
85	30
86	50
87	40
88	10
89	230
90	140
91	320
92	50
93	30
94	60
95	110
96	10
103	20
105	851
106	9999
107	8568
108	661
109	60
121	80
122	20
123	70
124	10
134	9479
135	971
136	90
137	30
151	40
166	3984
167	400
168	40
