Mass Spectrum: 2-Methyl-6-methylene-octa-1,7-dien-3-ol
Formula: C10 H16 O
CAS: 22459-10-5
Molecular weight: 152
Origin: ASES Database, Dalian Institute, P.R. China
m/z	RELATIVE INTENSITY
41	9999
43	6515
53	2702
55	2502
57	1101
67	3012
68	1891
69	2792
71	2802
79	2091
81	1191
83	900
84	2191
91	1090
93	990
96	690
109	490
119	400
123	390
137	300
