Mass Spectrum: trans-Shisool
Formula: C10 H18 O
CAS: 22451-48-5
Molecular weight: 154
Origin: A.Swigar, R.Silverstein, Monoterpenes,1981
m/z	RELATIVE INTENSITY
31	1091
39	2512
40	741
41	5345
42	741
43	1942
51	550
52	380
53	2062
54	1151
55	4154
56	721
57	1061
65	741
66	851
67	6746
68	2793
69	2402
70	771
71	450
77	1421
78	550
79	8087
80	2452
81	5155
82	2172
83	891
84	380
91	1641
92	831
93	9999
94	2452
95	2322
96	360
97	360
105	871
106	340
107	5435
108	3363
109	681
110	340
111	681
120	50
121	7066
122	921
123	1381
124	340
136	2622
137	450
154	2893
155	470
