Mass Spectrum: 1,3-Oxathiane, 4,6-dimethyl-, trans-
Formula: C6 H12 O S
CAS: 22452-26-2
Molecular weight: 132
Origin: J.JALONEN DEPT. CHEM., UNIV. OF TURKU, TURKU, FINLAND
m/z	RELATIVE INTENSITY
41	600
42	600
43	1500
45	200
46	1000
47	300
48	300
53	200
54	400
55	500
59	700
60	5400
61	1200
62	300
67	400
68	900
69	3100
70	500
71	500
72	900
73	700
74	800
75	600
85	700
86	400
87	800
88	5100
89	1100
90	700
99	900
102	800
117	600
131	200
132	9999
133	900
134	600
