Mass Spectrum: 3,3-Dimethyl-1,2-epoxybutane
Formula: C6 H12 O
CAS: 2245-30-9
Molecular weight: 100
Origin: NIST Mass Spectrometry Data Center
m/z	RELATIVE INTENSITY
12	10
13	60
14	310
15	1441
16	30
18	10
26	330
27	2933
28	561
29	4004
30	200
31	120
37	120
38	410
39	3543
40	500
41	3783
42	2642
43	1211
44	30
49	30
50	260
51	330
52	120
53	831
55	9999
56	651
57	1241
58	60
62	10
63	20
65	30
66	10
67	110
70	4694
71	250
72	10
83	20
85	831
86	40
99	10
