Mass Spectrum: Ethyl (+)-camphorcarboxylate
Formula: C13 H20 O3
CAS: 22469-70-1
Molecular weight: 224
Origin: NIST Mass Spectrometry Data Center, 1994
m/z	RELATIVE INTENSITY
12	76
13	85
14	217
15	806
16	66
18	32
19	119
25	68
26	546
27	5607
28	1275
29	7669
30	365
31	1454
37	61
38	305
39	5594
40	1344
41	9999
42	954
43	3129
44	352
45	794
46	211
50	295
51	1096
52	540
53	2857
54	679
55	6893
56	493
57	555
60	44
61	45
62	76
63	286
64	105
65	1305
66	725
67	3398
68	2522
69	3082
70	463
71	223
73	107
77	1877
78	372
79	2557
80	595
81	2435
82	721
83	6084
84	535
85	185
86	1206
87	335
89	63
91	2019
92	323
93	2529
94	752
95	6910
96	818
97	599
98	86
99	248
100	84
101	34
103	94
104	40
105	527
106	34
107	3464
108	4008
109	3408
110	944
111	485
112	540
113	230
114	1992
115	894
116	128
117	139
119	174
121	811
122	1693
123	2075
124	325
125	619
126	87
127	260
128	265
131	71
132	635
133	338
134	71
135	2363
136	981
137	368
138	40
139	219
140	258
141	77
142	95
149	194
150	997
151	3676
152	542
153	1419
154	695
155	184
160	110
163	452
164	57
167	103
168	536
169	73
178	1193
179	1523
180	309
181	2502
182	328
196	409
197	66
209	322
224	1454
225	213
226	12
