Mass Spectrum: 2-Heptene, 5-methyl-
Formula: C8 H16
CAS: 22487-87-2
Molecular weight: 112
Origin: NIST Mass Spectrometry Data Center, 1990.
m/z	RELATIVE INTENSITY
27	1944
28	1246
29	2948
39	3368
40	799
41	8093
42	811
43	456
44	214
50	339
51	652
52	273
53	1440
54	1267
55	7983
56	9999
57	7420
58	317
65	325
66	178
67	1148
68	303
69	714
70	3207
71	378
77	285
79	277
81	228
82	214
83	1563
84	826
112	2964
113	255
