Mass Spectrum: 2,3,4-Trimethoxyphenylacetic acid
Formula: C11 H14 O5
CAS: 22480-91-7
Molecular weight: 226
Origin: NIST Mass Spectrometry Data Center, 1994
m/z	RELATIVE INTENSITY
14	162
15	2836
18	107
26	341
27	900
28	628
29	530
30	109
31	231
32	33
37	159
38	526
39	1788
40	305
41	777
42	176
43	518
44	168
45	2533
49	107
50	1029
51	2158
52	2464
53	1869
54	324
55	915
59	381
61	138
62	437
63	1395
64	1116
65	1535
66	672
67	807
68	240
69	744
71	112
74	192
75	291
76	294
77	2034
78	1255
79	1552
80	2242
81	734
82	152
83	145
89	479
90	767
91	3635
92	1069
93	633
94	502
95	2338
96	434
97	465
104	116
105	818
106	1455
107	1251
108	580
109	730
110	161
111	162
113	98
119	263
120	1007
121	1279
122	609
123	4248
124	1144
125	492
126	116
127	135
133	281
134	273
135	794
136	3067
137	879
138	382
139	520
140	121
147	148
148	99
149	457
150	384
151	2690
152	923
153	548
154	88
155	575
164	106
165	915
166	9936
167	7909
168	943
169	135
179	742
181	9873
182	3496
183	433
193	308
208	133
211	232
226	9999
227	1191
228	66
