Mass Spectrum: Aminoacetaldehyde dimethyl acetal
Formula: C4 H11 N O2
CAS: 22483-09-6
Molecular weight: 105
Origin: Chuck Anderson, Aldrich Chemical Co.
m/z	RELATIVE INTENSITY
14	40
15	344
16	11
17	15
18	81
26	18
27	110
28	785
29	667
30	2364
31	1300
32	43
33	130
39	11
40	63
41	181
42	2398
43	540
44	2128
45	962
46	47
47	2736
48	63
49	3
55	5
56	160
57	57
58	361
59	396
60	22
61	14
71	11
72	128
73	85
74	2533
75	9999
76	384
77	58
86	4
88	34
104	14
105	19
106	45
