Mass Spectrum: Diflunisal
Formula: C13 H8 F2 O3
CAS: 22494-42-4
Molecular weight: 250
Origin: Patti Price, Georgia Bureau of Investigation, Decatur, Georgia
m/z	RELATIVE INTENSITY
45	330
46	10
50	40
51	10
52	10
53	110
54	10
61	20
62	60
63	110
64	10
74	90
75	150
76	10
77	30
78	240
80	30
81	120
83	40
85	10
88	460
89	90
92	100
93	80
94	40
95	10
97	10
98	70
99	190
100	40
101	170
102	950
104	20
105	110
106	60
107	80
108	10
109	20
110	50
111	40
112	50
113	40
116	900
118	30
119	50
120	20
121	10
122	10
123	60
124	70
125	340
126	50
127	70
128	20
129	40
130	20
131	160
132	10
133	20
134	10
137	20
138	150
139	20
141	60
142	10
143	10
144	30
145	30
147	20
148	10
149	270
150	340
151	500
152	50
153	10
154	10
155	190
156	1020
157	540
158	60
159	10
162	30
163	10
164	30
165	10
167	20
168	10
173	50
174	80
175	4223
176	2382
177	400
178	30
185	20
186	20
187	20
188	20
193	20
194	10
203	30
204	3232
205	410
206	40
213	20
214	10
231	70
232	9999
233	1141
234	110
235	10
249	20
250	3413
251	510
252	50
253	10
