Mass Spectrum: Ethanone, 2-(2-methylpropoxy)-1,2-diphenyl-
Formula: C18 H20 O2
CAS: 22499-12-3
Molecular weight: 268
Origin: RADIAN CORP
m/z	RELATIVE INTENSITY
27	576
29	1440
38	54
39	756
41	2304
42	36
43	90
50	558
51	1836
52	198
53	90
55	162
57	4554
58	198
62	108
63	378
64	126
65	144
74	126
75	144
76	270
77	5670
78	612
79	4914
80	306
89	882
90	810
91	468
92	198
105	9999
106	855
107	225
108	45
109	72
115	162
118	90
119	234
120	72
128	72
139	72
151	54
152	648
153	90
163	7164
164	690
165	118
166	30
195	288
196	54
