Mass Spectrum: Benzo(a)phenazine
Formula: C16 H10 N2
CAS: 225-61-6
Molecular weight: 230
Origin: Institute of Organic Chemistry, USSR, 1990
m/z	RELATIVE INTENSITY
45	260
46	110
50	240
51	130
63	80
74	90
75	220
76	330
77	120
87	70
88	280
89	80
100	80
101	240
102	310
114	80
115	1150
116	160
126	340
127	170
140	80
151	90
152	80
175	120
176	150
177	80
178	60
201	210
228	180
229	2170
230	9999
231	1640
232	120
