Mass Spectrum: 4-Amino-4'-(N,N-dimethylamino)stilbene
Formula: C16 H18 N2
CAS: 22525-43-5
Molecular weight: 238
Origin: Japan AIST/NIMC Database- Spectrum MS-NW-6022
m/z	RELATIVE INTENSITY
15	40
27	30
28	10
30	30
38	10
39	80
40	10
41	30
42	149
43	10
44	20
50	30
51	80
52	40
53	20
54	20
56	10
62	20
63	90
64	30
65	80
66	30
67	10
68	10
69	10
70	20
71	10
74	20
75	40
76	50
77	119
78	40
79	50
80	10
81	10
82	50
83	99
84	20
86	10
87	20
88	30
89	90
90	70
91	80
92	30
93	50
94	20
95	70
96	459
97	229
98	10
99	10
101	40
102	60
103	90
104	60
105	30
106	90
107	10
109	30
110	149
111	369
112	10
113	20
114	20
115	80
116	40
117	90
118	499
119	819
120	60
121	20
125	10
126	20
127	50
128	70
129	30
130	60
131	10
132	10
134	20
137	10
138	10
139	60
140	40
141	30
142	20
143	20
144	40
145	20
150	20
151	60
152	119
153	60
154	50
155	20
156	20
163	30
164	40
165	309
166	139
167	99
168	30
169	10
170	10
175	10
176	90
177	139
178	199
179	80
180	149
181	70
182	40
183	10
189	10
190	60
191	70
192	99
193	509
194	359
195	229
196	60
197	10
203	10
204	30
205	40
206	40
207	90
208	80
209	40
210	50
211	10
218	10
219	20
220	50
221	99
222	659
223	1209
224	239
225	20
234	10
235	40
236	99
237	1139
238	9999
239	1799
240	159
241	10
