Mass Spectrum: meso-3,4-Hexanediol
Formula: C6 H14 O2
CAS: 22520-39-4
Molecular weight: 118
Origin: R.ERRA BALSELLS,DEP. QUIM. ORG.,CITY UNIV. BUENOS AIRES,ARGENT
m/z	RELATIVE INTENSITY
27	2000
29	1800
30	600
41	3100
43	2100
55	900
57	1300
58	4000
59	9999
69	800
71	200
