Mass Spectrum: (SS)- or (RR)-2,3-hexanediol
Formula: C6 H14 O2
CAS: 22520-19-0
Molecular weight: 118
Origin: R.ERRA BALSELLS,DEP. QUIM. ORG.,CITY UNIV. BUENOS AIRES,ARGENT
m/z	RELATIVE INTENSITY
27	1700
28	700
29	1400
30	1100
41	2700
43	5600
45	6200
54	600
55	7500
57	2300
69	100
71	200
72	2100
73	9999
