Mass Spectrum: 1,3-Oxathiane, 2,4,6-trimethyl-, (2.alpha.,4.alpha.,6.alpha.)-
Formula: C7 H14 O S
CAS: 22521-88-6
Molecular weight: 146
m/z	RELATIVE INTENSITY
41	603
42	603
43	678
44	729
45	201
59	327
60	8969
61	2311
62	703
67	754
68	1834
69	7235
70	1507
73	678
74	1005
86	1583
102	6482
103	754
104	553
113	201
131	6080
132	553
133	301
146	9999
147	879
148	502
