Mass Spectrum: Cyclopentene,3-butyl-
Formula: C9 H16
CAS: 22531-00-6
Molecular weight: 124
Origin: S.A. Rang et al., IR & MS of Unsatd. Hydrocarbons, 1977
m/z	RELATIVE INTENSITY
15	28
16	12
25	7
26	63
27	588
28	287
29	350
30	11
31	2
37	8
38	35
39	936
40	180
41	1730
42	100
43	75
44	1
45	3
50	29
51	121
52	45
53	304
54	195
55	287
56	44
57	43
58	3
60	1
61	2
62	7
63	40
64	15
65	456
66	1027
67	9999
68	710
69	47
70	7
71	1
74	2
75	3
76	3
77	203
78	46
79	342
80	81
81	375
82	925
83	111
89	3
91	49
92	7
93	29
94	11
95	270
96	76
97	5
109	13
122	18
123	49
124	617
125	70
126	5
