Mass Spectrum: Naphthalene, 6-ethyl-1,2,3,4-tetrahydro-
Formula: C12 H16
CAS: 22531-20-0
Molecular weight: 160
Origin: M.C. HAMMING CONTINENTAL OIL CO., PONCA CITY, OKLA., USA
m/z	RELATIVE INTENSITY
12	40
13	138
14	298
15	780
16	9
25	9
26	149
27	1224
28	267
29	578
30	17
37	31
38	128
39	1296
40	173
41	533
42	38
43	59
44	18
49	16
50	335
51	969
52	274
53	482
54	36
55	79
56	28
57	74
58	96
61	31
62	173
63	680
64	462
65	696
66	89
67	199
68	24
69	64
70	153
71	298
72	65
74	137
75	204
76	239
77	900
78	375
79	280
80	28
81	16
85	18
86	45
87	79
88	43
89	244
90	71
91	1923
92	178
93	30
97	9
98	43
99	30
100	18
101	84
102	331
103	493
104	378
105	362
106	54
112	20
113	70
114	93
115	1967
116	876
117	2109
118	384
119	555
120	66
125	31
126	94
127	506
128	1358
129	1240
130	628
131	9999
132	2678
133	249
134	20
139	77
140	33
141	263
142	105
143	217
144	86
145	3503
146	167
147	17
151	20
152	46
153	36
154	20
155	24
156	23
157	36
158	113
159	387
160	4123
161	474
162	30
