Mass Spectrum: Sulfide, bis(2-chloropropyl)
Formula: C6 H12 Cl2 S
CAS: 22535-54-2
Molecular weight: 186
Origin: A.A.Kutin, Moscow, Russia
m/z	RELATIVE INTENSITY
8	170
26	200
27	1651
36	480
37	240
39	3243
41	9999
42	1151
44	180
45	2873
46	1491
47	3443
48	170
49	681
53	180
57	150
58	240
59	991
60	190
61	1231
63	500
65	170
69	180
71	370
72	260
73	951
74	1832
75	2392
76	611
77	3813
78	220
79	1171
81	510
83	240
85	240
87	3773
89	250
95	440
97	230
101	430
109	130
110	2002
111	260
112	721
115	390
123	9499
124	540
125	3763
126	210
137	1611
139	771
150	280
151	1381
152	230
153	470
186	2913
187	200
188	2202
189	200
190	390
