Mass Spectrum: 2(3H)-Benzothiazolethione, 3-methyl-
Formula: C8 H7 N S2
CAS: 2254-94-6
Molecular weight: 181
Origin: MASS SPECTROMETRY CENTER, UNIV. OF UTAH, ALDRICH M03000-0
m/z	RELATIVE INTENSITY
15	389
26	185
27	299
30	15
31	180
33	61
34	157
37	396
38	468
39	983
40	150
41	75
42	125
44	212
45	2002
46	175
47	227
49	145
50	857
51	1111
52	377
53	63
54	57
57	94
58	429
59	126
60	78
61	276
62	430
63	1251
64	587
65	401
66	192
68	37
69	1612
70	455
71	225
72	312
73	205
74	666
75	408
76	1105
77	1435
78	1329
79	176
81	306
82	641
83	123
84	73
88	56
89	69
90	473
91	1037
92	110
93	192
94	124
95	372
96	441
97	34
102	383
103	186
104	1963
105	558
106	115
107	161
108	1630
109	658
110	171
116	211
117	229
120	142
121	1011
122	928
123	184
124	99
133	155
134	80
135	1403
136	2843
137	407
138	172
139	161
146	95
147	21
148	5022
149	709
150	358
151	41
153	184
165	178
166	529
167	102
168	13
180	837
181	9999
182	1359
183	1141
184	149
