Mass Spectrum: Phosphoric acid, dimethyl 3-methyl-4-nitrophenyl ester
Formula: C9 H12 N O6 P
CAS: 2255-17-6
Molecular weight: 261
Origin: J.E. WILKINSON S-CUBED, SAN DIEGO, CA.
m/z	RELATIVE INTENSITY
45	48
46	26
47	516
48	38
49	69
50	527
51	1442
52	1214
53	316
54	142
55	144
56	5
57	5
59	2
60	1
61	39
62	326
63	1508
64	304
65	408
66	294
67	88
68	84
69	24
70	3
71	4
73	10
74	128
75	137
76	238
77	1170
78	820
79	2075
80	304
81	130
82	102
83	26
84	2
85	8
86	41
87	81
88	82
89	1327
90	1388
91	784
92	189
93	759
94	220
95	333
96	471
97	32
98	15
99	5
100	1
101	5
102	101
103	378
104	225
105	261
106	273
107	195
108	355
109	9999
110	300
111	64
112	2
113	206
114	2
115	6
116	4
117	16
118	572
119	157
120	152
121	281
122	251
123	71
124	58
125	35
126	11
127	1511
128	28
129	10
130	1
131	4
132	122
133	11
134	77
135	87
136	277
137	61
138	11
139	4
140	2
141	9
142	2
143	2
144	1
148	13
149	68
150	414
151	47
152	15
153	28
154	21
155	113
156	25
157	9
158	5
159	1
161	16
162	1
165	1
166	23
167	3
168	5
169	11
170	18
171	11
172	3
173	1
175	15
182	11
183	39
184	148
185	64
186	35
187	92
188	89
189	47
190	2
196	1
197	1
198	14
199	123
200	111
201	60
202	14
203	2
212	88
213	9
214	146
215	64
216	122
217	21
218	5
219	1
226	1
228	2
229	24
230	13
231	54
232	7
233	1
236	2
244	5214
245	577
246	79
247	2
260	21
261	1031
262	111
263	10
266	1
