Mass Spectrum: 3,4-Furandiol, tetrahydro-, trans-
Formula: C4 H8 O3
CAS: 22554-74-1
Molecular weight: 104
Origin: Chuck Anderson, Aldrich Chemical Co.
m/z	RELATIVE INTENSITY
14	181
15	972
18	152
19	833
26	426
27	1427
28	2654
29	3394
30	401
31	2345
32	187
36	489
38	241
39	277
41	196
42	887
43	5709
44	9999
45	2438
46	120
47	316
55	2438
56	1728
57	941
58	156
60	1789
61	3981
69	26
73	1188
74	640
86	152
