Mass Spectrum: Butanal, 3-methyl-, (2,4-dinitrophenyl)hydrazone
Formula: C11 H14 N4 O4
CAS: 2256-01-1
Molecular weight: 266
Origin: Japan AIST/NIMC Database- Spectrum MS-IW-8134
m/z	RELATIVE INTENSITY
14	10
15	119
26	109
27	3429
28	1379
29	1959
30	2309
31	30
32	10
37	99
38	389
39	1709
40	329
41	5469
42	979
43	8679
44	449
45	369
46	30
49	10
50	499
51	1449
52	909
53	589
54	259
55	2989
56	2099
57	1149
58	219
59	70
60	30
61	159
62	739
63	1889
64	1279
65	779
66	349
67	609
68	889
69	4569
70	419
71	109
72	20
73	30
74	439
75	2089
76	1369
77	3279
78	2249
79	2389
80	519
81	169
82	469
83	289
84	469
85	139
86	40
87	399
88	189
89	459
90	859
91	1109
92	1699
93	439
94	119
95	119
96	20
97	30
98	20
99	10
100	10
101	60
102	619
103	2319
104	1979
105	809
106	459
107	329
108	169
109	30
110	20
111	30
114	20
115	179
116	289
117	429
118	519
119	689
120	349
121	189
122	2939
123	249
124	30
125	10
127	50
128	119
129	279
130	799
131	849
132	509
133	229
134	159
135	269
136	159
137	309
138	429
139	40
140	10
141	40
142	90
143	169
144	239
145	209
146	139
147	509
148	269
149	2269
150	909
151	299
152	3109
153	669
154	80
155	50
156	139
157	319
158	239
159	209
160	329
161	219
162	509
163	279
164	439
165	569
166	459
167	559
168	169
169	70
170	80
171	90
172	249
173	129
174	90
175	90
176	809
177	2109
178	479
179	209
180	1969
181	579
182	90
183	2679
184	809
185	769
186	159
187	40
188	60
189	169
190	569
191	399
192	129
193	3729
194	379
195	60
196	2439
197	219
198	40
200	10
201	30
202	249
203	619
204	299
205	249
206	3759
207	1889
208	399
209	149
210	229
211	30
214	20
215	50
216	189
217	129
218	119
219	50
220	70
221	20
222	10
223	2299
224	2349
225	259
226	40
229	90
230	20
231	1549
232	299
233	699
234	159
235	30
236	60
237	10
248	119
249	139
250	329
251	459
252	60
264	40
265	149
266	9999
267	2179
268	269
269	30
