Mass Spectrum: Hydrazine, (1-methylethyl)-
Formula: C3 H10 N2
CAS: 2257-52-5
Molecular weight: 74
Origin: ATLAS OF MASS SPECTRA OF ORGANIC COMPOUNDS, V. A. KOPTYUG, ED.
m/z	RELATIVE INTENSITY
26	190
27	1870
28	510
29	640
30	900
31	2380
32	6610
33	130
38	130
39	870
40	270
41	2200
42	3560
43	1510
44	220
45	290
56	510
57	130
58	150
59	9999
60	320
73	170
74	3400
75	270
