Mass Spectrum: Methyl 3,3-dichloropropenoate
Formula: C4 H4 Cl2 O2
CAS: 2257-46-7
Molecular weight: 154
Origin: ASES Database, Dalian Institute, P.R. China
m/z	RELATIVE INTENSITY
55	600
57	380
59	670
60	2011
61	140
62	760
63	1591
65	610
87	70
95	1371
97	920
119	610
123	9999
124	530
125	6666
126	220
127	1451
136	230
154	990
156	770
