Mass Spectrum: Pyridine, 4-(methylthio)-
Formula: C6 H7 N S
CAS: 22581-72-2
Molecular weight: 125
m/z	RELATIVE INTENSITY
32	406
39	1016
45	488
47	325
50	488
51	3658
52	732
78	976
79	1463
80	813
83	732
92	3089
97	325
110	569
124	813
125	9999
126	976
127	325
