Mass Spectrum: 2-Butanone, 1,1-dichloro-3,3-dimethyl-
Formula: C6 H10 Cl2 O
CAS: 22591-21-5
Molecular weight: 168
Origin: Japan AIST/NIMC Database- Spectrum MS-IW-5079
m/z	RELATIVE INTENSITY
14	10
15	40
26	50
27	519
28	60
29	3129
30	20
35	20
36	139
37	40
38	109
39	1069
40	149
41	4999
42	319
43	129
44	20
47	50
48	179
49	119
50	109
51	119
52	20
53	329
54	40
55	409
56	239
57	9999
58	729
59	10
61	20
62	10
63	129
65	60
67	109
68	10
69	119
70	60
73	10
75	30
76	179
77	199
78	60
79	60
81	10
82	20
83	519
84	20
85	3599
86	209
87	50
89	299
90	10
91	109
92	10
96	10
97	10
111	60
113	30
117	10
125	90
127	50
153	20
155	10
