Mass Spectrum: 4-Methylcyclohexanol acetate
Formula: C9 H16 O2
CAS: 22597-23-5
Molecular weight: 156
Origin: NIST Mass Spectrometry Data Center, 1990.
m/z	RELATIVE INTENSITY
15	184
26	69
27	693
28	197
29	760
31	70
39	1174
40	268
41	1904
42	69
43	7127
44	289
45	157
50	73
51	169
52	86
53	644
54	2060
55	3069
56	375
57	834
58	573
59	69
60	72
61	384
65	179
66	196
67	1631
68	1459
69	452
70	354
71	321
77	191
78	53
79	396
80	53
81	9999
82	635
83	92
86	79
91	77
93	86
95	919
96	4784
97	702
98	50
99	100
113	136
114	70
