Mass Spectrum: Phosphorodithioic acid, O,S,S-trimethyl ester
Formula: C3 H9 O2 P S2
CAS: 22608-53-3
Molecular weight: 172
Origin: E.SANTORO MONTECATINI EDISON RES. CENTRE, MILAN, ITALY
m/z	RELATIVE INTENSITY
15	810
31	590
44	1010
45	3980
46	2410
47	8930
48	2770
61	680
62	1300
63	500
64	290
77	380
79	9710
94	1460
95	650
111	200
125	9999
126	4480
141	1350
142	680
157	1250
172	5980
