Mass Spectrum: 3,4-Hexanediol, 2,5-dimethyl-
Formula: C8 H18 O2
CAS: 22607-11-0
Molecular weight: 146
Origin: CARL DJERASSI DEPT OF CHEM STANFORD UNIV STANFORD CALIF 94305
m/z	RELATIVE INTENSITY
39	500
40	100
41	1600
42	200
43	2500
44	100
45	600
47	100
53	100
55	1900
56	700
57	1300
58	100
59	200
60	200
69	100
71	200
72	3100
73	9999
74	400
75	100
83	30
85	400
86	30
87	66
102	33
103	1000
104	33
146	33
