Mass Spectrum: Isobutyl ethylphosphonofluoridate
Formula: C6 H14 F O2 P
CAS: 2261-83-8
Molecular weight: 168
Origin: VERIFIN - Methodology B1-1979
m/z	RELATIVE INTENSITY
27	200
29	400
39	300
40	50
41	1101
42	80
43	400
55	300
56	800
57	300
67	400
68	100
73	60
84	300
85	300
93	70
95	400
96	1401
97	80
98	2602
111	200
112	400
113	9999
114	200
125	600
126	4203
127	300
153	200
