Mass Spectrum: Spiro[3.3]hepta-1,5-diene
Formula: C7 H8
CAS: 22635-78-5
Molecular weight: 92
m/z	RELATIVE INTENSITY
26	100
27	390
31	210
37	140
38	330
39	1700
40	550
41	180
43	100
45	180
50	290
51	520
52	210
53	230
58	100
61	120
62	250
63	560
64	160
65	1750
66	730
77	120
86	130
89	220
90	100
91	9999
92	3100
93	70
