Mass Spectrum: Pentanoic acid, 2-propyl-, methyl ester
Formula: C9 H18 O2
CAS: 22632-59-3
Molecular weight: 158
Origin: D.HENNEBERG, MAX-PLANCK INSTITUTE, MULHEIM, WEST GERMANY
m/z	RELATIVE INTENSITY
26	210
27	2665
28	611
29	2254
30	160
31	290
39	1262
40	240
41	2805
42	651
43	2054
45	390
51	180
53	270
54	210
55	2995
56	621
57	4008
58	260
59	1132
65	190
66	190
67	300
69	581
70	270
73	400
74	210
83	501
84	260
87	9999
88	1005
97	210
99	400
101	190
115	1022
116	4378
117	370
127	591
129	911
130	130
