Mass Spectrum: 2,4-Difluoroiodobenzene
Formula: C6 H3 F2 I
CAS: 2265-93-2
Molecular weight: 240
Origin: NIST Mass Spectrometry Data Center
m/z	RELATIVE INTENSITY
13	10
16	10
18	20
25	30
26	30
27	40
31	631
32	20
36	70
37	380
38	170
39	50
44	70
45	20
48	40
49	170
50	540
51	60
55	60
56	240
57	320
58	10
59	10
61	550
62	1001
63	4384
64	240
68	741
69	310
72	20
73	160
74	510
75	190
76	20
79	50
80	80
81	330
82	30
86	60
87	190
92	260
93	571
94	270
95	10
110	20
111	80
112	500
113	4604
114	330
120	270
127	1221
128	40
139	10
152	10
170	20
194	10
221	20
240	9999
241	691
242	20
