Mass Spectrum: 2,4,6-Trifluorophenol
Formula: C6 H3 F3 O
CAS: 2268-17-9
Molecular weight: 148
Origin: NIST Mass Spectrometry Data Center, 1994
m/z	RELATIVE INTENSITY
12	87
13	10
17	91
18	15
19	27
20	67
24	51
25	150
26	57
29	284
31	3180
32	48
33	38
36	158
37	564
38	312
39	131
40	74
44	322
47	52
48	104
49	359
50	3321
51	1030
52	56
53	521
54	47
55	321
56	816
57	509
58	21
60	165
61	666
62	256
63	74
64	359
66	19
67	52
68	575
69	1384
70	268
71	191
72	39
73	91
74	699
75	1407
76	89
77	137
78	19
79	348
80	527
81	1358
82	87
83	23
84	28
86	74
87	94
88	210
89	15
91	43
92	76
93	328
94	73
95	25
96	14
97	81
98	14
99	3928
100	9999
101	917
102	47
104	12
110	15
117	97
119	1457
120	157
128	518
129	97
130	17
131	37
148	7070
149	469
150	23
