Mass Spectrum: Phenol,2,4,5-trifluoro-
Formula: C6 H3 F3 O
CAS: 2268-16-8
Molecular weight: 148
Origin: NIST Mass Spectrometry Data Center
m/z	RELATIVE INTENSITY
12	30
17	30
18	10
19	40
20	20
25	90
26	70
28	200
29	440
31	1992
32	60
33	20
36	80
37	330
38	180
39	130
41	30
42	30
43	60
44	330
45	120
47	40
48	80
49	250
50	2172
51	871
52	50
53	280
54	40
55	290
56	711
57	390
58	20
60	150
61	500
62	190
63	70
64	80
68	430
69	1151
70	691
71	260
72	90
73	140
74	721
75	1281
76	100
77	80
79	280
80	440
81	1131
82	60
83	20
84	30
86	70
87	90
88	120
91	160
92	60
93	290
94	150
95	40
97	120
99	3703
100	8358
101	1051
102	60
104	20
106	40
110	10
117	80
119	1902
120	430
121	20
128	510
129	120
130	80
131	40
148	9999
149	631
150	30
