Mass Spectrum: 1H-Isoindole-1,3(2H)-dione, 2-(2-chlorophenyl)-
Formula: C14 H8 Cl N O2
CAS: 22698-95-9
Molecular weight: 257
Origin: J.L.COTTER MINISTRY OF AVIATION SUPPLY, RAE, FARNBOROUGH, UK
m/z	RELATIVE INTENSITY
38	100
39	100
50	600
51	100
62	100
63	200
64	100
65	100
74	200
75	400
76	1800
77	200
90	100
97	100
104	600
110	100
111	100
125	100
127	300
129	100
139	200
140	100
151	100
166	300
167	100
178	200
193	100
194	300
213	100
222	9999
223	1300
224	100
257	300
258	100
259	100
