Mass Spectrum: Anthra(1,2-b)thiophene
Formula: C16 H10 S
CAS: 227-86-1
Molecular weight: 234
Origin: Organic Synthesis Lab, MSU, Moscow.TRC 346
m/z	RELATIVE INTENSITY
40	80
44	40
74	40
86	40
87	70
91	80
98	60
100	40
101	40
103	140
104	361
110	50
111	40
115	100
116	531
117	1272
137	60
139	90
149	50
150	100
151	50
161	70
162	130
163	341
164	130
165	70
174	70
175	40
176	90
179	90
186	90
187	551
188	351
189	1072
190	160
198	50
199	50
201	160
202	511
203	90
208	190
228	60
232	952
234	9999
235	1763
236	601
