Mass Spectrum: Diacetoxyscirpenol
Formula: C19 H26 O7
CAS: 2270-40-8
Molecular weight: 366
Origin: OGDEN BioServices Corp., NCI, Rockville, MD 20852
m/z	RELATIVE INTENSITY
41	1047
42	330
43	9999
44	65
45	107
47	606
48	330
52	72
53	532
54	133
55	1032
56	180
57	246
58	27
59	40
60	129
61	206
63	39
64	33
65	374
66	136
67	643
68	128
69	497
70	85
71	262
72	36
73	137
74	15
77	971
78	248
79	1223
80	532
81	886
82	352
83	567
87	51
88	227
89	45
91	2908
92	424
93	1040
94	602
95	1894
96	700
97	465
98	91
99	112
100	41
101	36
102	34
103	231
104	285
105	4803
106	2345
107	1557
108	807
109	850
110	256
111	571
112	211
113	179
114	31
115	314
116	143
117	400
118	188
119	688
120	230
121	1189
122	2867
123	2688
124	3926
125	1414
126	453
127	175
128	229
129	377
130	194
131	503
132	146
133	420
134	258
135	387
136	130
137	282
138	515
139	545
140	130
141	498
142	1001
143	523
144	250
145	776
146	227
147	689
148	171
149	251
150	175
151	287
152	183
153	137
154	74
155	149
156	173
157	664
158	270
159	895
160	482
161	567
162	190
163	436
164	1374
165	319
166	207
167	166
168	115
169	262
170	125
171	409
172	855
173	741
174	243
175	946
176	406
177	293
178	65
179	66
180	45
181	268
182	110
183	234
184	83
185	575
186	251
187	682
188	563
189	506
190	142
191	290
192	75
193	57
194	14
195	80
196	31
197	144
198	143
199	282
200	639
201	390
202	79
203	650
204	194
205	423
206	91
207	32
209	39
210	67
211	68
212	18
213	158
214	33
215	303
216	150
217	233
218	813
219	532
220	81
221	55
222	11
223	28
225	25
227	52
228	94
229	189
230	46
231	106
232	29
233	562
234	181
235	131
236	49
237	13
238	10
239	12
243	25
245	113
246	132
247	260
248	69
249	38
250	13
251	15
252	13
257	12
258	11
259	11
261	94
262	19
263	692
264	141
265	38
266	9
273	15
275	77
276	26
277	122
278	2019
279	336
280	50
288	11
289	34
290	15
291	75
292	16
293	33
305	53
306	5083
307	1047
308	160
309	22
320	13
323	11
348	11
349	11
367	10
