Mass Spectrum: 5-Phenylvaleric acid
Formula: C11 H14 O2
CAS: 2270-20-4
Molecular weight: 178
Origin: NIST Mass Spectrometry Data Center, 1994
m/z	RELATIVE INTENSITY
15	43
26	72
27	506
30	4
31	34
37	21
39	823
40	69
41	151
42	156
43	282
44	4
45	914
46	27
47	16
50	256
51	668
52	187
53	61
57	15
58	20
60	270
62	84
63	404
65	1450
66	144
73	157
74	93
75	67
76	67
77	776
78	759
79	347
80	2
87	443
89	105
91	9999
92	1925
93	101
100	39
102	52
103	471
104	2755
105	1025
106	130
107	5
115	367
116	178
117	1039
118	733
119	230
120	18
125	21
126	18
127	52
128	91
129	183
130	13
131	168
132	870
133	156
142	326
143	40
145	71
160	2019
161	307
162	33
178	1939
179	218
180	28
