Mass Spectrum: 1-Cyclopentylacetonitrile
Formula: C7 H9 N
CAS: 22734-04-9
Molecular weight: 107
Origin: NIST Mass Spectrometry Data Center
m/z	RELATIVE INTENSITY
12	10
13	10
14	30
15	90
25	20
26	330
27	1121
28	290
30	10
37	260
38	540
39	2392
40	550
41	1852
42	120
49	110
50	621
51	891
52	681
53	440
54	130
55	20
60	20
61	70
62	160
63	280
64	200
65	931
66	1141
67	9999
68	571
69	10
75	140
76	180
77	881
78	270
79	1351
80	360
81	40
91	10
92	40
102	10
104	80
105	40
107	1792
108	150
