Mass Spectrum: Ethylene diacrylate
Formula: C8 H10 O4
CAS: 2274-11-5
Molecular weight: 170
Origin: NIST Mass Spectrometry Data Center, 1994
m/z	RELATIVE INTENSITY
14	37
15	44
26	191
27	1995
28	519
29	1300
30	38
31	115
32	70
39	714
41	3011
42	828
43	3356
44	152
45	51
51	37
53	340
55	9999
56	2164
57	2265
58	135
65	59
66	50
67	435
68	37
69	4799
70	4101
71	1800
72	50
73	1251
74	85
77	47
79	74
81	414
82	349
83	1664
84	2860
85	1221
86	99
87	34
93	21
95	158
96	674
97	2907
98	706
99	308
100	73
101	29
109	67
110	215
111	1336
112	800
113	195
114	36
123	41
124	34
125	251
126	30
127	86
139	45
140	210
141	153
142	29
155	63
156	25
157	51
169	42
