Mass Spectrum: 1-Acetamidopyrene
Formula: C18 H13 N O
CAS: 22755-15-3
Molecular weight: 259
Origin: J.E. WILKINSON S-CUBED, SAN DIEGO, CA.
m/z	RELATIVE INTENSITY
63	1
73	14
87	6
94	165
99	1
100	8
111	1
150	1
161	16
162	9
163	174
164	11
165	15
185	4
186	46
187	1224
188	942
189	5127
190	879
191	11
199	1
200	77
201	19
202	5
212	38
213	11
214	974
215	267
216	2615
217	9999
218	2208
219	83
223	10
243	6
257	43
258	1
259	3908
260	618
261	2
