Mass Spectrum: Cyclobutane, 1,2-dipropenyl-
Formula: C10 H16
CAS: 22769-00-2
Molecular weight: 136
m/z	RELATIVE INTENSITY
27	500
28	300
29	200
39	900
40	500
41	900
42	300
51	200
52	100
53	1000
55	200
65	300
66	200
67	3200
68	9999
69	500
77	300
78	100
79	300
80	100
81	200
91	300
92	200
93	800
94	400
95	100
107	200
121	100
136	400
