Mass Spectrum: 2-(1,1-Dimethylethyl)-6-(1-methylethyl)phenol
Formula: C13 H20 O
CAS: 22791-95-3
Molecular weight: 192
Origin: Organic Synthesis Lab, MSU, Moscow.TRC 1501
m/z	RELATIVE INTENSITY
57	499
77	229
91	549
107	429
115	359
117	499
131	269
133	219
135	259
149	1049
161	199
177	9999
178	1509
192	4269
193	749
