Mass Spectrum: Hexanoyl chloride, 6-bromo-
Formula: C6 H10 Br Cl O
CAS: 22809-37-6
Molecular weight: 212
Origin: Japan AIST/NIMC Database- Spectrum MS-NW-9668
m/z	RELATIVE INTENSITY
14	10
15	40
18	10
26	149
27	1489
28	339
29	489
30	10
31	10
32	30
33	10
34	40
35	80
36	669
37	60
38	269
39	1439
40	309
41	4269
42	1039
43	609
44	30
45	20
47	20
48	289
49	189
50	70
51	109
52	40
53	409
54	429
55	7549
56	379
57	70
60	269
61	40
62	30
63	359
64	20
65	169
66	40
67	589
68	839
69	9999
70	839
71	40
72	10
73	169
74	10
75	60
76	50
77	109
78	1879
79	429
80	759
81	109
82	259
83	30
84	40
85	10
86	10
87	30
88	50
89	40
90	50
91	639
92	40
93	279
94	10
95	129
96	249
97	4559
98	349
99	30
103	10
104	90
105	109
106	60
107	509
108	60
109	469
110	10
114	20
115	149
116	20
117	50
119	30
120	10
121	50
122	20
123	20
131	10
132	369
133	219
134	389
135	539
136	50
137	459
138	20
148	219
149	319
150	229
151	309
152	20
155	10
170	10
172	10
176	179
177	3059
178	379
179	3009
180	199
181	10
184	10
186	10
197	10
199	20
201	10
