Mass Spectrum: Benzene, 1,1'-(1,3,5,7-octatetraene-1,8-diyl)bis-, (all-E)-
Formula: C20 H18
CAS: 22828-29-1
Molecular weight: 258
Origin: Japan AIST/NIMC Database- Spectrum MS-IW-5960
m/z	RELATIVE INTENSITY
27	40
28	30
38	10
39	209
40	10
41	40
50	70
51	279
52	80
53	40
62	30
63	199
64	50
65	279
66	20
67	20
74	40
75	80
76	179
77	529
78	289
79	50
81	10
82	20
83	10
86	60
87	40
88	60
89	259
90	50
91	1969
92	169
93	10
94	50
95	20
98	10
99	10
100	30
101	189
102	229
103	319
104	509
105	90
106	40
107	139
108	109
109	40
112	20
113	189
114	289
115	1749
116	399
117	5339
118	529
119	179
120	179
121	90
122	10
125	40
126	229
127	389
128	1209
129	1679
130	239
131	20
138	10
139	159
140	30
141	959
142	259
143	169
144	20
150	40
151	219
152	1369
153	919
154	3519
155	729
156	149
157	10
163	50
164	90
165	2179
166	1289
167	5449
168	799
169	139
170	10
175	10
176	99
177	99
178	759
179	1019
180	829
181	349
182	40
187	10
188	10
189	70
190	30
191	119
192	50
193	70
194	10
200	20
201	20
202	229
203	119
204	139
205	30
213	30
214	10
215	399
216	169
217	429
218	80
224	10
225	10
226	99
227	90
228	329
229	299
230	169
231	60
232	10
237	10
238	10
239	229
240	139
241	339
242	199
243	489
244	99
245	10
250	30
251	10
252	149
253	129
254	80
255	199
256	519
257	409
258	9999
259	2179
260	279
261	20
