Mass Spectrum: 4-Methoxyphenyl isothiocyanate
Formula: C8 H7 N O S
CAS: 2284-20-0
Molecular weight: 165
Origin: Japan AIST/NIMC Database- Spectrum MS-NW-9724
m/z	RELATIVE INTENSITY
15	20
18	10
26	20
27	30
28	10
29	50
31	10
32	10
37	60
38	109
39	199
40	10
41	10
44	40
45	169
47	10
49	10
50	189
51	159
52	99
53	40
54	10
57	10
58	10
60	10
61	40
62	99
63	439
64	309
65	30
66	20
69	70
70	139
71	20
72	50
73	20
74	80
75	90
76	80
77	109
78	239
79	20
80	20
82	139
83	40
84	10
88	10
90	209
91	20
92	109
93	10
94	40
95	159
96	149
97	10
102	20
103	40
104	10
106	20
107	40
108	10
118	10
119	10
120	10
121	20
122	2309
123	179
124	109
132	10
133	70
134	129
135	20
136	20
149	20
150	5329
151	489
152	269
153	20
165	9999
166	1009
167	519
168	40
