Mass Spectrum: 2,5-Dimethylpyrimidine
Formula: C6 H8 N2
CAS: 22868-76-4
Molecular weight: 108
Origin: A.J. MACLEOD, DEP. CHEM., QUEEN ELIZ. COLL., UNIV. LONDON, U&
m/z	RELATIVE INTENSITY
39	2500
40	1000
41	1200
42	9999
51	100
52	300
66	50
67	100
81	800
93	100
107	50
108	4300
109	50
