Mass Spectrum: Famprofazone
Formula: C24 H31 N3 O
CAS: 22881-35-2
Molecular weight: 377
Origin: NIST Mass Spectrometry Data Center, 1998.
m/z	RELATIVE INTENSITY
15	20
27	70
28	10
29	70
30	60
38	10
39	260
40	40
41	930
42	790
43	350
44	520
45	10
50	30
51	190
52	60
53	710
54	140
55	370
56	720
57	70
58	350
59	20
62	10
63	70
64	80
65	610
66	290
67	240
68	180
69	510
70	150
71	70
72	870
73	40
74	10
75	10
76	40
77	1040
78	160
79	1160
80	280
81	1150
82	590
83	210
84	50
85	10
89	60
90	30
91	3230
92	470
93	380
94	400
95	600
96	380
97	60
98	30
99	10
101	10
102	20
103	90
104	240
105	150
106	260
107	120
108	330
109	570
110	630
111	70
112	30
114	10
115	120
116	40
117	140
118	170
119	340
120	110
121	550
122	220
123	80
124	290
125	50
126	60
127	20
128	50
129	30
130	150
131	80
132	170
133	70
134	60
135	20
136	1100
137	140
138	50
139	20
141	10
142	30
143	80
144	110
145	70
146	80
147	130
148	60
149	30
150	20
151	40
152	20
153	10
154	20
155	30
156	60
157	100
158	80
159	30
160	50
161	10
162	230
163	40
164	10
165	30
166	30
167	30
168	20
169	30
170	200
171	70
172	250
173	100
174	220
175	40
176	10
177	10
178	10
180	10
181	50
182	30
183	40
184	50
185	80
186	90
187	340
188	100
189	30
193	10
194	10
195	10
196	10
197	30
198	90
199	140
200	60
201	170
202	30
209	10
210	50
211	30
212	20
213	160
214	770
215	280
216	40
217	10
225	10
226	10
227	450
228	1230
229	2920
230	480
231	50
242	20
243	40
244	70
245	10
255	10
256	10
258	30
259	10
270	10
271	30
272	10
284	10
286	9999
287	1950
288	190
289	10
334	10
346	10
362	20
376	10
377	80
378	30
