Mass Spectrum: 2,8,9-Trioxa-5-aza-1-silabicyclo[3.3.3]undecane, 1-methyl-
Formula: C7 H15 N O3 Si
CAS: 2288-13-3
Molecular weight: 189
Origin: NIST Mass Spectrometry Data Center, 1998.
m/z	RELATIVE INTENSITY
15	80
26	40
27	190
28	240
29	170
30	80
31	20
39	40
40	30
41	260
42	730
43	300
44	90
45	980
46	60
47	90
49	10
50	10
52	10
53	10
54	260
55	200
56	460
57	220
58	130
59	350
60	200
61	820
62	140
63	280
64	330
67	10
68	130
69	30
70	140
71	260
72	190
73	140
74	160
75	340
76	130
77	860
78	70
79	180
81	10
82	70
83	10
84	30
85	70
86	250
87	390
88	480
89	410
90	160
91	520
92	30
93	30
94	20
97	10
98	150
99	90
100	1200
101	550
102	660
103	960
104	880
105	370
106	40
107	20
111	10
112	90
113	30
114	400
115	520
116	2610
117	1560
118	480
119	280
120	40
121	10
126	40
127	20
128	210
129	150
130	900
131	740
132	570
133	160
134	40
135	10
142	10
143	320
144	740
145	460
146	9999
147	1240
148	450
149	20
156	20
157	20
158	2200
159	1210
160	280
161	130
162	10
172	140
174	8079
175	1010
176	330
177	10
188	180
189	2570
190	350
191	110
192	10
