Mass Spectrum: Isopropyl linoleate
Formula: C21 H38 O2
CAS: 22882-95-7
Molecular weight: 322
Origin: NIST Mass Spectrometry Data Center, 1994
m/z	RELATIVE INTENSITY
14	66
15	125
18	53
27	2150
28	829
29	2906
31	118
39	1759
41	9243
42	2276
43	9444
44	470
45	382
51	116
52	132
53	1249
54	3391
55	7460
56	1022
57	1183
58	83
59	617
60	593
61	85
65	698
67	9999
68	3346
69	3894
70	677
71	583
72	48
73	442
76	142
77	1263
78	483
79	4111
80	2139
81	8271
82	3770
83	2276
84	557
85	377
86	61
87	208
90	133
91	1079
92	238
93	1483
94	1024
95	5861
96	2867
97	1561
98	554
99	284
100	78
101	214
102	74
105	269
106	147
107	826
108	663
109	2844
110	1657
111	739
112	207
113	197
114	130
115	124
117	88
119	297
121	787
122	589
123	1832
124	870
125	396
126	203
127	257
129	75
131	151
132	75
133	306
134	109
135	757
136	499
137	1039
138	458
139	258
140	207
141	100
145	84
146	42
147	239
148	84
149	540
150	455
151	563
152	288
153	263
154	204
155	68
157	55
159	147
161	134
162	56
163	366
164	289
165	288
166	140
167	238
168	204
169	60
173	189
175	95
177	235
178	182
179	197
180	109
181	306
182	233
183	65
187	102
191	102
192	60
193	66
194	53
195	295
196	189
207	79
209	253
210	119
219	54
220	95
221	56
222	73
223	136
224	85
237	69
243	65
245	64
261	113
262	329
263	1155
264	412
265	235
266	58
279	2333
280	894
281	130
322	354
323	84
