Mass Spectrum: Phenanthridine
Formula: C13 H9 N
CAS: 229-87-8
Molecular weight: 179
Origin: NIST Mass Spectrometry Data Center, 1990.
m/z	RELATIVE INTENSITY
25	7
26	40
27	75
28	55
37	42
38	101
39	280
40	21
48	6
49	41
50	371
51	389
52	98
53	10
55	9
56	9
59	14
60	14
61	103
62	326
63	863
64	80
65	28
73	59
74	458
75	868
76	1389
77	212
78	44
84	12
85	57
86	179
87	232
88	139
89	675
97	30
98	196
99	217
100	140
101	150
102	168
103	30
104	6
109	21
110	56
111	68
112	35
113	125
114	44
115	33
116	10
120	6
121	20
122	52
123	50
124	70
125	260
126	410
127	171
128	100
129	38
130	7
135	6
137	27
138	24
139	43
140	104
141	13
146	13
147	11
149	166
150	927
151	1710
152	1256
153	614
154	60
164	39
165	11
174	7
175	51
176	181
177	734
178	2715
179	9999
180	1253
181	100
182	5
