Mass Spectrum: Methyl benzo[b]thiophene-2-carboxylate
Formula: C10 H8 O2 S
CAS: 22913-24-2
Molecular weight: 192
Origin: NIST Mass Spectrometry Data Center
m/z	RELATIVE INTENSITY
12	10
13	30
14	160
15	1531
16	40
17	20
18	90
25	10
26	70
27	140
28	300
29	981
30	330
31	260
32	60
33	10
36	10
37	150
38	320
39	1021
40	50
43	20
44	70
45	490
46	10
47	20
49	70
50	550
51	310
52	30
53	160
57	210
58	120
59	290
60	50
61	310
62	651
63	1802
64	130
65	70
66	510
69	921
70	80
71	80
72	10
73	110
74	390
75	220
76	60
77	140
78	10
81	591
82	430
83	90
84	40
85	90
86	190
87	330
89	5845
90	460
91	30
93	571
94	100
95	70
96	110
97	30
98	70
99	20
100	10
101	20
102	30
103	30
104	10
105	110
106	210
107	50
108	40
115	20
117	20
119	10
120	40
121	110
122	10
129	10
130	10
133	2662
134	691
135	180
136	30
147	260
148	40
149	60
161	9999
162	1111
163	530
164	50
176	10
192	5525
193	671
194	300
195	30
