Mass Spectrum: 4-Cyanobenzoic acid, 2-methylphenyl ester
Formula: C15 H11 N O2
CAS: 229164-37-8
Molecular weight: 237
Origin: Zaikin V.G., TIPS RAS, Moscow, Russia
m/z	RELATIVE INTENSITY
27	90
28	10
36	100
38	70
39	150
40	30
41	20
44	130
50	250
51	380
52	140
53	80
62	30
63	80
64	30
65	80
74	100
75	470
76	350
77	420
78	150
79	100
89	20
91	60
99	30
101	70
102	2833
103	280
107	140
108	60
119	60
129	30
130	9999
131	931
132	50
135	60
147	751
148	60
151	50
152	30
161	40
237	1131
238	210
