Mass Spectrum: Benzaldehyde, 2-ethyl-
Formula: C9 H10 O
CAS: 22927-13-5
Molecular weight: 134
Origin: Susan Richardson
m/z	RELATIVE INTENSITY
39	320
41	50
43	20
50	290
51	851
52	70
53	170
62	50
63	571
65	671
66	30
74	210
75	110
76	120
77	1982
78	611
79	1431
89	540
90	240
91	4114
92	420
102	160
103	1171
104	260
105	5115
106	490
115	1581
116	731
117	791
119	581
133	9999
134	9649
135	841
