Mass Spectrum: Benzaldehyde, 3-ethoxy-
Formula: C9 H10 O2
CAS: 22924-15-8
Molecular weight: 150
m/z	RELATIVE INTENSITY
15	170
26	380
27	2072
29	2372
30	60
31	40
36	40
37	220
38	811
39	2672
40	350
41	120
42	60
43	220
44	50
45	50
49	60
50	881
51	1331
52	120
53	310
54	40
55	230
60	20
61	150
62	430
63	1301
64	801
65	2933
66	911
67	140
68	40
69	40
71	40
73	60
74	320
75	270
76	540
77	911
78	140
79	190
80	40
81	40
83	20
85	20
91	190
92	350
93	1962
94	1051
95	100
103	40
104	50
105	250
106	40
107	160
108	190
109	20
119	90
120	380
121	9999
122	4444
123	370
124	20
135	20
147	20
149	150
150	4894
151	490
152	50
