Mass Spectrum: Cyprazine
Formula: C9 H14 Cl N5
CAS: 22936-86-3
Molecular weight: 227
Origin: NIST Mass Spectrometry Data Center, 1998.
m/z	RELATIVE INTENSITY
14	20
15	140
26	110
27	1130
28	1720
29	220
30	200
35	10
36	20
37	30
38	110
39	1670
40	350
41	3660
42	1500
43	3100
44	430
45	10
49	20
51	30
52	120
53	720
54	970
55	910
56	2140
57	300
58	2140
59	70
61	20
62	810
63	40
64	270
65	30
66	90
67	510
68	3110
69	1560
70	120
71	10
74	10
75	100
76	20
77	40
78	130
79	270
80	260
81	1240
82	540
83	1200
84	80
85	100
86	10
87	600
88	130
89	210
90	50
91	90
92	10
93	720
94	650
95	400
96	100
97	40
98	1410
99	490
101	60
102	100
103	60
104	810
105	410
106	520
107	450
108	1080
109	1200
110	360
111	30
113	10
114	30
115	30
116	50
117	140
118	30
119	200
120	60
121	220
122	110
123	400
124	40
125	10
127	20
128	90
129	510
130	560
131	320
132	210
133	130
134	1530
135	380
136	110
137	150
138	20
141	20
142	70
143	40
144	540
145	120
146	240
147	60
148	300
149	140
150	390
151	70
152	50
154	30
155	370
156	100
157	530
158	210
159	170
160	120
161	20
162	30
163	10
165	10
167	20
168	100
169	180
170	4280
171	430
172	1650
173	140
174	110
175	20
176	170
177	20
182	20
183	70
184	1240
185	350
186	570
187	150
188	70
190	40
191	10
192	500
193	70
195	70
196	180
197	50
198	90
199	160
200	180
201	70
202	60
209	10
210	100
212	9999
213	1110
214	3190
215	310
216	20
224	30
226	2470
227	4710
228	1320
229	1510
230	150
