Mass Spectrum: 5-Undecyne
Formula: C11 H20
CAS: 2294-72-6
Molecular weight: 152
Origin: D.HENNEBERG, MAX-PLANCK INSTITUTE, MULHEIM, WEST GERMANY
m/z	RELATIVE INTENSITY
27	1131
28	225
29	2069
30	53
31	30
37	7
38	12
39	865
40	216
41	4644
42	549
43	1831
44	98
45	19
48	12
50	30
51	150
52	297
53	1668
54	9598
55	5699
56	822
57	622
58	79
59	18
60	17
61	13
64	14
65	464
66	432
67	9999
68	2770
69	1166
70	152
71	120
72	16
73	7
74	10
75	17
77	572
78	122
79	1347
80	492
81	8563
82	2890
83	374
84	58
85	76
86	10
87	5
91	308
92	37
93	457
94	222
95	5930
96	1786
97	330
98	36
99	29
100	9
103	11
105	44
106	11
107	103
108	59
109	2177
110	879
111	187
112	27
113	21
114	8
117	9
118	8
119	15
121	25
122	13
123	1566
124	398
125	82
126	9
127	7
131	7
133	16
135	11
137	192
138	63
139	9
150	9
151	55
152	270
153	34
