Mass Spectrum: 9-Ethylfluorene
Formula: C15 H14
CAS: 2294-82-8
Molecular weight: 194
Origin: Japan AIST/NIMC Database- Spectrum MS-NW-8402
m/z	RELATIVE INTENSITY
27	60
28	10
29	40
38	10
39	90
41	10
50	50
51	80
52	10
61	10
62	60
63	199
64	20
65	40
69	10
70	119
74	80
75	99
76	149
77	40
81	30
82	99
83	179
85	10
86	60
87	99
88	109
89	159
90	10
91	20
94	20
95	40
96	10
97	10
98	30
99	30
100	10
101	10
102	20
110	20
111	20
112	10
113	60
114	20
115	249
116	20
125	10
126	50
127	20
128	20
137	50
138	40
139	369
140	50
141	10
149	10
150	70
151	119
152	209
153	50
161	20
162	80
163	669
164	599
165	9999
166	1629
167	189
168	149
169	20
174	10
175	20
176	199
177	139
178	679
179	459
180	90
181	40
187	20
188	20
189	99
190	40
191	60
192	30
193	60
194	3799
195	629
196	50
