Mass Spectrum: Pyridine, 2-pentyl-
Formula: C10 H15 N
CAS: 2294-76-0
Molecular weight: 149
m/z	RELATIVE INTENSITY
26	290
27	1621
28	257
29	1071
38	180
39	1371
40	190
41	190
42	80
43	80
50	200
51	711
52	510
53	290
54	90
55	50
63	140
64	100
65	881
66	390
67	100
77	190
78	701
79	490
80	150
91	110
92	591
93	9999
94	711
104	100
105	80
106	2302
107	631
117	190
118	270
119	100
120	2152
121	260
134	140
135	20
148	160
149	150
