Mass Spectrum: 1,1-Dimethyl-1-silacyclobutane
Formula: C5 H12 Si
CAS: 2295-12-7
Molecular weight: 100
Origin: GUSELNIKOV, TOPCHIEV INST. PETROCHEM. SYNTH., MOSCOW,USSR
m/z	RELATIVE INTENSITY
53	300
55	600
57	600
59	2500
70	600
71	700
72	9999
73	3500
74	700
85	800
100	2400
101	600
