Mass Spectrum: 2-Pyrrolidinethione
Formula: C4 H7 N S
CAS: 2295-35-4
Molecular weight: 101
Origin: NIST Mass Spectrometry Data Center, 1994
m/z	RELATIVE INTENSITY
15	351
26	433
27	952
28	224
29	241
30	929
31	71
32	153
33	149
37	226
38	384
39	1808
40	997
41	4236
42	3093
43	824
44	400
45	1808
46	970
47	239
48	121
49	121
50	300
51	89
52	143
53	89
54	762
55	106
56	349
57	210
58	624
59	931
60	1111
61	125
62	86
66	88
67	835
68	861
69	452
70	210
71	1424
72	1478
73	1608
74	316
75	75
86	374
100	3110
101	9999
102	743
103	470
