Mass Spectrum: Flopropione
Formula: C9 H10 O4
CAS: 2295-58-1
Molecular weight: 182
Origin: Japan AIST/NIMC Database- Spectrum MS-NW-3516
m/z	RELATIVE INTENSITY
14	10
15	20
18	20
26	40
27	259
28	60
29	189
31	20
37	40
38	60
39	209
40	40
41	389
42	99
43	199
44	10
45	10
49	20
50	99
51	219
52	50
53	169
54	40
55	299
56	30
57	199
59	10
61	20
62	30
63	50
64	10
65	40
66	70
67	169
68	50
69	679
70	40
71	30
73	10
74	10
75	10
76	30
77	80
78	70
79	109
80	20
81	30
82	70
83	80
84	60
85	30
89	10
91	10
93	20
94	10
95	60
96	109
97	109
98	20
99	10
107	40
108	30
109	10
110	20
111	189
112	70
113	10
121	10
123	10
124	139
125	40
126	50
127	10
135	70
136	20
137	20
139	40
140	20
147	10
152	60
153	9999
154	799
155	119
163	129
164	50
165	30
167	10
179	10
181	20
182	3029
183	319
184	40
