Mass Spectrum: 1,1,3-Trimethyl-1-silacyclobutane
Formula: C6 H14 Si
CAS: 2295-13-8
Molecular weight: 114
Origin: L.E.GUSEL'NIKOV, TOPCHIEV INST. PETROCHEM. SYNTH., MOSCOW,USSR
m/z	RELATIVE INTENSITY
39	100
41	100
42	200
43	1000
44	1400
45	400
53	100
55	200
56	100
57	200
58	200
59	1000
70	300
71	600
72	9999
73	1400
74	300
86	1600
87	200
88	100
99	400
114	500
115	100
