Mass Spectrum: Piperidine, 1-trichloroacetyl-,
Formula: C7 H10 Cl3 N O
CAS: 2296-53-9
Molecular weight: 229
Origin: A.A.Kutin, Moscow, Russia
m/z	RELATIVE INTENSITY
33	144
34	203
35	136
36	580
37	139
38	286
39	1360
40	2525
41	7025
42	2408
43	1002
44	1115
45	75
47	322
48	114
49	269
50	119
51	252
53	605
54	588
55	1806
56	1890
57	283
58	67
61	72
62	61
63	142
64	108
65	150
67	638
69	9999
70	1099
71	142
72	64
73	53
75	108
76	119
77	128
78	136
79	122
80	111
82	780
83	705
84	968
85	222
86	61
87	75
88	31
89	36
90	44
91	97
92	72
93	83
94	75
95	125
96	67
97	86
98	108
99	31
100	55
101	39
102	42
103	55
104	53
105	36
107	31
109	89
110	416
112	9910
113	585
114	103
117	466
118	42
119	497
121	214
122	31
123	53
124	67
126	89
127	31
128	19
129	19
130	50
131	22
132	36
135	44
136	61
138	44
139	25
140	31
146	25
148	33
149	72
150	39
152	22
160	86
162	39
164	97
165	53
166	250
167	25
168	250
169	58
170	39
171	64
174	19
178	44
181	19
192	22
193	103
194	580
195	130
196	394
197	136
199	67
202	19
208	28
209	19
229	283
230	83
231	252
232	47
233	111
