Mass Spectrum: 5-(2-Thienoyl)butyric acid
Formula: C9 H10 O3 S
CAS: 22971-62-6
Molecular weight: 198
Origin: NIST Mass Spectrometry Data Center
m/z	RELATIVE INTENSITY
12	10
14	20
15	50
17	20
18	40
25	10
26	70
27	480
28	100
29	120
30	10
31	100
32	10
36	10
37	60
38	200
39	2292
40	130
41	360
42	320
43	250
45	1281
46	40
47	20
49	10
50	50
51	50
52	20
53	170
55	370
57	330
58	170
59	40
60	30
65	20
66	20
67	30
68	30
69	110
70	60
71	30
76	10
77	10
80	10
81	120
82	150
83	741
84	170
85	80
86	20
87	60
95	20
97	140
98	20
99	10
108	10
109	40
111	9999
112	611
113	490
114	30
115	10
119	10
120	10
121	10
123	30
124	10
126	1732
127	110
128	100
135	10
137	10
139	190
140	20
141	10
149	10
151	20
152	110
153	70
154	10
165	20
167	10
180	50
181	30
198	751
199	70
200	40
