Mass Spectrum: Benzene, 1-(1-ethylpropyl)-4-methyl-
Formula: C12 H18
CAS: 22975-58-2
Molecular weight: 162
m/z	RELATIVE INTENSITY
2	40
12	10
13	10
14	30
15	340
16	10
26	180
27	1812
28	651
29	1371
30	30
37	50
38	130
39	1471
40	140
41	2793
42	1651
43	400
44	60
49	20
50	260
51	751
52	260
53	350
54	40
55	210
56	340
57	400
58	50
60	10
61	20
62	100
63	380
64	140
65	621
66	60
67	40
68	20
69	90
70	30
71	40
72	10
73	10
74	60
75	90
76	80
77	901
78	731
79	370
80	30
83	20
84	60
86	40
87	20
88	20
89	160
90	40
91	1581
92	190
93	380
94	30
95	10
99	10
102	110
103	280
104	100
105	9999
106	871
107	40
110	10
111	10
112	10
113	10
114	20
115	711
116	300
117	831
118	340
119	160
120	20
126	10
127	60
128	130
129	100
130	30
131	150
132	120
133	9699
134	1031
135	60
141	10
143	10
145	10
146	10
147	10
148	20
160	10
161	10
162	2362
163	270
