Mass Spectrum: p-Anisaldehyde, azine
Formula: C16 H16 N2 O2
CAS: 2299-73-2
Molecular weight: 268
m/z	RELATIVE INTENSITY
51	601
64	601
77	1702
78	200
91	701
92	1101
93	100
133	701
134	2502
135	1301
136	100
161	6005
162	601
225	500
240	1101
241	1201
242	100
253	1101
254	100
267	5205
268	9999
269	1802
270	100
