Mass Spectrum: 4,7-Phenanthroline
Formula: C12 H8 N2
CAS: 230-07-9
Molecular weight: 180
Origin: GFS Chemicals / NIST MS Data Center.
m/z	RELATIVE INTENSITY
13	10
16	2
18	18
26	52
28	201
29	8
37	50
38	85
39	137
40	7
44	4
49	71
50	370
51	238
52	115
53	11
60	17
61	106
62	241
63	545
65	22
72	10
73	60
74	392
75	432
76	483
78	38
79	21
85	43
86	92
87	148
88	72
89	73
90	440
96	8
97	32
98	185
99	280
100	282
101	238
102	138
103	53
110	13
111	23
112	24
113	45
114	57
115	9
121	11
122	27
123	39
124	92
125	526
126	874
127	393
128	99
129	45
138	14
139	11
140	46
141	12
150	40
151	252
152	1010
153	1229
154	383
155	42
177	89
179	4769
180	9999
181	1292
182	86
