Mass Spectrum: 3-Pyridinol, 6-methyl-2-(methylthio)-
Formula: C7 H9 N O S
CAS: 23003-25-0
Molecular weight: 155
m/z	RELATIVE INTENSITY
26	389
27	1762
28	984
37	183
38	275
39	801
40	183
41	229
42	755
43	160
44	183
45	755
50	458
51	1327
52	1785
53	3341
54	366
55	275
70	458
78	389
79	275
80	1762
81	1373
82	481
93	686
94	1602
95	412
96	320
106	206
108	412
109	503
110	618
112	778
122	9152
123	869
140	69
154	1670
155	9999
156	984
157	412
