Mass Spectrum: Thiazolo[3,2-a]pyridinium, 2,3-dihydro-8-hydroxy-, hydroxide, inner salt
Formula: C7 H7 N O S
CAS: 23003-45-4
Molecular weight: 153
m/z	RELATIVE INTENSITY
38	1258
39	8608
44	464
45	861
51	464
52	695
53	497
58	430
59	430
60	331
70	1854
80	894
81	662
97	2417
110	1887
124	1291
125	4900
126	397
127	364
152	927
153	9999
154	1192
155	795
