Mass Spectrum: 3'-Trifluoromethyl-2,2-dimethylvaleranilide
Formula: C14 H18 F3 N O
CAS: 2300-87-0
Molecular weight: 273
Origin: NIST Mass Spectrometry Data Center, 1994
m/z	RELATIVE INTENSITY
14	4
15	155
17	14
18	28
20	28
27	1779
28	325
29	1405
30	36
32	14
37	27
38	115
39	1399
40	331
41	4356
42	960
43	9561
44	353
46	12
50	104
51	123
52	87
53	238
54	74
55	716
56	348
57	1560
58	80
61	11
62	52
63	285
64	170
65	154
66	25
67	83
68	56
69	827
70	508
71	81
75	191
76	49
77	39
79	17
80	9
81	39
83	316
85	9999
86	645
87	32
88	92
89	30
90	65
91	162
92	28
93	51
94	39
95	231
96	25
97	27
99	39
100	24
101	15
102	19
107	27
108	16
109	57
110	15
111	103
112	15
113	478
114	305
115	55
118	17
119	39
120	116
121	16
125	127
126	47
127	27
130	11
132	72
133	171
134	50
137	12
138	8
139	62
140	282
141	90
142	156
143	41
144	8
145	624
146	57
158	21
160	617
161	2406
162	250
163	13
168	31
172	26
173	17
174	41
186	44
187	106
188	229
189	24
198	11
200	12
202	327
203	51
216	38
217	54
228	12
231	2012
232	269
233	19
244	41
245	19
254	412
255	62
258	17
273	166
274	27
