Mass Spectrum: Imidazole, 1-(p-nitrophenyl)-
Formula: C9 H7 N3 O2
CAS: 2301-25-9
Molecular weight: 189
Origin: NIST Mass Spectrometry Data Center, 1994
m/z	RELATIVE INTENSITY
14	4
26	543
28	397
30	687
32	182
37	239
38	698
39	1184
40	396
41	497
50	2309
51	886
52	690
53	239
61	239
62	756
63	2484
64	865
65	480
66	165
74	612
75	1076
76	1812
77	1050
78	334
88	511
89	3922
90	855
102	363
103	307
104	810
105	188
114	327
115	788
116	5117
117	652
131	190
132	1343
142	702
143	467
145	159
159	206
162	202
189	9999
190	1100
