Mass Spectrum: Butane, 1,3-dichloro-2-methyl-
Formula: C5 H10 Cl2
CAS: 23010-07-3
Molecular weight: 140
Origin: COMPAGNIE FRANCAISE DE RAFFINAGE, FRANCE.
m/z	RELATIVE INTENSITY
25	14
26	241
27	2398
28	280
29	1018
30	25
31	27
35	78
36	481
37	105
38	307
39	1515
40	309
41	5111
42	3873
43	611
44	21
47	28
48	32
49	557
50	164
51	415
52	72
53	1056
54	94
55	2315
56	172
57	26
60	20
61	142
62	287
63	2068
64	138
65	699
66	37
67	225
68	312
69	9999
70	630
71	18
73	52
74	6
75	188
76	704
77	2284
78	299
79	727
80	26
83	20
85	18
87	25
88	9
89	759
90	52
91	1245
92	62
93	324
94	15
97	17
99	11
103	57
104	1018
105	179
106	330
107	53
125	6
139	20
140	5
141	13
