Mass Spectrum: 1-Butene, 1-chloro-3-methyl-
Formula: C5 H9 Cl
CAS: 23010-00-6
Molecular weight: 104
Origin: COMPAGNIE FRANCAISE DE RAFFINAGE, FRANCE.
m/z	RELATIVE INTENSITY
26	556
27	2965
28	310
29	442
30	12
31	75
35	47
36	213
37	214
38	426
39	2207
40	462
41	6175
42	933
43	744
49	408
50	584
51	1163
52	265
53	7531
54	409
55	585
56	37
61	349
62	281
63	402
64	81
65	230
66	67
67	571
68	218
69	9999
70	606
71	17
75	393
76	177
77	124
78	9
87	73
88	102
89	5019
90	258
91	1588
103	65
104	2717
105	173
106	887
