Mass Spectrum: 1,3-Benzenedicarboxylic acid, 4-methyl-, dimethyl ester
Formula: C11 H12 O4
CAS: 23038-61-1
Molecular weight: 208
Origin: L.E. Slivon, Battelle Columbus Laboratories, Columbus, Ohio 43201
m/z	RELATIVE INTENSITY
41	91
42	35
43	101
44	66
45	309
46	6
49	9
50	246
51	624
52	258
53	224
54	6
55	79
57	31
59	649
60	22
61	85
62	567
63	2197
64	624
65	608
66	91
67	50
68	3
69	35
70	3
71	3
72	6
73	290
74	151
75	233
76	157
77	1401
78	1161
79	230
80	19
81	47
82	13
83	16
84	13
85	22
86	110
87	180
88	180
89	4165
90	2090
91	1870
92	214
93	66
94	54
99	16
101	13
102	28
103	123
104	69
105	979
106	793
107	91
108	13
109	98
110	3
113	3
114	6
115	13
116	82
117	1827
118	844
119	822
120	113
121	1338
122	126
123	31
125	6
128	3
129	6
130	6
131	31
132	50
133	658
134	1254
135	214
136	16
137	79
138	19
139	9
140	6
141	6
142	3
144	6
145	1270
146	132
147	132
148	1122
149	2834
150	321
151	31
152	3
153	16
160	13
161	91
162	35
163	391
164	47
165	22
166	3
167	13
169	6
170	6
171	3
172	6
174	31
175	167
176	5102
177	9999
178	1118
179	123
181	9
182	9
187	13
188	3
191	25
192	9
193	419
194	50
195	6
196	3
201	9
202	9
204	6
205	6
206	9
207	227
208	2327
209	268
210	35
