Mass Spectrum: Carbamothioic acid, bis(1-methylethyl)-, S-(2,3-dichloro-2-propenyl) ester
Formula: C10 H17 Cl2 N O S
CAS: 2303-16-4
Molecular weight: 269
Origin: ACCUSTANDARD Chemicals / NIST MS Data Center.
m/z	RELATIVE INTENSITY
13	26
15	269
17	10
18	107
25	16
27	1505
28	479
29	127
30	146
34	15
35	17
36	41
37	74
38	186
39	1061
40	250
41	2587
42	1859
43	9999
44	739
45	587
46	110
47	133
48	45
49	213
50	15
51	66
52	12
53	15
54	71
55	12
56	380
57	94
58	818
59	96
60	87
61	144
62	24
63	48
68	82
69	172
70	1430
71	202
72	152
73	335
74	79
75	174
76	26
77	15
79	283
80	33
81	150
82	15
83	385
84	822
85	15
86	8638
87	470
88	46
89	21
90	266
91	21
92	59
93	11
94	13
95	28
96	10
97	33
98	24
99	56
100	71
101	15
102	42
105	100
106	53
107	235
108	10
109	1481
110	10
111	909
112	36
113	174
114	21
115	18
116	208
117	37
118	198
119	17
128	1663
129	136
130	32
132	45
133	61
134	10
135	33
137	8
140	13
141	58
142	56
143	38
144	58
145	14
148	9
150	251
152	527
154	305
155	25
156	59
160	86
161	7
166	9
169	166
171	122
172	12
173	30
176	35
178	14
184	24
186	11
190	9
192	328
193	38
194	183
195	21
196	36
207	10
212	47
213	8
214	39
226	29
228	25
234	4696
235	660
236	1747
237	221
238	80
239	12
254	60
256	35
