Mass Spectrum: Triallate
Formula: C10 H16 Cl3 N O S
CAS: 2303-17-5
Molecular weight: 303
Origin: ACCUSTANDARD Chemicals / NIST MS Data Center.
m/z	RELATIVE INTENSITY
12	5
13	10
14	33
15	339
17	13
18	120
27	1459
28	392
29	127
30	149
32	7
33	9
34	6
35	27
36	36
37	124
38	165
39	583
40	6
41	2611
42	1882
43	9999
44	716
45	545
46	104
47	188
48	23
49	132
50	7
51	34
52	12
53	11
54	66
55	43
56	380
57	98
58	754
59	88
60	91
61	124
62	13
63	35
67	8
68	74
69	174
70	1133
71	96
72	192
73	492
74	81
75	229
76	14
77	7
78	7
79	325
81	142
83	573
84	738
86	7681
87	394
88	36
90	158
91	13
92	8
93	11
94	29
95	16
96	24
97	14
98	24
99	35
100	34
101	9
102	41
103	58
104	20
105	122
106	25
107	162
108	31
109	93
110	21
111	15
112	6
114	14
115	15
116	20
117	36
118	104
119	32
120	6
121	8
123	6
124	27
125	7
126	43
128	1366
129	118
130	17
131	25
132	32
133	18
138	9
139	86
140	61
141	153
142	7
143	1388
144	7
145	1271
146	7
147	398
148	21
149	51
150	40
151	6
152	25
153	4
154	6
160	38
161	4
162	4
167	13
168	6
169	10
173	4
174	11
175	34
176	48
177	44
178	45
179	14
180	12
182	4
184	128
186	351
188	279
189	22
190	92
191	6
192	9
200	9
203	115
205	120
206	11
207	45
209	7
210	21
212	14
217	5
218	13
219	6
220	12
221	4
224	4
226	183
227	33
228	167
229	17
230	69
231	7
232	19
246	28
248	25
249	3
250	11
260	14
262	18
263	4
264	9
268	2313
269	403
270	1578
271	203
272	321
273	38
274	14
288	27
290	25
292	12
303	11
304	4
305	8
306	5
307	3
