Mass Spectrum: Benzoic acid, 2-amino-4-methyl-
Formula: C8 H9 N O2
CAS: 2305-36-4
Molecular weight: 151
Origin: Japan AIST/NIMC Database- Spectrum MS-IW-3037
m/z	RELATIVE INTENSITY
14	99
15	70
16	30
17	20
18	10
25	10
26	90
27	399
28	579
29	199
30	49
31	259
37	90
38	209
39	569
40	119
41	169
42	109
43	159
44	109
45	709
46	319
47	10
49	30
50	259
51	699
52	669
53	449
54	109
55	40
56	10
59	10
60	10
61	70
62	129
63	319
64	139
65	279
66	399
67	169
68	30
69	10
73	20
74	90
75	129
76	199
77	1549
78	1689
79	679
80	99
81	10
85	10
86	20
87	20
88	20
89	199
90	129
91	90
92	20
93	30
94	40
95	10
99	10
100	10
102	50
103	60
104	1609
105	1469
106	4059
107	489
108	30
110	10
117	20
118	10
119	10
121	10
122	20
131	20
132	70
133	9999
134	1219
135	99
136	10
149	20
150	309
151	5899
152	549
153	50
