Mass Spectrum: 4,4-Dimethyl-2-imidazoline
Formula: C5 H10 N2
CAS: 2305-59-1
Molecular weight: 98
Origin: Chuck Anderson, Aldrich Chemical Co.
m/z	RELATIVE INTENSITY
15	330
18	259
26	303
27	973
28	3633
29	683
30	2325
38	194
39	1424
40	632
41	3691
42	4737
43	457
52	148
53	80
54	319
55	156
56	2121
57	317
58	3633
59	94
68	79
69	3924
70	465
81	290
82	74
83	9999
84	479
97	784
98	4127
99	261
