Mass Spectrum: 1,2-Cyclohexanedicarboxylic acid, trans-
Formula: C8 H12 O4
CAS: 2305-32-0
Molecular weight: 172
m/z	RELATIVE INTENSITY
53	3000
54	4452
55	4000
56	1666
57	1786
65	714
66	1071
67	7618
68	2333
69	2024
70	1190
71	1143
73	2476
74	667
77	1476
78	786
79	3714
80	3952
81	9999
82	7856
83	1905
97	1309
98	548
99	2214
100	667
108	4357
109	1428
110	1190
126	5523
127	1190
128	4999
129	1143
154	1857
155	595
