Mass Spectrum: 5-Tridecene, (E)-
Formula: C13 H26
CAS: 23051-84-5
Molecular weight: 182
Origin: S.A. Rang et al., IR & MS of Unsatd. Hydrocarbons, 1977
m/z	RELATIVE INTENSITY
15	85
16	20
24	14
25	47
26	267
27	2333
28	304
29	3347
30	75
31	22
37	24
38	49
39	1623
40	314
41	7500
42	1775
43	5441
44	154
45	12
49	8
50	38
51	91
52	91
53	814
54	2079
55	9999
56	4706
57	3093
58	129
59	10
63	12
64	6
65	187
66	140
67	1521
68	707
69	5000
70	3550
71	1014
72	51
74	4
77	140
78	36
79	247
80	67
81	667
82	614
83	3093
84	1673
85	480
86	30
91	53
92	8
93	30
94	10
95	207
96	260
97	1673
98	734
105	6
107	6
108	4
109	47
110	133
111	601
112	300
113	34
123	30
124	40
125	187
126	113
127	16
137	18
138	20
139	53
140	49
141	8
151	4
152	6
153	30
154	55
155	10
182	707
183	89
184	4
