Mass Spectrum: Octanoic acid, decyl ester
Formula: C18 H36 O2
CAS: 2306-89-0
Molecular weight: 284
Origin: V.G.Zaikin, TIPS RAS, Moscow, Russia
m/z	RELATIVE INTENSITY
25	50
26	510
27	1972
28	490
29	2883
30	160
31	120
36	90
38	190
39	1692
40	510
41	6496
42	2412
43	8277
44	971
45	390
50	100
51	290
52	90
53	490
54	691
55	6156
56	4034
57	8187
58	450
59	180
60	1551
61	1942
62	70
65	120
66	160
67	1081
68	1181
69	3273
70	4054
71	1892
72	180
73	1692
74	180
75	70
77	80
78	80
79	190
80	90
81	440
82	1722
83	3713
84	3053
85	1882
86	190
87	711
88	100
89	420
91	120
92	40
93	60
94	40
95	250
96	791
97	2803
98	2803
99	410
100	120
101	1081
102	70
103	230
109	310
110	370
111	1912
112	2242
113	280
115	390
116	350
117	60
118	80
124	90
125	310
126	120
127	3853
128	390
129	180
130	70
138	150
139	20
140	4524
141	651
142	70
143	150
144	1111
145	9999
146	811
147	70
155	60
157	90
185	370
186	40
200	190
201	70
284	170
285	60
