Mass Spectrum: Nerolidyl acetate
Formula: C17 H28 O2
CAS: 2306-78-7
Molecular weight: 264
Origin: H. Fales, LC, NHLBI, NIH, Bethesda, MD 20892
m/z	RELATIVE INTENSITY
41	6641
42	574
43	9999
44	432
45	195
46	14
47	11
49	9
50	44
51	182
52	115
53	1375
54	214
55	3769
56	379
57	601
58	154
59	191
60	79
61	59
62	12
63	45
64	21
65	373
66	185
67	2408
68	2408
69	9535
70	799
71	2276
72	183
73	122
74	35
75	34
76	22
77	887
78	190
79	2143
80	3191
81	2840
82	831
83	586
84	324
85	432
86	78
87	74
88	20
89	22
90	26
91	1323
92	723
93	7710
94	1300
95	1207
96	262
97	429
98	123
99	154
100	45
101	106
102	25
103	84
104	44
105	1266
106	483
107	3979
108	721
109	1008
110	205
111	267
112	115
113	287
114	58
115	110
116	42
117	121
118	69
119	1625
120	500
121	1552
122	464
123	1095
124	404
125	162
126	76
127	96
128	55
129	102
130	41
131	91
132	56
133	1189
134	698
135	1169
136	1690
137	409
138	74
139	74
140	67
141	66
142	56
143	58
144	20
145	97
146	32
147	516
148	418
149	345
150	72
151	84
152	35
153	134
154	32
155	25
156	15
157	24
158	33
159	40
160	33
161	957
162	187
163	64
164	23
165	54
166	29
167	32
168	21
169	25
170	13
171	19
172	9
173	19
174	13
175	92
176	43
177	44
178	19
179	61
180	23
181	20
182	27
183	21
184	6
185	19
186	9
187	15
188	6
189	628
190	103
191	26
192	25
193	20
194	26
195	397
196	60
197	18
198	7
199	15
200	2
201	15
202	6
203	22
204	388
205	81
206	17
207	37
208	23
209	13
210	9
211	10
212	10
213	9
214	5
215	9
216	2
217	9
218	5
219	20
220	15
221	14
222	39
223	14
224	5
225	11
226	5
227	9
229	3
233	2
234	8
235	9
236	10
237	8
239	9
241	4
246	5
247	5
250	3
261	9
262	19
263	6
264	28
265	5
267	6
