Mass Spectrum: Decanoic acid, octyl ester
Formula: C18 H36 O2
CAS: 2306-92-5
Molecular weight: 284
Origin: V.G. Zaikin, R.S.Borisov, TIPS RAS, Moscow, Russia
m/z	RELATIVE INTENSITY
18	30
27	500
28	210
29	1331
30	30
31	30
35	30
37	30
39	470
40	130
41	4134
42	1421
43	5715
44	230
45	100
53	240
54	410
55	4404
56	3443
57	5715
58	320
59	130
60	1171
61	3153
62	70
65	40
66	30
67	671
68	1101
69	3563
70	4844
71	4774
72	270
73	1952
74	190
75	40
77	20
79	120
80	40
81	571
82	1792
83	4894
84	3783
85	1111
86	110
87	631
88	50
89	320
93	60
94	30
95	520
96	120
97	1121
98	581
99	100
100	60
101	320
102	70
103	290
107	50
108	20
109	80
110	280
111	440
112	6446
113	641
114	60
115	480
116	300
117	110
123	20
125	80
126	30
127	70
128	20
129	1551
130	150
131	40
135	120
136	50
137	70
139	40
143	350
144	40
145	20
152	30
153	140
154	30
155	3343
156	350
157	410
158	40
170	30
171	70
172	1231
173	9999
174	1051
175	90
185	100
199	60
213	60
241	80
284	160
285	30
