Mass Spectrum: Phthalic acid, monoethyl ester
Formula: C10 H10 O4
CAS: 2306-33-4
Molecular weight: 194
Origin: NIST Mass Spectrometry Data Center, 2010
m/z	RELATIVE INTENSITY
15	20
26	30
27	170
28	40
29	210
30	20
31	50
37	30
38	50
39	340
40	10
42	10
43	50
44	20
45	170
46	10
49	30
50	591
51	340
52	60
53	100
55	10
61	20
62	30
63	90
64	90
65	1371
66	140
67	20
69	10
73	50
74	340
75	300
76	1011
77	581
78	90
79	20
81	10
91	140
92	140
93	1011
94	100
95	10
100	10
104	951
105	3483
106	540
107	70
119	30
120	20
121	901
122	1722
123	140
124	10
131	30
132	230
133	50
135	210
136	40
137	10
147	10
148	170
149	9999
150	2192
151	220
152	20
166	70
167	40
176	831
177	100
178	10
179	20
193	20
194	170
195	20
