Mass Spectrum: Acetic acid, thio-, S-hexyl ester
Formula: C8 H16 O S
CAS: 2307-12-2
Molecular weight: 160
Origin: W. UTILIZATION R & D DIV., U.S. DEPT. OF AGRIC., ALBANY, CAL.
m/z	RELATIVE INTENSITY
27	357
29	492
35	43
39	393
40	62
41	1551
42	433
43	9999
44	269
45	266
46	121
47	374
53	148
54	82
55	1554
56	1207
57	171
58	138
59	197
60	157
61	305
67	171
68	49
69	439
70	33
71	344
72	203
73	236
76	344
77	371
82	95
83	600
84	1725
85	328
86	128
87	213
88	167
89	108
99	59
100	908
101	92
103	66
109	95
113	141
116	210
117	1590
118	279
119	92
127	82
142	56
160	744
161	56
162	43
