Mass Spectrum: Tricyclo[3.3.1.1(3,7)]decane-1-carbonitrile
Formula: C11 H15 N
CAS: 23074-42-2
Molecular weight: 161
Origin: NIST Mass Spectrometry Data Center, 1990.
m/z	RELATIVE INTENSITY
15	167
26	227
27	2122
28	145
29	1012
30	120
37	100
38	390
39	4011
40	839
41	3495
42	364
43	181
44	35
45	19
50	362
51	1168
52	827
53	1487
54	1101
55	1064
56	422
57	204
58	32
61	38
62	102
63	363
64	356
65	1413
66	788
67	1935
68	1009
69	2664
70	388
71	24
74	39
75	138
76	287
77	2573
78	1187
79	3248
80	707
81	660
82	192
83	35
88	48
89	212
90	234
91	2315
92	1694
93	6768
94	2821
95	2094
96	162
102	155
103	411
104	1946
105	1722
106	979
107	862
108	148
115	143
116	372
117	508
118	1101
119	1327
120	597
121	78
127	33
128	122
129	641
130	242
131	217
132	598
133	33
134	9999
135	1137
136	53
142	25
143	177
144	293
145	25
146	2346
147	259
158	26
160	1274
161	4786
162	587
163	30
