Mass Spectrum: Spiro[4.5]decane, 7-hexadecyl-
Formula: C26 H50
CAS: 2307-06-4
Molecular weight: 362
m/z	RELATIVE INTENSITY
38	10
39	330
40	100
41	3083
42	611
43	4544
44	170
45	10
49	10
50	20
51	40
52	40
53	540
54	851
55	4684
56	1021
57	3193
58	150
59	10
60	10
61	10
62	10
63	10
64	10
65	130
66	180
67	4554
68	1451
69	2692
70	480
71	921
72	60
73	10
74	10
75	10
76	10
77	200
78	90
79	941
80	520
81	6616
82	1942
83	1902
84	250
85	470
86	30
87	10
88	10
89	10
90	10
91	190
92	60
93	571
94	921
95	6616
96	1862
97	1111
98	120
99	80
100	20
101	20
102	10
103	10
104	10
105	50
106	20
107	340
108	190
109	1331
110	601
111	460
112	60
113	40
114	10
115	10
116	10
117	10
118	10
119	10
120	10
121	170
122	60
123	751
124	430
125	170
126	30
127	20
128	10
129	10
130	10
131	10
132	10
133	10
134	20
135	270
136	540
137	9999
138	1301
139	140
140	20
141	20
142	10
143	10
144	10
145	10
146	10
147	10
148	10
149	40
150	80
151	140
152	330
153	110
154	20
155	10
156	10
163	30
164	10
165	60
166	40
167	20
168	10
169	10
177	10
178	10
179	20
180	20
181	20
182	10
183	10
191	10
192	10
193	10
194	30
195	10
196	10
197	10
205	10
206	10
207	10
208	40
209	10
210	10
211	10
219	10
220	10
221	10
222	70
223	20
224	10
225	10
226	10
233	10
234	10
235	20
236	30
237	10
238	10
239	10
247	10
248	10
249	10
250	10
251	20
252	10
253	10
260	10
261	10
262	20
263	260
264	60
265	30
266	10
274	10
275	10
276	30
277	30
278	10
279	80
280	20
281	10
288	10
289	10
290	70
291	50
292	10
293	10
294	10
295	10
302	10
303	60
304	4294
305	1141
306	150
307	20
316	10
317	10
318	230
319	390
320	90
321	10
322	10
331	10
332	10
333	30
334	30
335	10
336	10
346	10
347	10
348	10
349	10
360	20
361	10
362	921
363	270
364	40
365	10
