Mass Spectrum: Ethanethioic acid, S-propyl ester
Formula: C5 H10 O S
CAS: 2307-10-0
Molecular weight: 118
Origin: W. UTILIZATION R & D DIV., U.S. DEPT. OF AGRIC., ALBANY, CAL.
m/z	RELATIVE INTENSITY
27	503
29	139
35	20
39	618
40	75
41	1247
42	954
43	9999
44	281
45	491
46	313
47	653
48	79
49	55
57	20
58	166
59	226
60	91
61	166
71	51
74	1041
75	333
76	491
77	226
85	119
89	48
103	28
118	1714
119	79
120	79
