Mass Spectrum: Benzene, 4-hexenyl-
Formula: C12 H16
CAS: 23086-43-3
Molecular weight: 160
Origin: NIST Mass Spectrometry Data Center, 1990.
m/z	RELATIVE INTENSITY
26	100
27	1032
28	512
29	679
32	101
39	1817
40	292
41	2197
42	113
50	345
51	1075
52	303
53	505
54	138
55	801
62	125
63	508
65	2025
66	177
67	808
68	337
69	842
74	103
75	104
76	165
77	1552
78	860
79	1030
80	88
82	101
89	339
91	7223
92	4067
93	294
102	176
103	1136
104	9999
105	2828
106	210
115	518
116	182
117	1578
118	360
127	69
128	183
129	154
130	69
131	830
132	145
160	1490
161	207
