Mass Spectrum: Levomenol
Formula: C15 H26 O
CAS: 23089-26-1
Molecular weight: 222
Origin: P.A.HEDIN U.S. DEPT. AGRI., STATE COLL., MISS., USA
m/z	RELATIVE INTENSITY
39	1900
40	400
41	6600
43	5700
44	1200
53	1800
55	2800
56	600
59	600
65	700
67	2500
69	2200
70	700
71	1800
77	1700
79	2600
80	2000
81	2000
82	1600
83	600
91	2100
92	2000
93	9999
94	3200
95	3500
105	1100
106	600
107	2700
108	900
109	6900
110	900
119	2700
120	1100
121	4300
122	1400
127	600
133	1000
134	1700
135	1600
136	1000
139	700
141	1100
147	700
148	600
161	1500
189	600
204	5600
205	1100
222	100
