Mass Spectrum: Acetoacetic acid isoamyl ester
Formula: C9 H16 O3
CAS: 2308-18-1
Molecular weight: 172
Origin: Japan AIST/NIMC Database- Spectrum MS-NW-4061
m/z	RELATIVE INTENSITY
12	10
13	30
14	99
15	629
16	10
17	20
18	70
25	20
26	159
27	1339
28	279
29	1209
30	30
31	439
32	20
37	40
38	99
39	839
40	149
41	1949
42	1589
43	9999
44	359
45	219
46	70
47	10
50	30
51	50
52	20
53	159
54	99
55	4009
56	309
57	349
58	749
59	109
60	189
61	179
67	40
68	30
69	509
70	6869
71	2249
72	119
73	169
74	10
84	489
85	2439
86	129
87	229
88	20
97	30
100	10
101	10
102	219
103	1289
104	60
105	10
112	20
115	70
129	90
130	30
157	20
172	10
