Mass Spectrum: Halazepam
Formula: C17 H12 Cl F3 N2 O
CAS: 23092-17-3
Molecular weight: 352
Origin: NIST Mass Spectrometry Data Center
m/z	RELATIVE INTENSITY
15	10
26	10
27	60
28	70
29	10
30	10
31	10
33	160
36	10
37	10
38	60
39	300
40	40
41	60
42	90
43	20
45	10
47	10
49	40
50	370
51	961
52	210
53	50
54	20
55	30
56	60
57	20
58	10
59	10
60	20
61	70
62	270
63	761
64	240
65	480
66	50
67	20
68	50
69	200
72	20
73	180
74	350
75	941
76	691
77	1361
78	190
79	40
80	30
82	891
85	100
86	200
87	350
88	310
89	1381
90	460
91	1461
92	120
93	70
95	1191
98	190
99	380
100	360
101	240
102	621
103	480
104	180
105	80
106	60
107	70
108	110
110	1201
111	591
112	240
113	470
115	290
116	581
117	591
118	100
120	250
121	130
122	60
123	260
124	330
125	731
126	530
127	1011
128	330
129	90
130	20
131	20
132	20
133	30
134	180
136	270
137	430
138	460
139	390
140	230
141	140
142	100
143	130
144	280
146	20
147	40
148	170
149	220
150	701
151	1021
152	871
153	220
154	80
155	20
156	20
157	20
158	20
159	20
160	30
161	100
162	330
163	1541
164	951
165	2172
166	500
167	80
168	40
169	10
170	10
171	10
172	10
173	50
174	40
175	100
176	260
177	751
178	530
179	240
180	120
181	30
182	30
183	30
184	20
185	50
186	100
187	40
188	90
189	90
190	490
191	460
192	530
193	931
194	130
195	30
196	10
197	30
198	50
199	300
200	110
201	150
202	80
203	150
204	140
205	1121
206	340
207	50
208	20
209	10
210	10
211	40
212	70
213	370
214	180
215	160
216	60
217	70
218	220
219	300
220	160
221	70
222	50
223	10
224	30
225	60
226	160
227	561
228	210
229	200
230	60
231	10
232	20
233	110
234	40
235	10
236	10
237	20
238	160
239	951
240	450
241	2532
242	470
243	711
244	120
245	20
246	10
247	80
248	30
249	80
250	20
251	20
252	30
253	200
254	100
255	190
256	80
257	50
258	20
259	10
260	60
261	100
262	30
263	10
265	10
266	10
267	60
268	300
269	100
270	120
271	30
272	10
274	10
275	10
276	30
277	10
278	10
282	10
283	120
284	30
285	40
286	20
287	80
288	80
289	1672
290	320
291	40
295	30
296	540
297	120
298	190
299	30
303	70
304	20
305	50
306	20
307	10
308	10
309	50
310	20
311	20
312	10
315	10
316	130
317	741
318	150
319	20
321	20
323	6766
324	9999
325	4854
326	3593
327	941
328	110
329	10
331	50
332	10
333	310
334	60
335	100
336	20
337	10
351	4734
352	4334
353	2262
354	1461
355	240
356	20
