Mass Spectrum: 5-Bromo-2-methoxybenzenesulfonyl chloride
Formula: C7 H6 Br Cl O3 S
CAS: 23095-05-8
Molecular weight: 284
Origin: NIST Mass Spectrometry Data Center, 1994
m/z	RELATIVE INTENSITY
12	72
13	65
14	263
15	1000
16	188
18	108
24	73
25	60
26	160
27	20
28	146
29	677
30	314
31	20
32	406
33	47
34	20
35	390
36	382
37	1200
38	1257
39	914
41	4
42	49
44	88
45	357
46	57
47	4
48	2192
49	512
50	3102
51	1784
52	252
53	998
55	50
57	125
58	62
60	144
61	1389
62	3248
63	9999
64	2283
65	459
66	294
68	99
69	638
70	89
71	68
72	76
73	560
74	2082
75	3231
76	2175
77	2271
78	2134
79	1375
80	179
81	315
82	253
83	414
84	64
85	148
90	89
91	196
92	255
93	418
94	656
95	706
96	337
97	127
98	101
99	96
104	130
105	266
106	907
107	245
108	141
109	121
110	118
111	286
112	134
113	143
115	78
116	155
117	271
118	181
119	197
123	89
124	191
126	219
128	118
129	237
130	93
131	120
137	57
139	56
141	215
142	995
143	746
144	1059
145	550
152	81
155	2946
156	518
157	3552
158	443
159	973
160	145
162	142
164	109
170	3476
171	672
172	3581
173	672
174	123
175	287
176	93
177	682
178	58
179	623
181	128
183	174
184	120
185	516
186	725
187	454
188	691
189	141
190	57
191	197
193	139
201	519
203	623
204	82
205	553
206	72
207	498
209	123
215	91
217	85
218	351
219	897
220	614
221	968
222	318
223	96
224	55
233	61
235	60
236	60
249	5334
250	460
251	5509
252	481
253	290
264	59
266	102
284	3467
285	295
286	4682
287	400
288	1325
289	110
290	78
