Mass Spectrum: 1,3-Dithienyl-2-propen-1-one
Formula: C11 H8 O S2
CAS: 2309-48-0
Molecular weight: 220
Origin: NIST Mass Spectrometry Data Center
m/z	RELATIVE INTENSITY
17	20
18	90
25	30
26	190
27	190
29	40
32	60
33	50
34	40
37	370
38	1001
39	7597
40	310
41	20
45	3333
46	100
47	140
48	30
49	180
50	811
51	1011
52	100
53	410
54	40
55	40
57	1381
58	1211
59	340
60	100
61	190
62	520
63	1111
65	3533
66	240
69	2032
70	250
71	200
72	40
73	190
74	410
75	370
76	130
77	280
78	50
79	90
80	60
81	601
82	921
83	2352
84	470
85	170
86	80
87	80
88	70
89	190
90	90
91	60
92	30
93	150
94	40
95	280
96	460
97	200
98	60
99	30
101	40
102	150
103	120
105	60
106	30
108	1832
109	3333
111	6676
112	500
113	400
114	120
115	681
116	90
117	30
119	30
121	310
122	40
127	160
128	100
132	30
133	70
134	360
136	2092
137	2622
138	350
139	120
140	30
145	90
147	2572
148	380
149	140
158	240
159	540
160	150
161	60
163	40
166	641
167	70
168	40
171	30
174	40
175	100
176	180
177	200
179	561
180	70
181	50
187	2062
188	270
189	150
191	5685
192	1631
193	711
194	140
195	20
203	571
204	100
205	50
219	2552
220	9999
221	1611
222	1081
223	150
