Mass Spectrum: n-Capric acid isopropyl ester
Formula: C13 H26 O2
CAS: 2311-59-3
Molecular weight: 214
Origin: Japan AIST/NIMC Database- Spectrum MS-NW-5263
m/z	RELATIVE INTENSITY
15	109
17	10
18	30
26	70
27	1609
28	109
29	1859
30	50
31	109
32	10
36	10
37	20
38	40
39	879
40	199
41	4119
42	1519
43	9999
44	359
45	339
46	10
47	10
48	10
50	10
51	40
52	20
53	209
54	239
55	2059
56	759
57	3369
58	179
59	2249
60	7059
61	1439
62	70
63	10
65	30
66	20
67	369
68	299
69	1559
70	569
71	3019
72	189
73	2779
74	469
75	50
76	10
77	30
78	20
79	70
80	30
81	449
82	219
83	839
84	639
85	979
86	70
87	979
88	90
89	219
90	10
91	20
93	60
94	30
95	399
96	90
97	489
98	569
99	70
100	30
101	379
102	4099
103	519
104	40
105	10
107	40
108	30
109	70
110	319
111	299
112	669
113	259
114	30
115	579
116	60
117	50
118	10
119	10
121	20
123	20
124	20
125	80
126	40
127	50
128	10
129	1879
130	179
131	30
134	10
135	139
136	80
137	90
138	20
139	40
141	10
143	329
144	70
145	30
152	50
153	209
154	40
155	3589
156	429
157	40
158	10
170	10
171	70
172	2349
173	3029
174	359
175	40
184	10
199	30
214	30
215	10
