Mass Spectrum: Hexanoic acid, 1-methylethyl ester
Formula: C9 H18 O2
CAS: 2311-46-8
Molecular weight: 158
Origin: Japan AIST/NIMC Database- Spectrum MS-NW-4060
m/z	RELATIVE INTENSITY
15	209
18	10
26	109
27	1649
28	119
29	969
30	30
31	99
32	10
37	30
38	60
39	889
40	199
41	2509
42	1299
43	9999
44	369
45	309
46	10
47	10
50	10
51	30
52	10
53	80
54	40
55	719
56	559
57	369
58	50
59	1629
60	3999
61	659
62	40
63	10
65	10
67	30
68	50
69	389
70	329
71	1949
72	109
73	1399
74	219
75	109
80	20
81	50
82	10
83	90
84	10
85	10
87	669
88	50
89	229
90	10
96	10
97	129
98	60
99	4579
100	359
101	60
102	1069
103	70
104	10
114	10
115	40
116	749
117	2179
118	149
119	20
143	109
144	10
