Mass Spectrum: Diazene, bis[4-(decyloxy)phenyl]-, 1-oxide
Formula: C32 H50 N2 O3
CAS: 2312-12-1
Molecular weight: 510
Origin: P.A. Leclercq, Lab. Instrum. Anal., Tech. Univ. Eindhoven, Netherlands
m/z	RELATIVE INTENSITY
18	9
27	799
29	2239
30	129
39	729
41	5870
43	9999
44	639
50	99
51	139
52	329
53	359
55	7090
57	5870
58	319
63	139
64	219
65	839
66	99
67	329
69	3179
70	309
71	1749
72	139
73	219
76	279
77	369
78	179
79	889
80	369
81	579
83	1929
84	219
85	1159
91	339
93	2889
94	729
95	739
96	219
97	829
98	109
99	119
103	179
105	259
107	9890
108	2849
109	1559
110	249
115	139
119	259
120	189
121	1359
122	599
123	4909
124	1819
125	149
128	139
131	149
133	639
134	199
135	239
136	219
137	189
149	149
157	139
161	179
173	159
185	259
186	219
191	149
201	839
202	539
213	979
214	219
229	459
230	499
370	249
371	50
494	849
495	280
510	3499
511	1129
512	210
