Mass Spectrum: Propanoic acid, 2,2-dimethyl-, pentyl ester
Formula: C10 H20 O2
CAS: 2313-68-0
Molecular weight: 172
Origin: V.G. Zaikin, TIPS RAS, Moscow, Russia
m/z	RELATIVE INTENSITY
26	80
27	971
28	150
29	1742
30	60
31	30
39	1281
40	330
41	2883
42	911
43	1521
44	270
45	60
50	80
51	160
52	210
53	160
55	671
56	881
57	9999
58	390
59	310
69	180
70	1171
71	681
85	2262
86	130
87	210
103	2392
104	130
129	110
