Mass Spectrum: 1-Propyl-4-piperidone
Formula: C8 H15 N O
CAS: 23133-37-1
Molecular weight: 141
Origin: Chuck Anderson, Aldrich Chemical Co.
m/z	RELATIVE INTENSITY
14	14
15	161
18	11
25	4
26	128
27	975
28	1014
29	250
30	213
31	7
37	4
38	18
39	224
40	66
41	657
42	4363
43	526
44	37
50	5
51	12
52	22
53	49
54	205
55	433
56	509
57	146
58	15
59	2
65	4
66	1
67	21
68	72
69	37
70	498
71	55
72	11
80	13
81	7
82	86
83	32
84	1041
85	50
86	1
94	4
96	22
97	4
98	275
99	23
110	23
111	33
112	9999
113	690
114	47
126	9
139	8
140	90
141	959
142	90
143	5
