Mass Spectrum: Flurenol butyl ester
Formula: C18 H18 O3
CAS: 2314-09-2
Molecular weight: 282
Origin: NIST Mass Spectrometry Data Center, 1998.
m/z	RELATIVE INTENSITY
26	10
27	90
28	30
29	350
30	10
31	10
39	100
40	10
41	380
42	20
43	30
44	20
50	40
51	70
52	10
53	20
55	50
56	20
57	280
58	10
62	20
63	80
64	10
73	10
74	50
75	90
76	190
77	100
78	10
81	10
86	20
87	40
88	20
89	10
90	40
98	30
99	40
100	20
101	50
102	50
103	10
110	10
111	10
113	20
114	10
115	20
122	10
125	40
126	200
127	190
128	20
137	20
138	10
139	10
149	20
150	260
151	780
152	2840
153	1190
154	130
155	10
161	10
162	30
163	150
164	100
165	150
166	40
178	10
179	10
180	310
181	9999
182	1520
183	120
184	10
192	20
193	10
197	10
207	10
208	10
209	10
210	10
225	20
226	10
266	20
282	580
283	120
284	10
