Mass Spectrum: 2,5-Pyrrolidinedione, 1-ethyl-
Formula: C6 H9 N O2
CAS: 2314-78-5
Molecular weight: 127
Origin: Japan AIST/NIMC Database- Spectrum MS-NW-1303
m/z	RELATIVE INTENSITY
13	20
14	159
15	609
16	10
17	10
18	30
25	50
26	919
27	2899
28	8049
29	949
30	1529
31	40
32	50
37	30
38	40
39	119
40	179
41	1399
42	1349
43	599
44	959
45	40
51	30
52	60
53	109
54	209
55	3629
56	9999
57	1459
58	70
63	10
66	10
67	10
68	30
69	30
70	879
71	729
72	469
73	40
80	10
81	10
82	119
83	30
84	5089
85	339
86	20
87	10
96	10
98	429
99	1619
100	529
101	50
110	10
112	1519
113	90
114	10
126	80
127	8929
128	649
129	70
