Mass Spectrum: Methane, trifluoroiodo-
Formula: C F3 I
CAS: 2314-97-8
Molecular weight: 196
m/z	RELATIVE INTENSITY
12	500
19	240
31	1161
50	731
69	7747
73	10
79	10
127	9569
139	90
146	120
158	30
177	3123
196	9999
