Mass Spectrum: Carbonotrithioic acid, dimethyl ester
Formula: C3 H6 S3
CAS: 2314-48-9
Molecular weight: 138
Origin: CARL DJERASSI DEPT OF CHEM STANFORD UNIV STANFORD CALIF 94305
m/z	RELATIVE INTENSITY
32	244
44	606
45	3232
46	1111
47	2424
48	202
58	101
59	909
64	404
76	3535
77	606
78	202
79	303
91	9999
92	303
93	808
94	101
138	6161
139	101
140	707
