Mass Spectrum: n-Propyl benzoate
Formula: C10 H12 O2
CAS: 2315-68-6
Molecular weight: 164
Origin: NIST Mass Spectrometry Data Center
m/z	RELATIVE INTENSITY
12	11
13	16
14	22
15	161
16	7
18	18
26	203
27	1451
28	266
29	436
30	67
37	50
38	167
39	717
40	94
41	701
42	239
43	286
44	12
50	1076
51	2877
52	180
53	45
54	5
55	14
56	7
57	24
59	31
60	6
61	13
62	36
63	36
64	12
65	73
66	20
67	5
73	22
74	183
75	199
77	5206
78	469
79	467
80	31
91	42
92	11
93	14
94	46
101	11
102	10
103	37
105	9999
106	830
107	75
108	8
118	6
119	18
120	29
122	2426
123	3874
124	291
125	24
131	10
135	122
136	15
145	8
147	16
149	5
164	175
165	25
