Mass Spectrum: Benzene, 4-chloro-1-isothiocyanato-2-methyl-
Formula: C8 H6 Cl N S
CAS: 23165-53-9
Molecular weight: 183
Origin: NIST Mass Spectrometry Data Center, 1994
m/z	RELATIVE INTENSITY
14	43
15	47
26	155
27	299
28	266
32	262
35	60
36	77
37	385
38	580
39	1368
40	108
41	43
43	91
44	390
45	1328
46	72
47	134
48	38
49	283
50	1060
51	1135
52	316
53	48
56	44
57	47
58	172
59	118
60	332
61	538
62	1101
63	2478
64	523
65	186
69	239
70	418
71	121
72	208
73	980
74	797
75	882
76	446
77	645
78	187
79	106
81	64
82	97
83	116
84	157
85	258
86	353
87	379
88	366
89	2829
90	508
91	64
92	498
93	249
94	95
95	102
96	143
97	189
98	83
99	569
100	106
101	195
102	320
103	217
104	1314
105	133
106	50
107	56
108	79
109	41
110	34
111	147
112	140
113	61
114	208
115	108
116	378
117	43
119	142
120	300
121	1032
122	153
123	356
124	227
125	840
126	140
127	238
128	27
133	42
137	47
138	266
139	43
140	88
146	234
148	9999
149	1018
150	874
151	933
152	220
153	298
154	43
155	543
156	89
157	203
158	37
180	38
182	926
183	7985
184	1160
185	2939
186	291
187	114
