Mass Spectrum: Benzene, 1-ethoxy-2-isothiocyanato-
Formula: C9 H9 N O S
CAS: 23163-84-0
Molecular weight: 179
Origin: NIST Mass Spectrometry Data Center, 1994
m/z	RELATIVE INTENSITY
4	8
14	31
15	153
26	561
27	2372
28	635
29	1951
30	82
32	289
37	371
38	993
39	2099
40	183
41	499
42	53
43	132
44	267
45	993
47	59
50	1031
51	1558
52	883
53	341
54	76
55	53
56	33
57	64
58	139
59	118
60	96
61	243
62	591
63	2852
64	3428
65	1217
66	122
68	51
69	418
70	669
71	156
72	232
73	80
74	296
75	390
76	383
77	419
78	1119
79	953
80	80
81	58
82	137
83	128
84	93
87	48
88	51
90	645
91	6040
92	740
93	202
94	176
95	631
96	1618
97	132
98	70
106	473
107	491
108	110
117	34
118	50
119	269
120	325
121	34
122	2601
123	688
124	203
125	36
133	61
134	167
135	37
136	66
146	900
147	170
150	834
151	9999
152	910
153	510
154	42
164	151
179	7543
180	888
181	390
182	51
