Mass Spectrum: 3,4-Dimethoxycinnamic acid
Formula: C11 H12 O4
CAS: 2316-26-9
Molecular weight: 208
Origin: NIST Mass Spectrometry Data Center, 1994
m/z	RELATIVE INTENSITY
15	360
27	83
28	71
29	84
38	120
39	303
40	90
41	89
43	69
45	223
50	399
51	793
52	198
53	255
55	286
59	133
61	71
62	261
63	471
64	151
65	392
66	408
67	76
68	97
69	163
73	81
74	166
75	208
76	400
77	1169
78	305
79	440
81	99
82	65
87	102
88	90
89	668
90	176
91	1130
92	183
93	126
94	267
95	341
96	89
97	73
101	130
102	193
103	741
104	191
105	546
106	142
107	202
108	73
109	318
117	237
118	268
119	815
120	155
121	228
122	127
123	450
131	218
132	183
133	1006
134	224
135	74
136	74
137	385
145	127
146	80
147	1007
148	199
149	200
150	187
151	74
160	76
161	721
162	193
163	218
164	85
165	314
175	55
177	115
191	461
192	332
193	2828
194	310
208	9999
209	1274
210	184
