Mass Spectrum: Ethene, 1-chloro-1-fluoro-
Formula: C2 H2 Cl F
CAS: 2317-91-1
Molecular weight: 80
Origin: THE M.W. KELLOGG CO., JERSEY CITY, N.J., USA
m/z	RELATIVE INTENSITY
20	16
24	421
25	943
26	1314
27	31
30	30
31	997
32	55
33	62
34	2
35	806
36	113
37	251
38	37
43	148
44	1970
45	9999
46	225
47	401
48	69
49	246
50	24
51	40
59	135
60	135
61	460
62	563
63	165
64	5
66	83
67	11
68	27
69	5
78	67
79	256
80	7130
81	243
82	2270
83	49
