Mass Spectrum: 2,3,3-Trimethyl-2-pentanol
Formula: C8 H18 O
CAS: 23171-85-9
Molecular weight: 130
Origin: NIST Mass Spectrometry Data Center, 1990.
m/z	RELATIVE INTENSITY
14	51
15	197
27	680
28	485
29	683
30	51
31	764
32	87
39	708
40	135
41	1401
42	231
43	1919
44	89
45	176
51	60
53	169
55	1424
56	132
57	385
58	60
59	9999
60	324
67	99
69	185
70	241
71	724
83	887
84	115
85	80
86	48
97	191
101	324
115	465
