Mass Spectrum: 9-Tetradecen-1-ol, acetate, (E)-
Formula: C16 H30 O2
CAS: 23192-82-7
Molecular weight: 254
Origin: Vladimir Zaikin, TIPS RAS, Moscow, Russia
m/z	RELATIVE INTENSITY
30	300
31	830
32	200
35	100
36	200
37	300
38	450
39	3122
40	750
41	5504
42	2151
43	9999
44	1010
45	750
50	300
51	450
52	300
53	1000
54	2652
55	6055
56	1651
57	1111
58	400
59	110
60	400
61	1251
62	110
63	200
65	310
66	550
67	4003
68	2252
69	2252
70	1000
71	500
72	110
73	350
74	100
77	350
78	250
79	910
80	630
81	3152
82	3052
83	1651
84	520
85	300
86	100
87	100
91	300
92	100
93	490
94	330
95	1651
96	2001
97	1000
98	500
99	150
100	110
101	150
107	200
108	200
109	850
110	850
111	350
112	200
121	150
122	110
123	450
124	400
125	150
126	100
127	100
131	150
137	200
138	230
139	100
143	150
151	100
152	100
166	100
181	100
194	350
