Mass Spectrum: 1,2,3,4-Butanetetrol, [S-(R*,R*)]-
Formula: C4 H10 O4
CAS: 2319-57-5
Molecular weight: 122
Origin: Japan AIST/NIMC Database- Spectrum MS-IW-5612
m/z	RELATIVE INTENSITY
13	10
14	119
15	1029
16	30
17	239
18	759
19	699
24	10
25	50
26	289
27	919
28	1129
29	1599
30	459
31	2549
32	189
33	60
34	10
36	10
37	50
38	70
39	409
40	129
41	209
42	959
43	6469
44	8779
45	2739
46	109
47	159
49	30
50	50
51	20
52	20
53	60
54	40
55	799
56	1639
57	399
58	129
59	40
60	1739
61	9999
62	879
63	70
68	379
69	119
70	70
71	90
72	99
73	1559
74	1789
75	99
76	60
79	40
84	20
85	20
86	139
87	179
88	10
89	10
90	20
91	2629
92	99
93	10
103	10
104	179
105	219
106	10
123	129
124	10
