Mass Spectrum: 7-Hexadecen-1-ol, acetate, (Z)-
Formula: C18 H34 O2
CAS: 23192-42-9
Molecular weight: 282
Origin: J. Klune, Insect Chem. Ecol. Lab., USDA, Beltsville, MD 20705
m/z	RELATIVE INTENSITY
41	5177
42	927
43	9999
44	286
45	57
51	33
52	41
53	637
54	2982
55	5177
56	1017
57	1514
58	92
59	21
61	892
62	20
63	4
65	221
66	625
67	5842
68	3164
69	2987
70	657
71	473
72	42
73	222
74	4
77	190
78	64
79	878
80	713
81	5393
82	7621
83	2921
84	355
85	212
86	29
87	26
89	5
91	136
92	17
93	308
94	390
95	4101
96	6338
97	1994
98	250
99	69
100	15
101	38
105	24
106	8
107	109
108	175
109	2570
110	2184
111	716
112	121
113	34
114	14
115	12
116	9
121	84
122	208
123	1409
124	1549
125	328
126	80
127	31
128	4
129	4
135	43
136	138
137	908
138	984
139	190
140	136
141	37
142	10
149	23
150	27
151	266
152	429
153	123
154	55
155	28
156	20
163	14
164	11
165	347
166	550
167	106
168	20
169	19
170	35
178	4
179	160
180	235
181	52
182	5
183	14
184	9
193	104
194	655
195	109
196	24
197	11
199	9
207	32
208	4
209	10
220	22
222	4812
223	841
224	114
225	17
236	4
237	10
239	51
241	10
265	10
267	4
279	68
280	14
281	51
282	439
283	72
284	19
