Mass Spectrum: Cyclohexanone, 3,5-dimethyl-
Formula: C8 H14 O
CAS: 2320-30-1
Molecular weight: 126
Origin: Japan AIST/NIMC Database- Spectrum MS-NW-3455
m/z	RELATIVE INTENSITY
14	30
15	139
17	10
18	40
26	80
27	819
28	129
29	519
30	20
31	10
37	50
38	119
39	1479
40	349
41	2989
42	1429
43	649
44	30
45	10
49	10
50	99
51	179
52	70
53	329
54	149
55	1799
56	3459
57	379
58	40
59	10
61	20
62	30
63	50
64	10
65	80
66	40
67	519
68	289
69	9999
70	639
71	429
72	20
74	20
77	109
78	30
79	90
80	20
81	90
82	1499
83	1079
84	709
85	60
91	80
92	20
93	529
94	50
95	50
96	10
97	169
98	60
99	10
105	20
106	20
107	30
108	469
109	60
110	20
111	2279
112	209
113	30
122	10
124	20
125	50
126	2539
127	259
128	20
