Mass Spectrum: Benzenethanamine,4-methoxy-.alpha.-methyl-(.+/-.)-
Formula: C10 H15 N O
CAS: 23239-32-9
Molecular weight: 165
Origin: Drug Lab
m/z	RELATIVE INTENSITY
41	80
42	270
43	120
44	9999
45	270
50	90
51	250
52	210
53	100
54	20
55	30
56	20
57	10
59	20
60	20
62	40
63	140
64	60
65	170
66	20
67	20
75	90
76	30
77	520
78	631
79	170
80	50
81	10
89	150
90	70
91	360
92	80
93	30
94	10
102	10
103	40
104	30
105	40
106	120
107	240
108	40
115	40
116	10
117	40
118	60
119	30
120	20
121	1181
122	2532
123	220
124	10
131	10
132	20
133	20
134	110
135	40
147	10
148	40
149	20
150	70
163	10
164	20
165	80
166	10
