Mass Spectrum: Trichothec-9-en-8-one, 4-(acetyloxy)-12,13-epoxy-3,7,15-trihydroxy-, (3.alpha.,4.beta.,7.beta.)-
Formula: C17 H22 O8
CAS: 23255-69-8
Molecular weight: 354
Origin: MYCOTOXINS MASS SPECTRAL DATA BANK, L.R. DUSOLD ET AL, FDA, USA
m/z	RELATIVE INTENSITY
23	183
25	269
26	1221
27	5675
28	2302
29	5891
30	702
31	3642
32	320
35	226
36	226
37	140
38	226
39	4810
40	1005
41	6064
42	1048
43	9999
44	399
45	832
47	269
48	226
49	1696
50	226
51	1523
52	832
53	5329
54	961
55	5675
56	961
57	2042
58	269
59	313
60	832
61	702
62	4248
63	1005
64	1523
65	3556
66	1437
67	4507
68	702
69	5675
70	2172
71	1956
72	226
73	615
74	226
75	183
76	226
77	5718
78	2042
79	5848
80	2648
81	4334
82	1523
83	5199
84	659
85	2172
86	269
87	442
88	183
89	356
90	313
91	5804
92	1480
93	4507
94	1523
95	5848
96	2648
97	4637
98	5848
99	1653
102	269
103	1437
104	702
105	5718
106	1480
107	5588
108	4032
109	5761
110	1437
111	4810
112	1307
113	1134
114	313
115	1913
116	1177
117	1869
118	529
119	2172
120	1134
121	5631
122	2345
123	5675
124	4983
125	5631
126	1783
127	1177
128	1264
129	1567
130	615
131	2950
132	1437
133	5502
134	3210
135	3340
136	2691
137	5372
138	1437
139	2042
140	1350
141	1999
142	875
143	1437
144	918
145	2648
146	1091
147	3037
148	1048
149	5675
150	3383
151	5848
152	1999
153	1523
154	615
155	1696
156	313
157	745
158	788
159	5502
160	1956
161	5588
162	4118
163	3426
164	1091
165	1264
166	442
167	1523
168	399
169	399
170	269
171	1437
172	1005
173	1913
174	1177
175	5199
176	1523
177	4291
178	875
179	7231
180	5069
181	961
182	226
183	399
184	313
185	702
186	442
187	5329
188	3296
189	5069
190	1480
191	3210
192	1307
193	1134
194	269
195	269
196	183
197	3772
198	442
199	918
200	659
201	1523
203	2129
204	1610
205	3815
206	875
207	702
208	269
209	356
210	183
211	269
212	226
213	399
214	226
215	832
216	1826
217	3080
218	1999
219	875
220	313
221	1177
222	313
223	226
225	96
227	356
228	1048
229	1869
230	615
231	788
232	226
233	702
234	399
235	918
236	615
237	183
239	2475
240	399
241	96
243	96
245	1048
246	1610
247	3123
248	745
249	399
250	53
251	96
253	53
257	442
258	226
259	399
260	96
261	96
262	53
263	745
264	4291
265	875
266	140
267	53
276	313
277	615
278	399
279	96
289	269
290	53
293	53
294	1177
295	226
305	313
306	5631
307	1523
308	356
309	10
318	53
322	10
323	10
324	659
325	96
336	2561
337	442
338	10
354	1913
355	356
356	10
