Mass Spectrum: N-Glycyl-dl-valine
Formula: C7 H14 N2 O3
CAS: 2325-17-9
Molecular weight: 174
Origin: Japan AIST/NIMC Database- Spectrum MS-NW-9307
m/z	RELATIVE INTENSITY
14	10
15	60
16	30
17	69
18	329
26	40
27	459
28	1479
29	589
30	9999
31	1969
32	269
38	30
39	329
40	70
41	659
42	329
43	659
44	279
45	169
46	60
51	20
52	20
53	60
54	90
55	879
56	539
57	589
58	139
59	289
60	40
66	10
67	50
68	80
69	249
70	429
71	229
72	2489
73	209
74	269
75	319
76	10
80	10
81	30
82	70
83	99
84	129
85	549
86	199
87	159
88	10
89	50
95	40
96	10
97	30
98	209
99	80
100	80
101	80
102	119
103	129
104	10
109	20
110	10
111	50
112	20
113	429
114	1509
115	119
116	109
117	20
118	129
119	10
123	10
125	10
126	10
127	30
128	489
129	429
130	369
131	169
132	159
133	10
139	10
141	20
144	10
145	20
146	20
149	10
154	10
156	259
157	60
174	699
175	149
176	10
