Mass Spectrum: Benzenamine, N-(triphenylphosphoranylidene)-
Formula: C24 H20 N P
CAS: 2325-27-1
Molecular weight: 353
m/z	RELATIVE INTENSITY
107	1501
108	1301
109	100
122	2402
123	200
152	1201
153	100
183	5905
185	1401
186	100
262	1501
263	200
276	901
277	100
352	7707
353	9999
354	2502
355	300
