Mass Spectrum: Carbamic acid, N-methyl-, 2,3-dichlorobenzyl ester
Formula: C9 H9 Cl2 N O2
CAS: 2328-31-6
Molecular weight: 233
Origin: J. SHAW, BORRISTON RESEARCH, ROCKVILLE, MD, USA
m/z	RELATIVE INTENSITY
12	70
15	7297
16	190
26	550
27	4864
29	8448
30	4604
31	1011
32	280
35	320
36	440
37	610
38	950
39	2622
40	140
41	130
42	280
47	130
49	660
50	1981
51	2132
52	250
53	100
56	680
58	9999
62	4544
63	4604
64	250
65	80
66	10
67	10
68	10
69	30
73	2732
74	2082
75	3873
77	3843
78	380
79	350
81	140
83	150
84	570
85	760
86	760
87	1061
89	5995
90	360
91	60
92	20
94	50
97	1031
99	1031
101	260
103	90
105	440
107	330
109	1021
111	2702
112	560
113	1281
114	170
115	210
116	20
117	30
118	20
119	30
120	20
121	40
123	4664
124	1361
125	1551
126	400
127	60
128	10
131	20
133	620
135	400
137	90
139	500
141	7647
143	4384
145	600
147	760
148	100
149	280
150	30
151	40
152	20
154	60
155	10
159	7157
161	6206
163	1461
164	70
165	10
167	10
169	10
170	10
173	250
175	580
176	740
177	280
178	460
179	60
180	70
181	10
186	10
188	90
190	100
191	10
192	30
198	5425
200	2362
201	140
202	20
203	10
204	10
216	10
220	10
221	10
233	960
235	680
237	140
239	10
