Mass Spectrum: Cyclohexanol, 5-methyl-2-(1-methylethyl)-, [1S-(1.alpha.,2.beta.,5.beta.)]-
Formula: C10 H20 O
CAS: 23283-97-8
Molecular weight: 156
Origin: Japan AIST/NIMC Database- Spectrum MS-NW-8935
m/z	RELATIVE INTENSITY
15	20
18	10
27	639
28	139
29	859
30	20
31	219
39	569
40	119
41	2889
42	509
43	2559
44	299
45	189
51	50
52	30
53	509
54	309
55	3499
56	1809
57	2199
58	259
59	159
63	10
65	99
66	50
67	2209
68	1129
69	2849
70	1119
71	9999
72	569
73	119
77	149
78	30
79	279
80	699
81	5629
82	3009
83	1169
84	309
85	919
86	429
87	60
91	90
92	30
93	269
94	369
95	5459
96	1739
97	369
98	40
99	389
100	80
101	10
105	10
107	20
108	10
109	919
110	559
111	149
112	199
113	159
114	10
121	20
123	2229
124	219
125	30
135	50
136	20
137	60
138	1299
139	249
140	20
141	60
155	10
156	10
