Mass Spectrum: Benzenepropanoic acid, pentyl ester
Formula: C14 H20 O2
CAS: 232949-65-4
Molecular weight: 220
Origin: V.Zaikin,Topchiev Inst.Petrochem.Synth.,Moscow
m/z	RELATIVE INTENSITY
27	330
28	100
29	641
30	50
31	40
35	40
36	120
37	70
38	180
39	1071
40	160
41	1491
42	651
43	3293
44	370
45	130
49	50
50	561
51	1271
52	380
53	280
54	70
55	871
56	110
57	140
58	50
59	30
60	40
61	80
62	150
63	440
64	100
65	951
66	90
67	80
68	20
69	230
70	280
71	621
72	290
73	90
74	250
75	250
76	190
77	1972
78	1692
79	1161
80	120
81	30
82	30
83	50
85	40
86	30
87	40
89	270
90	200
91	8888
92	751
93	50
95	30
97	60
98	20
101	70
102	340
103	1191
104	9999
105	4054
106	380
107	2522
108	210
109	20
111	20
115	60
116	20
117	30
119	30
120	20
121	30
130	40
131	200
132	340
133	1011
134	120
139	40
146	30
147	70
148	80
149	330
150	3413
151	340
152	50
219	30
220	1521
221	240
222	40
