Mass Spectrum: Naphtho[2,1-b]thiophene
Formula: C12 H8 S
CAS: 233-02-3
Molecular weight: 184
Origin: Organic Synthesis Lab, MSU, Moscow.TRC 326
m/z	RELATIVE INTENSITY
40	140
44	20
45	30
50	30
51	20
56	140
58	10
61	30
62	60
63	100
64	10
65	20
66	30
69	130
71	10
73	10
74	120
75	90
76	50
77	40
78	40
79	571
81	20
82	40
84	10
85	30
86	110
87	140
88	80
89	160
90	20
91	330
92	831
94	10
95	10
97	10
98	90
99	50
100	20
101	30
102	10
105	20
106	30
108	20
109	20
110	40
111	30
112	20
113	250
114	160
115	80
116	10
117	40
119	10
121	10
122	20
123	10
125	20
126	70
127	20
132	30
133	10
134	40
137	150
138	260
139	2012
140	360
141	30
145	30
149	20
150	220
151	280
152	1271
153	160
154	10
156	10
157	20
158	130
159	10
169	10
181	10
182	130
183	631
184	9999
185	1361
186	490
