Mass Spectrum: Propionic acid, 3-(allylthio)-
Formula: C6 H10 O2 S
CAS: 23349-98-6
Molecular weight: 146
Origin: J.H.BOWIE UNIVERSITY OF ADELAIDE, ADELAIDE, AUSTRALIA
m/z	RELATIVE INTENSITY
27	1100
39	3800
41	6600
43	800
45	7400
46	1300
47	1800
55	700
58	1300
59	2500
60	800
61	1300
63	600
71	1100
72	3300
73	9999
74	1800
75	600
77	500
85	1200
86	600
87	6200
89	1600
100	1000
104	1000
105	3000
119	100
146	4000
