Mass Spectrum: Naphthalene, 1,2,3,4-tetrahydro-2,2,5,7-tetramethyl-
Formula: C14 H20
CAS: 23342-25-8
Molecular weight: 188
Origin: ASES Database, Dalian Institute, P.R. China
m/z	RELATIVE INTENSITY
27	860
29	710
39	910
41	830
51	480
53	390
63	280
65	400
77	680
78	280
91	850
115	1151
116	450
117	1080
128	960
129	830
131	780
132	9999
133	1911
141	580
142	480
143	540
145	520
173	2602
174	390
188	4103
189	610
