Mass Spectrum: Valeric acid, 2,2-dimethylpropyl ester
Formula: C10 H20 O2
CAS: 23361-71-9
Molecular weight: 172
Origin: V.Zaikin,Topchiev Inst.Petrochem.Synth.,Moscow
m/z	RELATIVE INTENSITY
25	30
26	220
27	741
28	90
29	1772
30	70
31	80
35	60
36	460
37	70
38	280
39	881
40	230
41	2472
42	621
43	2302
44	180
45	20
48	10
49	70
50	270
51	510
52	1161
53	310
54	90
55	1621
56	921
57	7487
58	290
59	70
60	290
61	40
64	10
67	40
68	30
69	150
70	1631
71	2913
72	160
73	320
74	390
78	220
79	1972
80	80
82	50
83	80
84	250
85	9999
86	70
87	701
88	60
95	10
96	20
98	10
99	10
100	60
101	100
102	180
103	140
115	210
116	250
117	1692
118	90
126	60
130	240
131	20
157	70
