Mass Spectrum: Levopropoxyphene
Formula: C22 H29 N O2
CAS: 2338-37-6
Molecular weight: 339
Origin: Drug Lab
m/z	RELATIVE INTENSITY
41	30
42	190
43	50
44	70
45	20
50	10
51	60
52	10
53	10
55	20
56	50
57	470
58	9999
59	350
63	30
65	130
66	10
70	30
71	60
74	20
75	10
76	20
77	270
78	50
79	10
84	40
85	40
86	80
87	10
89	50
90	10
91	701
92	50
101	10
102	30
103	40
104	10
105	270
106	20
115	380
116	70
117	150
118	20
127	30
128	100
129	140
130	160
131	30
132	10
133	50
134	40
139	10
141	10
143	30
144	10
151	10
152	40
158	10
165	70
166	20
167	10
174	40
176	30
177	10
178	160
179	100
180	10
189	30
190	20
191	50
192	30
193	110
194	10
197	40
202	10
203	10
204	10
205	20
206	20
207	20
208	120
209	10
250	80
251	10
265	10
266	20
