Mass Spectrum: Benzeneacetonitrile, 3-(trifluoromethyl)-
Formula: C9 H6 F3 N
CAS: 2338-76-3
Molecular weight: 185
Origin: RADIAN CORP
m/z	RELATIVE INTENSITY
37	100
38	200
39	40
50	610
51	290
52	120
57	290
61	270
62	570
63	940
64	290
68	70
69	950
70	100
74	350
75	940
76	260
81	210
82	50
83	80
85	110
86	180
87	390
88	520
89	1530
90	250
94	90
95	330
99	310
100	100
101	30
108	260
109	270
112	90
113	110
114	340
115	100
116	9999
117	950
118	90
119	260
126	160
127	110
132	160
134	460
135	100
137	190
138	440
139	160
144	150
145	340
157	140
158	350
159	150
164	100
165	800
166	1150
167	120
184	330
185	3160
186	340
