Mass Spectrum: 3-Ethoxycarbonylquinoxaline 1-oxide
Formula: C11 H10 N2 O3
CAS: 23395-75-7
Molecular weight: 218
Origin: Japan AIST/NIMC Database- Spectrum MS-IW-7838
m/z	RELATIVE INTENSITY
15	10
26	20
27	209
28	129
29	659
30	20
31	30
37	20
38	60
39	189
40	20
41	20
42	1169
43	50
44	30
45	30
50	199
51	219
52	90
53	40
55	10
57	10
61	10
62	119
63	429
64	239
65	70
66	10
72	30
73	20
74	70
75	359
76	299
77	80
78	60
79	10
86	50
87	50
88	189
89	269
90	849
91	559
92	50
99	10
100	20
101	50
102	679
103	219
104	50
105	40
106	10
114	109
115	40
116	70
117	80
118	319
119	30
127	10
128	30
129	509
130	1239
131	129
132	10
135	10
139	10
144	30
145	679
146	9999
147	1069
148	70
149	10
155	10
156	30
157	60
158	519
159	50
160	10
162	10
173	349
174	1519
175	159
176	10
190	20
191	10
202	99
203	40
204	10
217	10
218	3769
219	529
220	50
