Mass Spectrum: L-Methionine, N-(trifluoroacetyl)-, butyl ester
Formula: C11 H18 F3 N O3 S
CAS: 2340-90-1
Molecular weight: 301
Origin: S. MARKEY UNIV. OF COLO. MED. CTR., DENVER, COLORADO, USA
m/z	RELATIVE INTENSITY
15	400
18	60
26	190
27	3110
29	6790
30	260
31	240
35	980
39	1280
40	190
41	5620
42	400
43	580
44	310
45	1080
46	510
47	1110
48	270
49	260
50	100
51	100
53	140
54	460
55	890
56	850
57	4200
58	300
59	350
60	180
61	9999
62	1060
63	490
64	30
68	50
69	1650
70	370
71	120
72	30
73	100
74	460
75	2350
76	110
77	230
78	190
82	120
83	180
84	460
85	140
86	200
87	220
88	140
96	110
99	20
100	80
101	30
102	40
103	60
104	230
114	90
117	50
119	60
125	100
126	70
128	30
131	260
132	100
138	210
139	50
140	120
151	70
152	730
153	1870
154	140
166	440
170	40
171	1530
172	70
179	280
180	60
181	40
184	380
185	20
197	70
198	110
199	30
200	320
212	30
227	1070
228	140
240	110
301	330
302	40
