Mass Spectrum: 4-Nonanol, 4-methyl-
Formula: C10 H22 O
CAS: 23418-38-4
Molecular weight: 158
Origin: NIST Mass Spectrometry Data Center, 1990.
m/z	RELATIVE INTENSITY
15	201
27	1698
28	1020
29	2151
31	359
32	124
39	1107
41	3288
42	513
43	4164
45	6324
46	143
53	314
55	4529
56	1159
57	929
58	1311
59	606
67	264
69	2297
70	364
71	1214
73	416
83	457
84	429
85	198
87	9999
88	584
97	1434
98	167
115	5035
116	356
143	1045
