Mass Spectrum: 4-Octanol, 4-methyl-
Formula: C9 H20 O
CAS: 23418-37-3
Molecular weight: 144
m/z	RELATIVE INTENSITY
12	10
13	10
14	70
15	621
16	30
17	90
18	300
19	60
23	10
24	10
25	10
26	370
27	4174
28	811
29	3173
30	90
31	661
32	30
33	10
36	20
37	50
38	130
39	1792
40	310
41	4174
42	591
43	5575
44	230
45	7447
46	170
47	30
49	10
50	60
51	140
52	70
53	440
54	130
55	3873
56	1621
57	1541
58	771
59	1021
60	40
61	10
62	10
63	30
64	10
65	70
66	40
67	230
68	130
69	2262
70	310
71	761
72	130
73	320
74	20
77	60
78	20
79	60
80	10
81	90
82	60
83	1161
84	510
85	190
86	200
87	9999
88	540
89	30
91	20
93	10
95	20
97	290
98	40
99	30
101	6956
102	450
103	30
109	10
111	180
112	20
113	10
115	20
124	10
126	400
127	70
128	10
129	1631
130	140
131	10
143	10
