Mass Spectrum: Benzoic acid, 4-(acetyloxy)-
Formula: C9 H8 O4
CAS: 2345-34-8
Molecular weight: 180
Origin: Japan AIST/NIMC Database- Spectrum MS-NW-1655
m/z	RELATIVE INTENSITY
13	20
14	179
15	709
16	30
17	10
18	30
26	40
27	319
28	40
29	90
31	30
32	10
36	20
37	129
38	429
39	869
40	40
41	50
42	329
43	7979
44	179
45	159
49	20
50	269
51	179
52	70
53	289
54	20
55	109
56	10
57	60
60	20
61	99
62	259
63	679
64	359
65	1029
66	109
67	10
68	10
69	20
71	30
73	20
74	109
75	99
76	80
77	50
79	20
80	10
81	409
82	40
83	20
85	20
91	20
92	199
93	759
94	99
95	10
97	10
103	10
104	20
105	20
106	10
107	20
109	109
110	90
119	10
120	109
121	6439
122	499
123	40
135	20
136	10
137	40
138	9999
139	769
140	90
149	10
163	20
180	1299
181	129
182	20
