Mass Spectrum: 2-Pentadecanone
Formula: C15 H30 O
CAS: 2345-28-0
Molecular weight: 226
Origin: Japan AIST/NIMC Database- Spectrum MS-IW- 215
m/z	RELATIVE INTENSITY
15	60
18	10
26	10
27	319
28	70
29	869
30	20
31	20
32	10
39	239
40	50
41	1829
42	389
43	6239
44	169
45	90
51	10
53	109
54	189
55	1409
56	799
57	2059
58	9999
59	6309
60	229
61	20
65	20
66	40
67	399
68	329
69	939
70	509
71	3989
72	399
73	30
77	20
79	50
80	40
81	479
82	979
83	709
84	339
85	1419
86	159
87	10
91	20
93	20
94	20
95	459
96	1149
97	649
98	209
99	159
100	239
101	20
104	10
105	10
107	10
108	10
109	239
110	389
111	399
112	139
113	229
114	249
115	20
123	119
124	219
125	239
126	99
127	329
128	119
129	10
137	70
138	169
139	99
140	109
141	90
142	40
143	10
151	20
152	80
153	20
155	40
156	50
165	20
166	279
167	40
168	369
169	109
170	70
179	20
180	10
182	10
183	129
184	40
193	10
197	50
198	20
208	99
209	20
211	199
212	30
226	449
227	259
228	30
