Mass Spectrum: 2H-Pyran-3(4H)-one, dihydro-
Formula: C5 H8 O2
CAS: 23462-75-1
Molecular weight: 100
Origin: J.VOTH UNIV. OF CALIFORNIA, DAVIS, CALIFORNIA, 95616, USA
m/z	RELATIVE INTENSITY
12	80
13	183
14	754
15	825
16	134
19	20
24	18
25	99
26	745
27	2029
28	981
29	1809
30	173
31	464
36	28
37	185
38	321
39	1579
40	862
41	3244
42	9999
43	968
44	373
45	711
46	35
49	28
50	68
51	48
52	22
53	70
54	32
55	664
56	218
57	86
58	24
60	28
68	24
69	35
70	672
71	1176
72	216
73	25
85	77
86	27
87	22
100	2075
101	123
