Mass Spectrum: 3-Chlorohexane
Formula: C6 H13 Cl
CAS: 2346-81-8
Molecular weight: 120
Origin: NIST Mass Spectrometry Data Center, 1990.
m/z	RELATIVE INTENSITY
14	15
15	231
26	362
27	2388
28	123
29	1584
37	145
38	389
39	3176
40	718
41	6224
42	3282
43	4877
44	210
49	348
50	332
51	618
52	169
53	962
55	9999
56	9196
57	965
61	158
62	849
63	630
64	268
65	308
67	255
69	5262
70	269
75	236
76	420
77	453
78	166
79	150
84	4317
85	1171
90	122
91	365
93	171
