Mass Spectrum: 6-Chloropiperonyl chloride
Formula: C8 H6 Cl2 O2
CAS: 23468-31-7
Molecular weight: 204
Origin: NIST Mass Spectrometry Data Center
m/z	RELATIVE INTENSITY
12	20
14	360
15	30
16	30
17	10
25	50
26	120
27	180
28	100
29	841
30	260
31	140
32	80
35	150
36	100
37	520
38	561
39	370
40	10
41	20
42	140
43	40
45	20
46	30
47	50
48	70
49	490
50	1992
51	1251
52	120
53	831
54	70
55	140
56	130
57	30
60	210
61	460
62	550
63	621
64	130
65	50
66	30
67	50
69	60
70	20
71	50
72	170
73	591
74	1361
75	3453
76	691
77	2242
78	340
79	20
84	1041
85	721
86	180
87	370
88	160
89	50
90	40
92	20
96	10
97	120
98	60
99	180
100	20
101	140
102	90
103	100
104	60
105	80
106	30
107	50
108	60
109	230
111	1972
112	260
113	1201
114	110
115	190
116	30
119	20
121	20
126	30
127	10
133	230
134	40
139	430
140	60
141	180
142	40
145	90
146	50
147	80
148	50
165	20
166	40
169	9999
170	901
171	3043
172	380
173	60
175	50
204	2202
205	220
206	1511
207	140
208	240
209	20
