Mass Spectrum: Thiazole, 4,5-dihydro-2-methyl-
Formula: C4 H7 N S
CAS: 2346-00-1
Molecular weight: 101
Origin: Japan AIST/NIMC Database- Spectrum MS-NW-2883
m/z	RELATIVE INTENSITY
12	10
13	10
14	50
15	289
25	30
26	339
27	869
28	669
29	40
30	10
31	10
32	119
33	50
34	109
35	20
37	30
38	60
39	99
40	199
41	269
42	1599
43	80
44	129
45	2949
46	249
47	199
48	10
51	40
52	109
53	30
54	809
55	1869
56	90
57	239
58	829
59	4719
60	9999
61	499
62	439
63	10
68	60
69	10
70	40
71	40
72	60
73	169
74	10
86	20
99	10
100	40
101	5639
102	319
103	259
104	10
