Mass Spectrum: Protocatechoic acid, 3TMS derivative
Formula: C16 H30 O4 Si3
CAS: 2347-40-2
Molecular weight: 370
Origin: O A MAMER, MCGILL UNIVERSITY
m/z	RELATIVE INTENSITY
15	113
17	86
18	325
28	278
29	88
43	297
44	321
45	2190
46	153
47	126
57	104
58	102
59	254
72	187
73	9999
74	867
75	610
76	73
77	100
83	241
89	72
91	109
93	66
95	59
103	136
105	194
107	83
109	115
117	73
119	147
121	71
123	72
131	148
133	327
135	169
137	594
138	86
147	497
148	103
149	185
151	79
163	165
165	663
166	110
179	229
193	8463
194	1318
195	521
196	76
207	210
209	79
223	671
224	156
225	73
237	146
267	455
268	113
281	840
282	255
283	106
295	137
311	1070
312	341
313	174
341	122
355	2165
356	711
357	351
358	91
370	3799
371	1282
372	619
373	148
