Mass Spectrum: Propanoic acid, 2-methyl-, hexyl ester
Formula: C10 H20 O2
CAS: 2349-07-7
Molecular weight: 172
Origin: V.G.Zaikin, Petrochem. Synth. Inst., Moscow
m/z	RELATIVE INTENSITY
26	150
27	1231
28	240
29	791
30	60
31	120
36	150
38	110
39	991
40	150
41	2552
42	1752
43	9999
44	480
45	80
51	190
53	150
54	170
55	1421
56	2662
57	891
69	871
70	380
71	4064
72	150
73	180
77	110
80	70
82	70
83	350
84	1922
85	480
86	60
89	4024
90	210
101	110
102	10
115	60
129	120
130	20
172	30
