Mass Spectrum: 1,3,4-Thiadiazole-2(3H)-thione, 5-amino-
Formula: C2 H3 N3 S2
CAS: 2349-67-9
Molecular weight: 133
Origin: Japan AIST/NIMC Database- Spectrum MS-NW-1796
m/z	RELATIVE INTENSITY
26	60
27	349
28	3259
29	409
30	179
32	999
33	239
34	60
40	10
41	129
42	539
43	1369
44	499
45	769
46	319
47	539
48	70
49	20
55	30
56	20
57	4299
58	289
59	1419
60	1619
61	99
62	70
64	1319
65	40
66	119
69	20
70	20
71	20
72	20
73	109
74	2699
75	199
76	899
77	589
78	99
79	50
81	10
83	10
85	10
88	10
90	40
91	129
97	10
100	109
101	20
102	10
116	30
133	9999
134	489
135	909
136	30
137	20
