Mass Spectrum: 2-Butenedioic acid, (Z)-, 2TMS derivative
Formula: C10 H20 O4 Si2
CAS: 23508-82-9
Molecular weight: 260
Origin: NIST Mass Spectrometry Data Center
m/z	RELATIVE INTENSITY
15	10
26	20
27	20
28	10
29	50
31	20
39	10
40	10
41	10
42	40
43	310
44	160
45	1091
46	80
47	290
48	10
49	10
51	30
52	30
53	160
54	170
55	140
56	20
57	90
58	310
59	350
60	70
61	170
62	10
63	10
64	10
66	250
67	60
68	120
69	130
70	50
71	70
72	210
73	6045
74	601
75	1531
76	110
77	60
78	10
79	10
81	10
82	70
83	761
84	300
85	150
86	20
87	40
88	10
89	30
95	10
97	20
98	170
99	90
100	20
101	30
102	20
103	70
104	10
105	40
107	10
111	30
112	10
113	130
114	20
115	591
117	160
118	30
119	60
120	10
126	340
127	80
128	80
129	40
130	10
131	200
132	70
133	651
134	90
135	60
136	10
141	10
142	70
143	510
144	70
145	40
147	9999
148	2252
149	1161
150	120
151	30
155	170
156	40
157	130
158	20
159	40
160	10
161	10
170	310
171	120
172	30
173	40
174	10
176	10
185	10
187	10
201	20
203	10
214	10
215	170
216	40
217	40
218	10
242	130
243	30
245	2152
246	440
247	200
248	30
249	10
