Mass Spectrum: 1,1'-Biphenyl, 4-ethenyl-
Formula: C14 H12
CAS: 2350-89-2
Molecular weight: 180
Origin: Dmitri Zagorevskii, Scientific Instruments & Applications
m/z	RELATIVE INTENSITY
38	80
39	596
40	26
41	28
50	467
51	955
52	227
53	48
61	51
62	227
63	792
64	355
65	157
69	82
74	278
75	477
76	2016
77	877
78	354
79	24
82	220
85	23
86	80
87	168
88	472
89	1139
90	704
91	107
98	88
99	64
100	41
101	89
102	336
103	114
110	23
111	26
113	78
114	31
115	419
116	43
125	34
126	206
127	165
128	157
129	24
139	241
140	34
141	44
149	27
150	245
151	543
152	1178
153	397
154	212
155	35
163	103
164	166
165	1717
166	249
174	26
175	49
176	555
177	414
178	2797
179	2269
180	9999
181	1563
182	114
