Mass Spectrum: Silacyclobutane,1-chloro-1-methyl-
Formula: C4 H9 Cl Si
CAS: 2351-34-0
Molecular weight: 120
Origin: V.G.Zaikin, TIPS, Russian Acad. Sci.
m/z	RELATIVE INTENSITY
63	4003
64	400
65	1501
92	9999
93	1101
94	3603
95	450
105	600
107	200
120	2201
121	210
122	800
123	70
124	30
