Mass Spectrum: Silacyclobutane, 1,1-dichloro-
Formula: C3 H6 Cl2 Si
CAS: 2351-33-9
Molecular weight: 140
Origin: V.A.KOPTYUG, ATLAS OF MASS SPECTRA OF ORGANIC COMPOUNDS
m/z	RELATIVE INTENSITY
27	400
39	1100
40	300
41	1400
42	1500
63	2700
65	900
77	300
79	100
98	600
99	700
100	400
101	500
112	9999
113	600
114	6699
115	400
116	1200
117	100
125	1500
126	100
127	1000
140	1800
141	200
142	1200
143	100
