Mass Spectrum: 4-Chlorophenyl-.beta.-phenylpropionate
Formula: C15 H13 Cl O2
CAS: 23522-73-8
Molecular weight: 260
Origin: Zaikin V.G., TIPS RAS, Moscow, Russia
m/z	RELATIVE INTENSITY
27	60
28	30
39	90
51	170
55	50
63	90
64	30
65	510
73	60
75	80
77	811
78	330
79	711
80	30
89	60
90	50
91	8958
92	691
93	30
99	180
100	30
101	60
102	40
103	721
104	961
105	9999
106	891
111	90
127	150
128	5895
129	420
130	1962
131	1141
132	1561
133	9809
134	951
135	70
150	30
260	1141
261	170
262	390
263	40
