Mass Spectrum: Chiloscyphone
Formula: C15 H22 O
CAS: 23538-45-6
Molecular weight: 218
Origin: ASES Database, Dalian Institute, P.R. China
m/z	RELATIVE INTENSITY
41	9999
42	100
43	2482
51	600
52	200
53	1311
54	100
55	2682
65	690
66	90
67	1201
68	300
69	5314
77	1201
78	400
79	2602
80	90
81	1090
82	200
83	100
84	400
85	90
86	200
91	2892
92	500
93	2292
94	300
95	400
96	190
97	2091
105	1301
106	600
107	5004
108	700
119	890
120	600
121	690
122	1991
147	3092
148	800
149	1991
150	390
162	400
175	890
176	90
203	390
218	1191
219	200
