Mass Spectrum: Ethyl m-trifluoromethylcarbanilate
Formula: C10 H10 F3 N O2
CAS: 2354-93-0
Molecular weight: 233
Origin: NIST Mass Spectrometry Data Center, 1994
m/z	RELATIVE INTENSITY
13	58
15	654
18	77
19	131
25	99
26	692
27	3499
28	58
29	9999
30	471
31	1696
33	41
37	437
38	931
39	1005
40	48
41	208
42	166
43	395
44	289
45	1269
46	223
47	46
49	75
50	749
51	582
52	394
54	69
55	47
56	134
57	545
58	44
60	44
61	258
62	670
63	2096
64	1154
65	522
66	72
69	1102
70	190
71	42
73	62
74	240
75	1093
76	206
77	80
79	82
80	67
81	236
82	196
83	670
84	160
86	57
87	179
88	666
89	229
90	745
91	548
92	128
93	211
94	147
95	626
96	114
99	213
100	195
101	143
102	78
104	47
105	107
106	80
107	106
108	229
109	1087
110	139
111	1002
112	357
113	1399
114	2035
115	206
119	195
120	670
121	121
122	66
125	371
126	125
127	512
128	78
131	91
132	557
133	696
134	436
135	57
137	296
138	174
139	1102
140	1581
141	894
142	757
143	94
144	57
145	1598
146	169
147	79
148	79
154	79
158	259
159	1720
160	1860
161	9822
162	858
163	38
168	1351
169	144
172	104
174	6721
175	626
184	49
187	4587
188	1336
189	130
204	134
205	294
214	1212
215	168
233	4895
234	574
235	56
