Mass Spectrum: 4-t-Butyl pyridine, 1-oxide
Formula: C9 H13 N O
CAS: 23569-17-7
Molecular weight: 151
Origin: James Little,Eastman Chem.Co.,Kingsport,TN
m/z	RELATIVE INTENSITY
27	651
28	300
29	410
39	1661
41	1411
43	310
50	360
51	961
52	450
53	621
55	290
63	561
64	250
65	801
66	330
67	330
77	661
78	410
79	701
80	240
81	270
89	150
91	611
92	460
93	260
96	931
103	140
104	170
106	130
108	2983
109	260
118	260
119	190
120	460
121	571
135	270
136	9999
137	851
138	70
151	3273
152	611
153	160
