Mass Spectrum: 4-Bromo-2-fluoroanisole
Formula: C7 H6 Br F O
CAS: 2357-52-0
Molecular weight: 204
Origin: Chuck Anderson, Aldrich Chemical Co.
m/z	RELATIVE INTENSITY
14	21
15	137
25	19
26	59
27	45
28	17
29	161
30	30
31	792
32	14
33	26
36	57
37	376
38	494
39	102
40	13
41	66
42	16
43	33
44	43
45	26
47	24
48	39
49	141
50	746
51	307
52	28
53	114
54	11
55	81
56	513
57	422
58	19
60	61
61	531
62	506
63	1069
64	66
65	15
66	22
67	15
68	575
69	139
70	43
71	51
72	22
73	188
74	693
75	587
76	80
77	226
78	28
79	119
80	258
81	2089
82	1728
83	118
84	21
90	10
91	27
92	264
93	494
94	1766
95	833
96	357
97	233
98	19
102	77
103	23
104	23
105	32
106	23
107	20
108	10
109	23
110	718
111	351
113	314
115	16
116	34
117	112
118	35
119	90
123	14
124	55
125	86
126	19
128	20
129	13
130	22
131	12
133	12
134	24
135	223
136	31
137	208
138	12
140	10
141	18
142	32
143	19
144	27
146	9
147	10
149	11
153	25
154	10
155	43
156	11
157	23
159	11
161	3531
162	211
163	3482
164	181
165	9
170	35
172	40
173	205
174	40
175	214
176	36
189	6765
190	475
191	6815
192	429
193	31
201	26
204	9999
205	743
206	9352
207	671
208	45
