Mass Spectrum: Pyridine, 3-ethyl-2,6-dimethyl-
Formula: C9 H13 N
CAS: 23580-52-1
Molecular weight: 135
m/z	RELATIVE INTENSITY
26	340
27	1601
28	520
29	280
30	20
37	130
38	400
39	2142
40	360
41	761
42	861
43	100
49	40
50	530
51	1221
52	741
53	1001
54	150
55	50
58	20
59	60
60	110
61	70
62	210
63	581
64	250
65	791
66	250
67	140
68	40
74	70
75	90
76	120
77	2222
78	661
79	1742
80	240
81	30
86	20
87	20
88	20
89	90
90	70
91	761
92	250
93	500
94	130
95	10
102	50
103	70
104	150
105	120
106	861
107	841
108	130
116	30
117	120
118	210
119	340
120	9999
121	1111
122	50
130	30
131	30
132	150
133	150
134	3363
135	5435
136	530
137	20
