Mass Spectrum: 1H-Benzotriazole, 1-(benzylideneamino)-
Formula: C13 H10 N4
CAS: 23589-43-7
Molecular weight: 222
m/z	RELATIVE INTENSITY
37	202
38	403
39	1008
40	161
50	968
51	2016
52	202
62	363
63	1169
64	1008
70	141
74	181
75	222
76	343
77	2016
83	343
84	706
89	2419
90	2500
91	927
103	141
104	202
115	242
116	101
139	403
140	101
163	262
164	645
165	9999
166	2580
167	323
168	161
192	161
193	504
194	161
221	101
222	3891
