Mass Spectrum: 3-Pyridinecarboxylic acid, hexyl ester
Formula: C12 H17 N O2
CAS: 23597-82-2
Molecular weight: 207
Origin: Tox21 Consortium/NIST Mass Spectrometry Data Center, 2012
m/z	RELATIVE INTENSITY
15	10
26	50
27	480
28	190
29	581
30	20
31	20
37	10
38	40
39	480
40	100
41	1501
42	881
43	1371
44	70
45	30
49	30
50	561
51	2262
52	380
53	280
54	160
55	1471
56	2472
57	210
58	10
59	10
63	10
64	10
65	30
66	20
67	100
68	30
69	781
70	50
71	10
75	30
76	90
77	290
78	4494
79	791
80	150
81	20
82	10
83	90
84	520
85	40
91	10
92	10
93	20
94	20
95	10
104	20
105	901
106	7227
107	611
108	80
109	10
117	10
118	10
120	20
121	60
122	30
123	941
124	9999
125	731
126	70
134	20
135	10
136	20
137	1531
138	120
139	10
146	10
150	591
151	350
152	50
162	30
163	10
164	1742
165	410
166	40
178	240
179	60
180	10
192	20
206	480
207	80
208	10
