Mass Spectrum: 2,2',4',5'-Tetrachloroacetanilide
Formula: C8 H5 Cl4 N O
CAS: 23595-42-8
Molecular weight: 271
Origin: A.A.Kutin, Moscow, Russia
m/z	RELATIVE INTENSITY
33	25
35	578
36	1160
37	799
38	568
39	199
40	652
41	572
42	1934
43	533
44	500
45	96
47	504
48	686
49	6640
50	727
51	2172
52	705
53	82
54	68
55	193
56	61
57	88
59	432
60	467
61	1660
62	1914
63	477
64	270
65	117
66	43
67	78
68	49
69	145
71	391
72	1076
73	1240
74	1135
75	605
76	783
77	4539
78	332
79	1594
80	180
81	158
82	146
83	771
84	543
85	625
86	520
87	713
88	1145
89	305
90	152
91	41
94	109
95	205
96	727
97	2758
98	910
99	1176
100	338
101	113
102	72
104	14
106	215
107	1354
108	590
109	1252
110	342
111	391
112	115
113	53
114	18
117	55
118	72
119	117
120	74
121	137
122	307
123	301
124	1363
125	400
126	459
127	113
129	18
130	64
131	389
132	361
133	846
134	330
135	471
136	223
137	187
138	145
139	45
140	51
141	57
142	14
143	346
144	236
145	387
146	205
147	160
148	86
149	76
156	43
157	86
158	1086
159	822
160	1049
161	652
162	393
163	182
164	68
165	84
167	2918
168	295
169	2621
170	271
171	838
172	240
173	240
174	109
175	100
176	16
179	168
180	55
181	178
182	41
183	76
184	33
187	72
189	45
191	43
193	311
194	1527
195	9999
196	2203
197	9515
198	1207
199	3148
200	600
201	752
202	307
203	262
204	64
205	51
206	125
207	84
208	445
209	96
210	377
211	62
212	119
221	209
222	297
223	213
224	258
225	105
226	96
233	31
234	86
236	8624
237	998
238	7694
239	859
240	2461
241	260
242	297
243	14
269	47
271	2102
272	285
273	2484
274	316
275	1133
276	131
277	264
278	20
279	20
