Mass Spectrum: p-Toluic acid, 2-methylphenyl ester
Formula: C15 H14 O2
CAS: 23597-29-7
Molecular weight: 226
Origin: Zaikin V.G., TIPS RAS, Moscow, Russia
m/z	RELATIVE INTENSITY
28	10
39	40
51	50
63	70
65	350
77	110
78	40
79	30
89	140
90	120
91	1601
92	140
107	70
108	40
118	40
119	9999
120	761
121	40
136	30
226	350
227	50
