Mass Spectrum: 1H-Phenanthro[9,10-d]imidazole
Formula: C15 H10 N2
CAS: 236-02-2
Molecular weight: 218
m/z	RELATIVE INTENSITY
63	200
163	1001
164	801
165	200
188	300
189	200
190	2102
191	400
217	500
218	9999
219	1501
