Mass Spectrum: Benfluorex
Formula: C19 H20 F3 N O2
CAS: 23602-78-0
Molecular weight: 351
Origin: NIST Mass Spectrometry Data Center, 1998.
m/z	RELATIVE INTENSITY
15	10
26	10
27	70
28	290
29	110
30	390
31	10
38	10
39	140
40	20
41	350
42	630
43	220
44	260
45	30
49	10
50	170
51	670
52	60
53	30
54	120
55	70
56	660
57	440
58	80
59	10
62	20
63	70
64	20
65	40
66	10
67	10
68	110
69	180
70	1880
71	110
72	50
73	10
74	40
75	80
76	160
77	2880
78	230
79	40
80	10
81	10
82	10
83	50
84	10
86	20
87	10
88	20
89	110
90	60
91	120
92	20
93	10
94	10
95	30
96	60
99	30
100	10
101	30
102	30
103	50
104	10
105	9999
106	780
107	70
108	20
109	570
110	40
113	30
114	40
115	140
116	70
117	140
118	20
119	190
120	40
121	10
122	80
123	20
125	20
126	10
127	80
128	20
129	10
130	20
131	10
132	20
133	80
134	10
135	10
137	20
138	30
139	70
140	70
141	20
143	10
144	10
145	60
146	30
147	30
148	130
149	4330
150	430
151	120
152	20
153	40
154	10
157	10
158	40
159	2220
160	200
161	10
163	10
164	40
165	60
166	20
167	30
168	10
169	20
171	20
172	40
173	10
177	10
178	10
179	10
180	10
182	10
183	10
184	10
185	20
186	40
187	240
188	70
189	10
190	20
191	10
192	7829
193	980
194	90
195	10
196	10
198	30
199	10
200	30
201	10
202	10
208	40
209	10
210	50
211	10
212	20
213	10
214	50
215	10
216	520
217	60
227	10
228	20
230	10
332	10
336	20
350	10
