Mass Spectrum: trans-2-Phenyl-1-cyclohexanol
Formula: C12 H16 O
CAS: 2362-61-0
Molecular weight: 176
Origin: Japan AIST/NIMC Database- Spectrum MS-NW-8911
m/z	RELATIVE INTENSITY
15	20
17	30
18	109
26	20
27	529
28	159
29	559
30	30
31	159
32	10
38	20
39	729
40	80
41	1019
42	119
43	449
44	299
45	30
46	10
50	119
51	609
52	189
53	249
54	80
55	509
56	60
57	2129
58	119
59	10
62	50
63	279
64	129
65	849
66	339
67	979
68	99
69	119
70	299
71	1039
72	60
74	40
75	70
76	119
77	1289
78	1319
79	789
80	399
81	80
82	10
83	169
84	309
85	1049
86	60
87	20
88	10
89	279
90	119
91	9999
92	4469
93	359
94	60
95	10
96	10
97	70
98	1859
99	129
100	10
101	30
102	209
103	959
104	4399
105	1859
106	209
107	169
108	20
113	10
114	20
115	1419
116	439
117	4049
118	549
119	139
120	349
121	40
126	10
127	149
128	479
129	2379
130	4219
131	749
132	1299
133	789
134	109
135	10
139	10
141	60
142	70
143	1149
144	149
145	129
146	20
147	40
148	99
149	10
152	10
153	10
154	10
155	10
156	10
157	189
158	1279
159	189
160	20
174	10
175	60
176	6069
177	809
178	60
