Mass Spectrum: Thianthrene, 5-oxide
Formula: C12 H8 O S2
CAS: 2362-50-7
Molecular weight: 232
Origin: J.HEISS THE UNIVERSITY, TUBINGEN, W. GERMANY
m/z	RELATIVE INTENSITY
37	150
38	400
39	800
45	800
50	800
51	450
52	150
58	300
61	100
62	350
63	950
64	300
65	100
69	1950
70	350
71	200
74	450
75	400
77	200
79	300
81	250
82	600
89	200
91	200
92	250
95	450
96	400
108	600
138	200
139	1400
140	300
151	200
152	650
158	300
169	100
170	150
171	1400
172	350
173	100
182	200
183	400
184	9999
185	1500
186	600
203	1900
204	350
205	200
214	100
215	100
216	1400
217	250
218	150
232	2150
233	300
234	200
