Mass Spectrum: Benzenamine, N-[(4-methylphenyl)methylene]-
Formula: C14 H13 N
CAS: 2362-77-8
Molecular weight: 195
m/z	RELATIVE INTENSITY
37	165
38	472
39	2736
40	283
41	141
50	1344
51	6131
52	896
53	47
62	424
63	1132
64	236
65	1698
66	330
74	236
75	377
76	542
77	9504
78	1273
79	165
89	896
90	707
91	2547
92	707
93	236
95	141
96	118
101	118
102	189
103	283
104	1132
105	165
115	307
116	943
117	472
118	1604
119	283
127	47
128	189
129	118
151	189
152	424
153	236
154	94
164	71
165	637
166	165
167	472
168	165
177	283
178	2830
179	1061
180	637
181	165
191	47
192	236
193	566
194	9999
195	9079
196	1415
197	283
