Mass Spectrum: L-Phenylalanine, N-(trifluoroacetyl)-, methyl ester
Formula: C12 H12 F3 N O3
CAS: 23635-30-5
Molecular weight: 275
Origin: KC70-118
m/z	RELATIVE INTENSITY
65	5909
69	4363
77	3636
91	9999
97	576
103	2394
119	1212
129	424
131	3091
146	303
150	152
161	939
162	9575
175	152
177	152
178	394
184	242
198	333
200	152
216	1212
244	182
250	152
275	152
