Mass Spectrum: Acetic acid, mercapto-, methyl ester
Formula: C3 H6 O2 S
CAS: 2365-48-2
Molecular weight: 106
Origin: Japan AIST/NIMC Database- Spectrum MS-NW-5854
m/z	RELATIVE INTENSITY
12	20
13	80
14	399
15	2789
16	40
17	30
18	99
25	10
26	30
27	99
28	369
29	679
30	109
31	389
32	129
33	469
34	119
35	50
36	10
40	10
41	109
42	1419
43	369
44	359
45	2509
46	3369
47	9999
48	409
49	499
51	20
57	30
58	50
59	3179
60	149
61	199
62	10
63	80
64	40
71	10
72	30
73	70
74	6919
75	1349
76	369
77	119
78	99
79	10
84	20
86	20
87	10
88	20
89	10
91	109
92	20
93	20
103	10
104	50
105	60
106	6219
107	309
108	309
109	20
