Mass Spectrum: 1,2,4-Trithiolane, 3,5-dimethyl-
Formula: C4 H8 S3
CAS: 23654-92-4
Molecular weight: 152
Origin: MASS SPECTRA OF ORGANIC COMPOUNDS, V. 5, B. H. KENNETT ET AL, DIV. OF FOOD RESEARCH, CSIRO, AUSTRALIA
m/z	RELATIVE INTENSITY
25	300
26	1100
27	2400
29	1500
30	100
31	300
33	300
34	500
35	200
39	300
41	300
42	200
43	600
45	5700
46	400
47	500
48	100
53	200
54	600
55	2500
56	300
57	1400
58	3200
59	9999
60	7100
61	1700
62	300
64	4100
65	200
66	500
69	100
70	100
71	100
73	600
75	100
76	200
77	200
84	100
85	300
86	200
87	1200
88	4500
89	300
90	200
91	100
92	4900
93	600
94	400
97	100
103	300
118	100
124	100
146	100
152	7000
153	500
154	1000
155	100
