Mass Spectrum: Butane, 1-fluoro-
Formula: C4 H9 F
CAS: 2366-52-1
Molecular weight: 76
m/z	RELATIVE INTENSITY
2	150
13	130
14	340
15	1101
16	40
17	50
18	150
19	20
24	20
25	150
26	1601
27	8117
28	5765
29	5545
30	170
31	250
32	120
33	1732
34	20
35	10
36	40
37	310
38	510
39	2843
40	561
41	9288
42	731
43	9999
44	420
45	410
46	821
47	1551
48	130
49	90
50	280
51	310
52	60
53	220
54	140
55	1031
56	7006
57	540
58	60
59	1031
60	150
61	320
62	10
68	20
69	30
70	30
71	20
72	20
73	50
74	20
75	60
76	10
