Mass Spectrum: 1-Bromo-2,4,6-trifluorobenzene
Formula: C6 H2 Br F3
CAS: 2367-76-2
Molecular weight: 210
Origin: Chuck Anderson, Aldrich Chemical Co.
m/z	RELATIVE INTENSITY
12	6
13	3
19	6
20	2
24	16
25	24
26	16
28	11
31	2053
32	39
33	7
36	148
37	730
38	139
39	4
40	1
43	13
44	67
45	15
48	32
49	91
50	163
51	55
55	118
56	302
57	243
58	10
60	98
61	915
62	821
63	48
64	1
65	32
67	40
68	510
69	62
70	4
72	28
73	86
74	255
75	399
76	15
79	481
80	833
81	7604
82	399
83	11
84	5
86	328
87	293
88	36
89	3
91	69
92	404
93	199
94	13
95	18
96	21
98	72
99	674
100	128
101	7
103	5
104	6
105	751
106	739
110	129
111	463
112	751
113	52
115	18
116	30
117	27
118	30
119	16
122	26
124	25
125	6
127	4
128	22
129	92
130	774
131	8027
132	451
133	13
134	20
135	81
136	21
137	78
139	11
140	23
141	44
142	23
143	35
144	5
146	33
147	5
148	33
149	6
150	2
153	42
154	4
155	41
159	75
160	8
161	77
162	8
166	18
167	3
168	17
172	5
174	3
177	8
179	148
180	6
181	137
182	9
186	6
190	26
191	50
192	28
193	49
194	4
201	2
205	1
209	25
210	9999
211	525
212	9623
213	607
214	18
215	1
