Mass Spectrum: Benzoic acid, 4-ethoxy-, ethyl ester
Formula: C11 H14 O3
CAS: 23676-09-7
Molecular weight: 194
Origin: Chuck Anderson, Aldrich Chemical Co.
m/z	RELATIVE INTENSITY
14	7
15	36
16	6
19	7
25	13
26	122
27	916
28	163
29	1510
30	51
31	19
32	5
36	5
37	30
38	172
39	715
40	40
41	31
42	19
43	81
44	22
45	113
46	12
49	6
50	236
51	122
52	32
53	180
54	20
55	44
57	6
59	6
60	12
61	19
62	95
63	412
64	333
65	1353
66	135
67	46
68	7
69	13
71	5
73	10
74	96
75	154
76	268
77	215
78	46
79	46
80	13
81	165
82	34
83	5
89	12
90	7
91	175
92	521
93	1450
94	212
95	36
96	6
102	11
103	174
104	125
105	54
106	9
107	57
108	16
109	162
110	70
111	8
118	5
119	51
120	188
121	9999
122	1152
123	118
124	12
131	6
133	16
135	12
137	59
138	2936
139	230
140	30
147	68
148	24
149	5800
150	770
151	376
152	34
153	6
165	115
166	1437
167	142
168	18
175	8
177	5
179	98
180	13
192	6
193	79
194	2718
195	313
196	37
197	5
