Mass Spectrum: 2,6-Dimethoxyamphetamine
Formula: C11 H17 N O2
CAS: 23690-14-4
Molecular weight: 195
Origin: Finnigan MAT: Toxicological Library (LIBR-TX)
m/z	RELATIVE INTENSITY
44	9999
45	315
56	426
65	431
77	534
78	269
79	189
91	1353
92	146
93	267
105	165
106	254
107	242
121	431
122	122
123	155
133	61
137	237
151	771
152	4435
153	444
176	305
177	36
180	96
195	68
196	38
