Mass Spectrum: 1-Decanol, 2,2-dimethyl-
Formula: C12 H26 O
CAS: 2370-15-2
Molecular weight: 186
Origin: M.C. HAMMING CONTINENTAL OIL CO., PONCA CITY, OKLA, USA
m/z	RELATIVE INTENSITY
14	20
15	146
16	13
17	13
18	34
19	27
26	181
27	2740
28	641
29	3960
30	125
31	1304
32	48
33	34
37	20
38	48
39	1408
40	285
41	5306
42	808
43	7733
44	292
45	529
46	13
50	27
51	76
52	41
53	432
54	181
55	3570
56	1966
57	9999
58	516
59	153
63	20
65	55
66	34
67	258
68	146
69	2112
70	871
71	5334
72	516
73	892
74	48
77	48
78	13
79	48
80	13
81	118
82	90
83	969
84	320
85	4009
86	271
87	55
88	397
89	27
91	20
93	13
94	6
95	55
96	69
97	578
98	320
99	1513
100	118
101	55
102	20
103	6
109	27
110	34
111	264
112	146
113	662
114	62
115	34
116	13
117	6
123	13
124	13
125	90
126	188
127	251
128	27
129	34
130	13
131	6
138	13
139	118
140	55
141	97
142	13
143	97
144	209
145	27
153	27
154	1087
155	3235
156	376
157	48
158	13
167	13
168	34
169	55
170	13
171	55
172	20
173	20
185	13
