Mass Spectrum: 1-Octanol, 2,2-dimethyl-
Formula: C10 H22 O
CAS: 2370-14-1
Molecular weight: 158
Origin: M.C. HAMMING CONTINENTAL OIL CO., PONCA CITY, OKLA, USA
m/z	RELATIVE INTENSITY
12	7
13	7
14	29
15	230
16	14
17	59
18	193
19	37
25	14
26	252
27	3583
28	736
29	4431
30	156
31	2014
32	52
33	22
36	7
37	37
38	81
39	1836
40	364
41	5464
42	780
43	9999
44	379
45	728
46	22
47	7
49	7
50	44
51	111
52	59
53	475
54	148
55	4535
56	1985
57	8267
58	431
59	171
60	7
62	7
63	22
64	7
65	59
66	29
67	208
68	141
69	1955
70	780
71	7947
72	624
73	1033
74	52
75	7
77	44
78	14
79	44
80	14
81	74
82	66
83	736
84	304
85	4661
86	312
87	37
88	118
89	7
91	14
93	7
95	22
96	22
97	260
98	237
99	178
100	22
101	29
102	7
109	14
110	22
111	282
112	74
113	81
114	14
115	66
116	7
117	7
123	7
124	7
125	44
126	1315
127	3776
128	364
129	29
130	7
138	7
139	7
140	37
141	59
142	14
143	44
144	59
145	7
153	7
154	14
155	44
156	7
157	14
158	7
