Mass Spectrum: 2-Heptanone, 3-methyl-
Formula: C8 H16 O
CAS: 2371-19-9
Molecular weight: 128
Origin: CONTINENTAL OIL CO., PONCA CITY, OKLA, USA
m/z	RELATIVE INTENSITY
13	21
14	139
15	969
16	27
17	24
18	78
25	7
26	167
27	1692
28	443
29	1372
30	34
31	26
32	3
37	25
38	70
39	920
40	161
41	1615
42	552
43	9999
44	309
45	76
49	5
50	42
51	74
52	29
53	153
54	60
55	592
56	288
57	1083
58	97
59	14
60	2
61	3
62	5
63	12
64	3
65	19
66	9
67	55
68	18
69	169
70	28
71	389
72	4048
73	224
74	16
77	14
78	7
79	11
80	3
81	16
82	9
83	24
84	103
85	739
86	78
87	7
91	4
95	10
96	3
97	7
98	4
99	152
100	14
109	5
110	2
111	6
112	2
113	16
114	2
126	5
127	1
128	90
129	9
