Mass Spectrum: 2-Buten-1-one, 1-(2,6,6-trimethyl-1,3-cyclohexadien-1-yl)-, (E)-
Formula: C13 H18 O
CAS: 23726-93-4
Molecular weight: 190
m/z	RELATIVE INTENSITY
27	126
29	109
39	1000
40	140
41	2060
42	100
43	200
44	140
51	270
52	100
53	320
55	250
63	140
65	350
66	80
67	130
69	9999
70	480
77	800
78	180
79	670
80	100
81	100
91	1000
92	90
93	320
103	230
105	1800
106	160
115	140
117	70
119	400
120	900
121	6000
122	600
128	60
129	60
131	100
133	180
142	70
145	80
147	160
149	170
157	100
159	40
161	80
175	650
176	80
190	1600
191	230
