Mass Spectrum: Chloromethylmethyl sulfide
Formula: C2 H5 Cl S
CAS: 2373-51-5
Molecular weight: 96
Origin: NIST Mass Spectrometry Data Center
m/z	RELATIVE INTENSITY
12	10
13	40
14	120
15	200
26	30
27	1712
32	110
33	60
34	40
35	1732
36	40
37	110
38	10
44	430
45	4084
46	2512
47	981
48	320
49	941
50	70
51	270
56	30
57	190
58	260
59	460
60	80
61	9999
62	370
63	480
64	10
67	10
79	110
80	70
81	220
82	30
83	60
95	80
96	4404
97	180
98	1661
99	50
100	60
