Mass Spectrum: S-Methyl 3-methylbutanethioate
Formula: C6 H12 O S
CAS: 23747-45-7
Molecular weight: 132
Origin: J. MADSEN,DEP. ORG. CHEM.,TECH. UNIV. DENMARK,LYNGBY,DENMARK
m/z	RELATIVE INTENSITY
29	3600
39	1100
41	4600
43	2500
47	900
57	9999
75	1700
85	7800
117	200
132	300
