Mass Spectrum: N-(n-Propyl)-1,3-propanediamine
Formula: C6 H16 N2
CAS: 23764-31-0
Molecular weight: 116
Origin: Chuck Anderson, Aldrich Chemical Co.
m/z	RELATIVE INTENSITY
15	127
17	35
18	452
26	118
27	1209
28	2051
29	656
30	9999
31	272
32	19
38	22
39	460
40	90
41	1842
42	1305
43	1962
44	9870
45	536
52	19
54	122
55	50
56	1562
57	1001
58	1121
59	228
60	817
61	20
67	30
68	118
69	22
70	3076
71	318
72	5512
73	356
74	45
82	5
84	769
85	103
86	348
87	1394
88	70
98	104
99	3397
100	236
116	110
117	26
