Mass Spectrum: Silane, methoxydimethyl(pentafluorophenyl)-
Formula: C9 H9 F5 O Si
CAS: 23761-74-2
Molecular weight: 256
Origin: J.M. MILLER,BROCK UNIVERSITY,ONTARIO,CANADA
m/z	RELATIVE INTENSITY
49	620
51	250
57	410
58	210
59	970
63	3850
64	290
65	250
69	210
75	840
77	2080
78	170
79	1190
80	340
81	2310
82	160
85	770
89	850
93	7690
94	850
95	460
96	470
97	280
98	370
99	550
101	1010
107	950
110	320
111	990
113	1210
117	350
120	1390
125	890
129	890
132	260
141	440
143	360
145	4390
146	440
147	2200
148	270
159	310
161	310
163	1620
164	150
165	150
168	390
179	250
185	490
191	260
198	270
207	220
209	320
211	190
225	340
226	1420
227	350
241	9999
242	1710
243	530
244	340
245	320
256	2770
257	460
258	150
