Mass Spectrum: Hexaborane
Formula: B6 H10
CAS: 23777-80-2
Molecular weight: 76
Origin: CCC 0009
m/z	RELATIVE INTENSITY
10	470
11	1742
12	490
13	1271
14	40
20	10
21	20
22	50
23	110
24	170
25	100
26	80
27	170
28	340
29	50
30	10
31	10
32	50
33	50
34	420
35	510
36	310
37	140
38	50
39	160
40	40
41	280
42	120
43	390
44	611
45	891
46	1101
47	1011
48	540
49	190
50	20
51	40
52	160
53	661
54	1611
55	2402
56	2642
57	2943
58	3113
59	2823
60	1491
61	330
62	250
63	230
64	811
65	2152
66	3573
67	4064
68	4234
69	5605
70	7857
71	9999
72	8458
73	4874
74	4824
75	3523
76	2312
77	10
