Mass Spectrum: Octadecanoic acid, 12-oxo-, methyl ester
Formula: C19 H36 O3
CAS: 2380-27-0
Molecular weight: 312
Origin: R RYHAGE MS-LAB KAROLINSKA INSTITUTET STOCKHOLM SWEDEN
m/z	RELATIVE INTENSITY
15	170
17	300
18	1270
19	130
26	140
27	840
28	610
29	1250
30	90
31	230
32	80
38	70
39	750
40	230
41	5420
42	1150
43	9999
44	600
45	330
50	60
51	60
53	290
54	370
55	520
56	840
57	2690
58	2890
59	2130
60	100
65	80
66	60
67	1070
68	820
69	3050
70	840
71	2570
72	490
73	330
74	1660
75	200
76	70
77	90
79	270
80	110
81	1020
82	410
83	1970
84	1020
85	2810
86	520
87	1110
88	120
91	90
93	360
94	170
95	840
96	530
97	1250
98	2730
99	520
100	210
101	230
102	50
104	80
105	70
107	230
108	210
109	410
110	440
111	880
112	2590
113	3330
114	410
115	170
116	50
121	150
122	80
123	220
124	210
125	540
126	270
127	130
128	2800
129	990
130	100
132	50
133	100
134	260
135	710
136	110
137	80
138	50
139	160
140	70
141	520
142	100
143	240
144	50
149	990
150	210
151	90
152	1230
153	1670
154	300
155	140
156	50
157	60
159	100
163	50
166	60
167	580
168	190
169	110
172	140
173	60
178	70
183	100
184	60
185	470
186	880
187	150
192	110
195	250
196	50
199	80
200	80
202	50
210	240
211	70
223	160
224	140
227	710
228	110
239	180
242	1040
243	200
255	80
278	90
280	490
281	110
312	140
313	50
