Mass Spectrum: Hinesol
Formula: C15 H26 O
CAS: 23811-08-7
Molecular weight: 222
Origin: C. IWATA, FAC. PHARM. SCI., OSAKA UNIV., SUITA, OSAKA, JAPAN
m/z	RELATIVE INTENSITY
39	962
41	3423
42	482
43	3448
53	883
55	2767
56	658
57	1725
59	7641
65	569
67	1868
69	1586
71	882
77	1248
79	2133
80	486
81	2560
82	725
83	1096
85	546
91	2752
92	711
93	4025
94	1330
95	2586
96	647
97	701
105	3555
106	1089
107	4118
108	1871
109	1304
119	6272
120	2437
121	3475
122	1841
123	1330
125	478
133	2289
134	1193
135	2945
136	1015
137	597
147	3873
148	1663
149	1783
161	9999
162	4029
163	1083
175	1503
176	629
189	3192
190	561
204	4597
205	905
222	881
