Mass Spectrum: Dehydromevalonic lactone
Formula: C6 H8 O2
CAS: 2381-87-5
Molecular weight: 112
Origin: NIST Mass Spectrometry Data Center
m/z	RELATIVE INTENSITY
25	10
26	150
27	671
28	310
29	530
30	80
36	30
37	370
38	781
39	4104
40	370
42	350
44	60
48	20
49	170
50	871
51	941
52	440
53	1822
54	3643
55	981
56	100
61	90
62	120
63	90
66	120
67	711
82	9999
83	741
84	70
112	3944
113	270
114	30
