Mass Spectrum: Benz[a]anthracene, 8-methyl-
Formula: C19 H14
CAS: 2381-31-9
Molecular weight: 242
m/z	RELATIVE INTENSITY
12	40
13	10
15	50
16	70
17	100
18	340
19	20
20	10
21	10
22	10
23	10
24	10
25	10
26	40
27	180
29	70
30	10
31	10
33	10
34	10
35	10
36	10
37	10
38	30
39	120
40	140
41	30
42	20
43	20
44	120
45	10
46	10
47	10
48	10
49	10
50	50
51	70
52	20
53	10
54	10
55	20
56	20
57	20
58	10
59	10
60	10
61	10
62	50
63	120
64	20
65	20
66	10
67	10
68	10
69	20
70	10
71	20
72	10
73	10
74	80
75	70
76	30
77	30
78	10
79	30
80	20
81	40
82	20
83	10
84	10
85	10
86	50
87	90
88	10
89	20
90	10
91	10
92	10
93	40
94	130
95	100
97	10
98	40
99	50
100	10
101	10
102	10
103	10
104	10
105	40
106	170
107	240
108	280
109	10
110	20
111	60
112	110
113	260
114	20
115	20
116	10
117	20
118	120
119	320
120	430
121	1271
122	60
123	20
124	10
125	10
126	30
127	10
128	10
129	10
130	10
131	10
132	10
133	10
134	20
135	20
136	10
137	20
138	10
139	50
140	10
141	10
142	10
143	10
144	10
145	10
146	10
147	10
148	10
149	20
150	60
151	40
152	30
153	10
154	10
155	10
156	10
157	10
158	10
159	10
160	10
161	20
162	20
163	80
164	20
165	40
166	10
167	10
168	10
169	10
170	10
171	10
172	10
173	10
174	50
175	30
176	70
177	20
178	10
179	10
180	10
181	10
182	10
183	10
184	10
185	20
186	30
187	130
188	60
189	140
190	30
191	10
192	10
193	10
194	10
195	10
196	10
197	10
198	30
199	30
200	120
201	50
202	130
203	30
204	10
205	10
206	10
207	10
208	10
209	10
210	10
211	100
212	60
213	300
214	80
215	490
216	100
217	10
218	10
219	10
220	10
221	10
222	20
223	30
224	130
225	80
226	510
227	120
228	30
229	10
230	10
231	10
232	10
233	10
234	10
235	50
236	60
237	350
238	220
239	1772
240	761
241	220
242	9999
243	2112
244	220
245	20
