Mass Spectrum: Benzo[c]phenanthrene, 6-methyl-
Formula: C19 H14
CAS: 2381-34-2
Molecular weight: 242
m/z	RELATIVE INTENSITY
37	20
38	40
39	270
40	20
41	50
42	10
43	30
44	50
49	10
50	130
51	140
52	30
53	10
55	20
56	20
57	20
60	10
61	20
62	90
63	190
64	20
65	20
66	10
71	20
72	10
73	10
74	110
75	110
76	40
77	40
78	10
79	50
80	30
81	20
82	20
83	20
84	10
85	20
86	100
87	160
88	70
89	40
90	10
93	40
94	100
95	80
96	10
97	10
98	100
99	90
100	150
101	110
102	20
103	10
104	10
105	40
106	150
107	180
108	170
109	20
110	50
111	70
112	200
113	911
114	90
115	30
116	10
117	20
118	160
119	500
120	901
121	591
122	50
123	30
124	20
125	20
126	40
127	20
128	10
134	20
135	20
136	10
137	30
138	20
139	50
140	10
146	20
147	10
149	20
150	70
151	40
152	30
153	10
161	30
162	30
163	90
164	30
165	40
166	10
174	50
175	40
176	50
177	10
185	30
186	40
187	140
188	60
189	140
190	30
191	10
198	30
199	40
200	110
201	50
202	110
203	40
204	10
211	110
212	50
213	320
214	80
215	561
216	120
217	10
222	20
223	30
224	210
225	180
226	1762
227	1131
228	250
229	70
230	10
235	60
236	50
237	440
238	170
239	1942
240	671
241	1631
242	9999
243	2022
244	220
245	20
246	10
