Mass Spectrum: Benz[a]anthracene, 9-methyl-
Formula: C19 H14
CAS: 2381-16-0
Molecular weight: 242
m/z	RELATIVE INTENSITY
35	20
36	40
37	20
38	60
39	230
40	380
41	140
42	20
43	70
44	100
45	100
47	10
49	10
50	120
51	130
52	40
53	10
54	10
55	40
56	60
57	160
58	20
59	30
60	10
61	20
62	70
63	140
64	20
65	20
67	10
68	10
69	10
70	10
71	30
72	10
73	20
74	90
75	90
76	40
77	50
78	120
79	40
80	20
81	30
82	20
83	10
85	30
86	90
87	130
88	60
89	40
90	10
91	20
92	10
93	30
94	100
95	70
97	10
98	70
99	60
100	90
101	40
102	10
103	20
105	40
106	130
107	180
108	230
109	10
110	40
111	50
112	90
113	230
114	20
115	20
117	40
118	80
119	220
120	310
121	1171
122	50
123	20
124	10
125	10
126	30
127	10
128	10
133	10
134	20
135	20
136	10
137	20
138	10
139	40
140	10
141	10
146	10
147	10
149	20
150	60
151	40
152	30
153	10
161	20
162	20
163	80
164	20
165	40
166	10
168	10
169	10
173	10
174	50
175	30
176	60
177	10
178	10
185	20
186	30
187	110
188	50
189	140
190	30
191	20
192	10
193	10
194	10
195	10
196	10
197	10
198	10
199	10
200	50
201	20
202	50
203	30
205	10
206	10
207	10
209	10
210	10
211	80
212	40
213	270
214	60
215	450
216	90
217	10
219	40
220	10
221	10
222	10
223	10
224	120
225	70
226	510
227	110
228	30
229	10
234	30
235	30
236	20
237	260
238	100
239	1481
240	440
241	1782
242	9999
243	2042
244	200
245	20
