Mass Spectrum: 3-Decyne
Formula: C10 H18
CAS: 2384-85-2
Molecular weight: 138
Origin: S.A. Rang et al., IR & MS of Unsatd. Hydrocarbons, 1977
m/z	RELATIVE INTENSITY
15	48
25	12
26	150
27	2320
28	125
29	2382
30	58
31	5
37	22
38	107
39	2508
40	815
41	6364
42	1191
43	4075
44	116
45	17
49	5
50	138
51	508
52	458
53	1944
54	813
55	3511
56	559
57	178
58	24
59	5
60	12
61	7
62	36
63	178
64	61
65	729
66	932
67	9999
68	4389
69	1944
70	263
71	99
72	19
73	7
74	10
75	29
76	10
77	525
78	126
79	940
80	212
81	2759
82	1567
83	263
84	56
85	56
86	10
89	7
91	203
92	24
93	220
94	111
95	3260
96	940
97	121
98	12
99	5
102	5
103	7
105	20
106	5
107	78
108	59
109	6182
110	627
111	32
119	5
121	7
123	162
124	19
125	7
135	27
137	53
138	104
139	12
