Mass Spectrum: 4-Decyne
Formula: C10 H18
CAS: 2384-86-3
Molecular weight: 138
Origin: NIST Mass Spectrometry Data Center, 1990.
m/z	RELATIVE INTENSITY
15	50
26	188
27	1941
28	244
29	1905
30	45
39	2265
40	280
41	3873
42	424
43	557
44	72
50	357
51	891
52	980
53	1780
54	2471
55	3257
56	377
57	262
62	82
63	254
64	72
65	872
66	72
67	9999
68	1141
69	301
70	52
74	40
75	31
77	835
78	193
79	1342
80	371
81	3581
82	959
83	191
91	262
92	41
93	254
94	41
95	2970
96	974
97	85
107	57
109	1131
110	138
123	113
138	169
