Mass Spectrum: Mirex
Formula: C10 Cl12
CAS: 2385-85-5
Molecular weight: 540
Origin: Richard Turcotte. Direction des laboratoires d'expertises et d'analyses alimentaires, Quebec, Canada.
m/z	RELATIVE INTENSITY
60	40
71	60
73	20
82	30
83	40
84	110
85	20
94	70
95	280
96	160
97	70
106	120
107	80
108	130
109	30
112	90
113	60
114	30
117	400
118	150
119	520
120	230
121	190
123	20
130	400
131	280
132	270
133	60
134	30
141	581
142	200
143	651
144	140
145	210
146	30
147	70
148	150
149	100
150	20
153	70
154	170
155	150
156	110
157	40
165	550
166	641
167	691
168	300
169	160
170	30
177	20
178	70
179	30
180	50
181	20
182	20
183	30
184	30
188	50
189	60
190	320
191	100
192	210
193	40
194	40
200	160
201	450
202	460
203	370
204	130
205	40
212	20
213	40
214	40
215	50
216	20
217	20
225	100
226	20
227	100
228	20
229	30
235	2973
236	260
237	4864
238	460
239	3123
240	260
241	1011
242	80
243	160
249	40
251	30
253	20
259	40
260	300
261	110
262	400
263	90
264	200
265	40
266	40
270	5185
271	110
272	9999
273	661
274	7947
275	500
276	3413
277	210
278	821
279	50
280	110
282	30
283	100
284	60
285	170
286	60
287	110
288	30
289	40
295	60
296	20
297	100
298	40
299	70
300	20
301	20
306	120
307	30
308	230
309	40
310	190
311	20
312	80
314	20
318	40
320	70
322	60
324	20
330	601
331	40
332	1161
333	130
334	961
335	110
336	410
337	40
338	110
353	180
355	410
356	30
357	390
358	40
359	220
361	70
365	50
367	110
368	30
369	120
370	30
371	70
372	20
392	20
400	200
402	500
403	40
404	550
405	60
406	360
407	40
408	150
410	40
435	20
437	70
439	80
441	60
443	30
