Mass Spectrum: Furethidine
Formula: C21 H31 N O4
CAS: 2385-81-1
Molecular weight: 361
Origin: HOME OFFICE, CENTRAL RES. EST., ALDERMASTON, BERKS., U.K.
m/z	RELATIVE INTENSITY
39	200
41	500
42	1400
43	1000
44	200
55	200
56	400
57	400
59	100
70	200
71	1000
72	300
85	100
91	400
99	100
103	300
115	300
117	100
129	200
131	200
158	300
172	300
174	100
218	200
232	400
233	200
246	9999
247	1700
248	100
288	100
