Mass Spectrum: Vinylsulfonamide
Formula: C2 H5 N O2 S
CAS: 2386-58-5
Molecular weight: 107
Origin: NIST Mass Spectrometry Data Center, 1994
m/z	RELATIVE INTENSITY
14	152
15	291
16	1437
17	2108
18	57
24	97
25	468
26	2703
27	9999
28	575
30	291
32	943
33	127
40	84
41	161
42	1724
43	7331
44	1576
45	163
46	1224
47	783
48	2274
49	504
50	164
56	115
57	384
58	368
63	394
64	6425
65	1660
66	360
80	1191
81	112
91	1320
