Mass Spectrum: 1-Butanesulfonyl chloride
Formula: C4 H9 Cl O2 S
CAS: 2386-60-9
Molecular weight: 156
Origin: RADIAN CORP
m/z	RELATIVE INTENSITY
15	50
26	360
27	1880
29	2330
30	50
33	10
35	90
36	10
37	100
38	200
39	2320
40	310
41	7310
42	440
43	120
45	190
46	60
47	40
48	690
49	80
50	260
51	260
52	60
53	330
54	130
55	1510
56	3080
57	9999
58	520
59	60
60	20
61	20
62	20
63	150
64	620
65	370
66	50
67	30
69	30
71	20
75	10
77	20
78	10
79	50
81	10
83	250
85	100
87	10
89	10
91	20
93	20
99	380
101	160
103	20
113	10
114	50
116	20
121	110
127	20
157	20
