Mass Spectrum: Ethanedione, diphenyl-, dioxime
Formula: C14 H12 N2 O2
CAS: 23873-81-6
Molecular weight: 240
Origin: ORMSBG,9(10)1022(1974); LANGE
m/z	RELATIVE INTENSITY
51	2800
63	1400
64	700
76	5000
77	4000
89	3900
94	500
95	700
96	500
97	300
103	7900
104	900
105	500
115	600
119	2800
129	900
139	400
141	600
152	600
165	2100
166	1200
178	600
180	900
192	5400
193	5100
194	700
205	600
206	400
207	400
222	900
223	700
240	9999
241	900
