Mass Spectrum: Benzene, 1-methoxy-2-(methylthio)-
Formula: C8 H10 O S
CAS: 2388-73-0
Molecular weight: 154
Origin: NIST Mass Spectrometry Data Center
m/z	RELATIVE INTENSITY
14	20
15	190
26	20
27	50
28	10
29	50
30	10
31	10
37	60
38	170
39	410
40	20
41	50
42	10
43	10
45	2202
46	120
47	180
48	60
49	30
50	300
51	530
52	180
53	140
54	10
55	60
56	10
57	40
58	90
59	50
60	10
61	100
62	210
63	611
64	260
65	861
66	120
67	500
68	50
69	781
70	540
71	150
72	50
73	30
74	150
75	90
76	100
77	1892
78	761
79	210
80	20
81	100
82	170
83	60
84	50
85	180
86	10
87	10
89	20
90	10
91	280
92	270
93	410
94	90
95	2472
96	961
97	200
98	50
99	10
104	10
105	160
106	50
107	210
108	400
109	1091
110	190
111	1682
112	130
113	80
114	10
120	10
121	230
122	30
123	150
124	50
125	40
126	10
135	110
136	10
137	571
138	520
139	4554
140	430
141	230
142	20
151	10
154	9999
155	1141
156	591
157	50
