Mass Spectrum: Benzo[b]naphtho[2,1-d]thiophene
Formula: C16 H10 S
CAS: 239-35-0
Molecular weight: 234
Origin: W. RIEPE, INST. SPEKTROCHEM. ANGEW. SPEKTROSC., DORTMUND, GE
m/z	RELATIVE INTENSITY
32	290
39	270
44	230
45	150
50	170
51	210
62	190
63	300
69	250
74	180
75	180
82	140
86	150
87	160
91	180
93	130
94	110
95	110
98	120
99	110
101	130
103	130
104	360
116	300
117	790
118	110
137	120
139	140
150	110
151	110
162	130
163	330
164	120
187	410
188	320
189	960
190	190
200	260
201	160
202	840
203	140
206	110
208	150
215	150
230	170
231	120
232	960
233	530
234	9999
235	1890
236	610
237	110
