Mass Spectrum: 11H-Benzo[a]carbazole
Formula: C16 H11 N
CAS: 239-01-0
Molecular weight: 217
Origin: TRC, TEXAS A&M UNIV., COLLEGE STATION, TEXAS, USA
m/z	RELATIVE INTENSITY
50	59
51	59
52	30
61	19
62	80
63	149
64	30
65	19
67	10
68	10
69	10
74	120
75	120
76	59
77	39
78	10
83	10
85	19
86	100
87	129
88	59
89	80
90	10
97	19
98	80
99	50
100	19
102	19
110	50
111	59
113	30
115	50
116	10
122	30
123	19
124	10
125	19
126	39
127	30
128	19
134	19
135	19
136	19
137	59
138	39
139	89
140	70
141	19
149	19
150	89
151	50
152	30
153	10
161	59
162	80
163	230
164	129
165	109
166	30
167	10
174	10
175	19
176	30
177	39
178	10
185	19
186	39
187	249
188	269
189	650
190	400
191	70
192	10
212	59
213	80
214	679
215	740
216	2539
217	9999
218	1639
219	129
