Mass Spectrum: Glycyl-L-tryptophan
Formula: C13 H15 N3 O3
CAS: 2390-74-1
Molecular weight: 261
Origin: Japan AIST/NIMC Database- Spectrum MS-NW-4474
m/z	RELATIVE INTENSITY
17	139
18	299
27	40
28	269
29	70
30	499
31	10
38	20
39	80
40	10
41	20
42	30
43	10
44	20
50	70
51	139
52	60
53	10
55	10
56	20
57	30
58	10
62	30
63	90
64	30
65	40
70	10
71	10
74	50
75	80
76	90
77	609
78	60
79	10
85	70
86	20
87	10
88	10
89	60
90	50
91	20
101	60
102	229
103	479
104	60
113	20
114	70
115	109
116	40
117	149
118	30
121	10
127	10
128	139
129	289
130	9999
131	1069
132	80
133	10
140	20
141	20
142	50
143	80
144	30
146	10
155	30
156	30
157	50
158	70
159	60
167	10
168	10
169	20
170	40
171	10
185	30
186	10
187	509
188	70
243	529
244	80
261	90
262	10
