Mass Spectrum: Estrone, benzoate
Formula: C25 H26 O3
CAS: 2393-53-5
Molecular weight: 374
Origin: Div. of Experiment Therapeutics WRAIR, WRAMC, Washington DC 20307
m/z	RELATIVE INTENSITY
41	196
43	149
44	9
49	69
51	329
53	102
55	205
57	22
63	10
65	60
67	106
68	9
69	44
77	1662
78	60
79	85
81	64
83	9
84	47
86	38
91	117
93	50
95	39
97	36
105	9999
106	546
107	85
115	167
116	44
117	24
119	18
121	41
127	25
128	116
129	72
130	25
131	30
133	70
139	19
141	56
142	9
143	40
144	10
145	46
146	14
152	25
153	31
154	10
155	40
157	70
158	19
159	10
165	33
167	11
171	19
173	10
181	18
183	19
185	21
270	18
372	37
374	627
375	153
376	21
