Mass Spectrum: Bis(4-chlorophenylthio)methane
Formula: C13 H10 Cl2 S2
CAS: 2393-97-7
Molecular weight: 300
Origin: NIST Mass Spectrometry Data Center, 1994
m/z	RELATIVE INTENSITY
17	60
18	156
35	29
36	52
37	91
38	199
39	387
40	26
45	2515
46	500
47	545
49	89
50	1046
51	700
52	44
57	107
58	183
60	30
61	161
62	238
63	811
64	83
65	59
69	723
70	82
71	93
72	46
73	534
74	255
75	2033
76	368
77	870
78	342
79	127
81	211
82	350
83	63
84	85
85	263
86	50
87	85
89	176
93	80
94	20
95	54
96	40
97	52
98	20
99	558
100	79
101	161
105	53
106	54
107	217
108	1650
109	275
110	123
111	537
112	113
113	264
114	47
115	40
121	1049
122	714
123	123
124	44
125	249
127	77
142	156
143	685
144	190
145	307
146	54
155	225
157	9999
158	884
159	3592
160	330
161	149
300	1677
301	269
302	1267
303	200
304	297
305	45
