Mass Spectrum: Benzenemethanamine, 4-methoxy-
Formula: C8 H11 N O
CAS: 2393-23-9
Molecular weight: 137
Origin: Japan AIST/NIMC Database- Spectrum MS-NW-3438
m/z	RELATIVE INTENSITY
12	10
13	10
14	80
15	749
16	50
17	20
25	20
26	179
27	429
28	2139
29	389
30	2859
31	109
32	30
33	30
34	20
36	30
37	319
38	719
39	1639
40	309
41	719
42	239
43	80
44	109
45	20
46	20
48	30
49	129
50	1079
51	1569
52	779
53	379
54	299
55	139
56	20
57	10
59	10
60	50
61	219
62	519
63	1259
64	879
65	1449
66	1209
67	779
68	139
69	20
73	90
74	349
75	259
76	349
77	2669
78	1939
79	929
80	149
81	99
82	20
84	10
85	20
86	50
87	40
88	30
89	599
90	469
91	1139
92	689
93	1749
94	1839
95	339
96	30
99	10
100	20
102	80
103	189
104	719
105	679
106	4229
107	599
108	829
109	2029
110	159
111	10
115	10
116	10
117	20
118	70
119	489
120	1119
121	5909
122	1369
123	99
132	40
133	459
134	489
135	229
136	9999
137	4899
138	469
139	30
