Mass Spectrum: .beta.-(4-Aminophenyl)propionic acid
Formula: C9 H11 N O2
CAS: 2393-17-1
Molecular weight: 165
Origin: NIST Mass Spectrometry Data Center, 1994
m/z	RELATIVE INTENSITY
14	51
26	51
27	98
28	209
29	38
30	63
31	45
37	40
38	110
39	322
40	91
41	190
42	132
45	183
50	16
52	222
53	209
54	97
59	205
60	108
61	49
62	75
63	111
64	47
65	380
66	194
67	62
74	73
75	13
77	465
78	136
79	448
80	134
89	53
90	29
91	191
92	143
93	208
94	49
103	141
104	182
106	9999
107	745
108	39
117	148
118	414
119	345
120	152
122	105
165	1999
166	195
