Mass Spectrum: Pregn-4-ene-3,20-dione, 19,21-dihydroxy-
Formula: C21 H30 O4
CAS: 2394-23-2
Molecular weight: 346
Origin: DENNIS H SMITH DEPT OF CHEM STANFORD UNIV STANFORD CALIF 9430
m/z	RELATIVE INTENSITY
41	4336
43	1680
51	235
53	1689
55	5185
57	334
65	1111
66	271
67	2204
69	786
75	208
77	2376
78	542
79	2963
80	343
81	2719
83	533
91	4390
92	379
93	2068
94	226
95	2385
96	208
103	352
104	262
105	2339
107	2448
109	1445
110	1201
111	452
115	813
116	397
117	1391
118	361
119	1310
121	912
122	181
123	434
127	190
128	361
129	912
130	397
131	1129
132	190
133	1599
135	2105
141	271
142	217
143	858
144	217
145	1978
146	325
147	2800
148	316
149	677
155	199
157	795
159	2023
160	750
161	2348
162	497
163	253
169	217
171	388
173	1048
174	343
175	488
185	542
187	894
195	325
199	479
201	316
209	208
211	217
213	352
227	190
233	208
241	361
251	741
257	9367
258	1662
269	2981
285	470
287	1563
300	208
315	9999
316	5438
346	1210
347	298
