Mass Spectrum: Bis(4-Chlorophenylsulfonyl)methane
Formula: C13 H10 Cl2 O4 S2
CAS: 2394-02-7
Molecular weight: 364
Origin: NIST Mass Spectrometry Data Center, 1994
m/z	RELATIVE INTENSITY
17	98
18	489
27	139
38	190
39	353
44	218
45	403
48	113
50	1826
51	1040
61	183
62	185
63	727
64	236
69	140
73	469
74	748
75	5038
76	969
77	289
84	133
85	508
86	78
87	267
88	78
89	678
90	224
95	139
99	638
101	221
108	218
111	9999
112	800
113	3160
114	273
115	143
125	4045
126	379
127	1481
131	560
133	233
141	6075
142	566
143	2214
144	230
159	1042
161	403
173	1228
175	6590
176	577
177	2203
178	150
179	115
300	181
302	143
364	166
366	161
