Mass Spectrum: Propyzamide
Formula: C12 H11 Cl2 N O
CAS: 23950-58-5
Molecular weight: 255
Origin: NIST Mass Spectrometry Data Center, 1995
m/z	RELATIVE INTENSITY
26	159
27	515
36	110
37	170
38	328
39	1834
40	529
41	2336
42	1093
43	260
44	315
49	157
50	888
51	710
52	754
53	257
54	127
55	393
56	1382
57	162
61	131
62	154
63	227
64	132
65	689
66	600
67	483
68	268
69	1145
70	107
73	317
74	1287
75	1575
76	264
82	368
83	497
84	2130
85	508
86	247
87	144
90	101
98	107
100	311
101	106
102	131
108	214
109	2212
110	1029
111	827
112	314
120	156
136	254
137	152
138	212
145	3398
146	376
147	2230
148	265
149	358
171	498
172	1239
173	9999
174	1528
175	5974
176	629
177	1161
178	105
179	202
189	200
190	122
191	226
192	268
202	97
212	281
213	179
214	205
215	110
226	262
227	189
228	264
229	169
240	2625
241	352
242	1760
243	200
244	313
254	2176
255	2742
256	1708
257	1814
258	423
259	374
