Mass Spectrum: 3-Hexenoic acid, methyl ester
Formula: C7 H12 O2
CAS: 2396-78-3
Molecular weight: 128
m/z	RELATIVE INTENSITY
17	17
18	49
26	360
27	2833
28	561
29	1301
30	120
31	340
37	110
38	370
39	2833
40	571
41	9999
42	1031
43	1702
44	130
45	240
50	190
51	340
52	170
53	1071
54	581
55	2282
56	210
57	130
59	3163
60	110
65	160
66	80
67	911
68	3803
69	4334
70	280
71	1161
72	90
74	3974
75	190
81	360
82	90
85	220
86	130
87	440
95	100
96	430
97	651
99	100
113	370
128	1231
129	130
