Mass Spectrum: 2,4-Hexadienoic acid, ethyl ester, (2E,4E)-
Formula: C8 H12 O2
CAS: 2396-84-1
Molecular weight: 140
Origin: Japan AIST/NIMC Database- Spectrum MS-NW-1108
m/z	RELATIVE INTENSITY
14	40
15	199
16	10
17	10
18	30
25	10
26	249
27	1579
28	539
29	1949
30	50
31	99
32	119
33	10
37	90
38	339
39	3309
40	789
41	4709
42	219
43	899
44	60
45	229
46	10
47	40
49	10
50	159
51	389
52	229
53	279
54	139
55	489
56	119
57	90
58	129
59	10
60	10
61	50
62	109
63	259
64	90
65	1349
66	2019
67	9429
68	909
69	399
70	109
71	90
72	10
73	20
77	70
78	20
79	109
80	30
81	309
82	70
83	439
84	419
85	30
86	60
91	40
92	20
93	169
94	339
95	9999
96	799
97	6909
98	409
99	80
101	20
105	40
107	20
110	20
111	839
112	1109
113	80
114	10
119	20
121	20
125	3159
126	259
127	30
137	10
139	80
140	4779
141	469
142	40
