Mass Spectrum: 1,8-Nonadiyne
Formula: C9 H12
CAS: 2396-65-8
Molecular weight: 120
Origin: NIST Mass Spectrometry Data Center, 1990.
m/z	RELATIVE INTENSITY
14	47
25	38
26	255
27	1517
28	123
29	302
37	294
38	865
39	4734
40	812
41	2702
42	190
44	57
49	117
50	1191
51	2111
52	1150
53	3659
54	575
55	832
56	42
61	112
62	274
63	619
64	161
65	1521
66	1004
67	911
68	369
73	31
74	168
75	84
76	31
77	3346
78	1869
79	5960
80	865
81	901
82	60
89	101
91	9999
92	2546
93	350
103	442
105	2181
106	172
115	114
117	177
119	227
120	42
