Mass Spectrum: 1,6-Heptadiyne
Formula: C7 H8
CAS: 2396-63-6
Molecular weight: 92
Origin: NIST Mass Spectrometry Data Center, 1990.
m/z	RELATIVE INTENSITY
12	21
13	31
14	18
15	36
24	27
25	103
26	570
27	3611
28	135
36	77
37	644
38	1252
39	3496
40	1157
41	221
42	30
43	55
44	16
45	23
48	49
49	278
50	1492
51	2112
52	1314
53	1795
54	74
60	49
61	288
62	533
63	937
64	418
65	1645
66	373
67	22
73	30
74	70
75	40
76	27
77	127
78	17
84	38
85	77
86	108
87	46
88	28
89	243
90	17
91	9999
92	752
93	33
