Mass Spectrum: 2-Hexenoic acid, methyl ester
Formula: C7 H12 O2
CAS: 2396-77-2
Molecular weight: 128
m/z	RELATIVE INTENSITY
15	2823
26	731
27	5385
28	1351
29	3593
30	250
31	390
32	160
33	641
37	200
38	771
39	6576
40	2112
41	8918
42	3213
43	1411
44	130
45	480
46	160
47	320
49	320
50	290
51	561
52	260
53	1892
54	591
55	9999
56	631
57	300
58	140
59	2442
60	641
61	480
62	801
63	140
64	420
65	290
66	200
67	1061
68	4974
69	3043
70	260
71	1121
72	210
73	771
74	3083
75	130
79	420
81	1501
82	130
83	961
85	811
86	130
87	5745
88	320
89	450
95	260
96	661
97	5355
98	480
99	290
100	260
101	320
111	480
113	3213
114	290
115	160
126	100
127	220
128	4334
129	550
130	801
