Mass Spectrum: 2-Octenoic acid, methyl ester
Formula: C9 H16 O2
CAS: 2396-85-2
Molecular weight: 156
m/z	RELATIVE INTENSITY
15	2022
26	400
27	4974
28	1431
29	6926
30	250
31	290
32	70
33	520
37	561
38	290
39	5005
40	1702
41	8157
42	2983
43	1992
44	130
45	510
46	200
47	350
48	70
49	100
50	140
51	450
52	280
53	2222
54	1191
55	9999
56	1611
57	1621
58	210
59	3153
60	120
61	520
62	170
63	871
64	170
65	270
66	260
67	1361
68	3433
69	2212
70	1291
71	871
72	290
73	100
74	2943
75	230
76	140
77	140
78	450
79	180
80	110
81	1822
82	3143
83	1261
84	130
85	761
86	801
87	7907
88	761
89	701
91	30
92	170
93	520
94	170
95	631
96	2242
97	450
98	871
99	270
100	1601
101	2022
102	170
103	140
109	701
111	490
112	350
113	3123
114	1021
115	210
116	240
124	2762
125	2943
126	380
127	470
128	110
129	280
141	1011
142	70
155	771
156	761
157	180
158	380
