Mass Spectrum: 4,7,13,16,21,24-Hexaoxa-1,10-diazabicyclo[8.8.8]hexacosane
Formula: C18 H36 N2 O6
CAS: 23978-09-8
Molecular weight: 376
Origin: Institute of Organic Chemistry, USSR, 1990
m/z	RELATIVE INTENSITY
54	390
55	560
56	5270
57	2130
58	2330
59	500
67	170
68	350
69	1070
70	3000
71	1870
72	1930
73	440
74	480
81	200
82	730
83	970
84	1600
85	800
86	1530
87	610
88	1070
89	170
94	370
95	1030
96	770
97	1070
98	1150
99	870
100	6000
101	1120
102	1100
107	120
108	290
109	200
110	360
111	440
112	1330
113	780
114	9999
115	1080
116	1210
117	150
118	650
122	160
123	120
124	200
125	1800
126	830
127	750
128	1910
129	650
130	1320
131	210
132	2330
133	180
138	210
139	200
140	400
141	190
142	900
143	270
144	7330
145	450
146	2170
150	110
151	780
155	230
156	410
157	950
158	2070
159	350
160	390
168	120
169	130
170	670
171	150
172	800
173	260
174	480
175	80
176	390
182	80
183	240
184	250
185	230
186	360
187	450
188	470
189	210
190	350
199	330
200	210
201	240
202	320
203	70
204	670
205	80
206	910
207	110
213	930
214	220
215	310
216	210
217	190
218	230
219	120
220	150
225	70
226	40
227	240
228	70
229	170
230	190
231	120
232	290
235	50
236	10
237	170
238	40
239	240
240	70
241	90
242	70
243	40
245	200
246	270
247	90
271	1000
272	170
273	230
274	60
275	830
276	130
285	550
286	110
287	470
288	150
289	400
290	100
299	60
300	20
301	3330
302	550
303	350
304	50
314	50
315	2800
316	520
317	170
318	30
319	130
331	150
332	40
333	130
334	30
345	100
346	110
347	100
348	30
375	150
376	1800
377	400
378	100
