Mass Spectrum: Tolnaftate
Formula: C19 H17 N O S
CAS: 2398-96-1
Molecular weight: 307
Origin: NIST Mass Spectrometry Data Center, 1998.
m/z	RELATIVE INTENSITY
27	30
38	30
39	380
40	30
41	120
42	40
45	370
46	10
47	20
50	130
51	310
52	80
53	50
54	10
56	10
58	10
59	10
60	10
61	20
62	140
63	520
64	130
65	1670
66	110
67	10
69	30
70	10
71	10
72	100
73	30
74	120
75	190
76	110
77	580
78	170
79	310
80	30
82	10
85	10
86	40
87	90
88	110
89	720
90	260
91	3580
92	340
93	70
94	10
95	10
96	10
97	40
98	30
99	30
100	20
101	170
102	70
103	50
104	110
105	80
106	150
107	110
108	80
109	10
110	10
111	20
113	120
114	150
115	1970
116	290
117	130
118	200
119	120
120	2210
121	360
122	80
123	2190
124	190
125	130
126	350
127	1250
128	190
129	20
130	30
131	30
132	80
133	100
134	20
135	20
136	40
137	20
139	10
141	30
143	30
144	130
145	40
146	80
147	60
148	9999
149	2530
150	260
151	80
152	40
153	30
155	50
156	10
158	30
159	80
160	30
161	10
162	20
164	6319
165	770
166	330
167	30
174	10
178	10
179	10
180	280
181	30
182	10
189	20
190	10
202	20
203	10
215	10
216	10
218	10
231	10
306	20
307	1330
308	290
309	90
310	10
