Mass Spectrum: Benzene, (1-hexyltetradecyl)-
Formula: C26 H46
CAS: 2398-64-3
Molecular weight: 358
Origin: GULF R. ' D. CO., PITTSBURGH, PA, USA
m/z	RELATIVE INTENSITY
15	23
26	26
27	402
28	127
29	984
30	26
38	11
39	172
40	36
41	1257
42	215
43	1954
44	71
50	13
51	34
52	15
53	69
54	61
55	850
56	166
57	825
58	43
62	9
63	34
64	12
65	91
66	21
67	131
68	54
69	374
70	103
71	411
72	27
74	9
75	11
76	14
77	146
78	157
79	109
80	19
81	74
82	31
83	214
84	43
85	212
86	20
89	28
90	43
91	9999
92	973
93	59
94	12
95	40
96	17
97	134
98	23
99	48
100	16
102	39
103	172
104	1064
105	1508
106	138
107	14
109	16
110	9
111	40
112	13
113	40
115	179
116	86
117	753
118	427
119	628
120	77
121	9
122	10
125	15
127	36
128	58
129	86
130	48
131	214
132	54
133	338
134	42
139	8
141	36
142	14
143	28
144	14
145	46
146	17
147	188
148	28
152	11
153	11
154	11
155	22
157	12
159	17
161	151
162	23
165	11
167	15
169	25
173	46
174	163
175	3059
176	573
177	50
178	9
181	17
183	13
188	20
189	95
190	20
201	11
202	11
203	64
204	14
217	43
218	11
231	23
271	20
272	95
273	1257
274	346
275	47
350	16
352	32
353	11
356	25
358	767
359	216
360	32
