Mass Spectrum: Benzene, eicosyl-
Formula: C26 H46
CAS: 2398-68-7
Molecular weight: 358
Origin: CONTINENTAL OIL CO., PONCA CITY, OKLA, USA
m/z	RELATIVE INTENSITY
27	318
28	161
29	888
30	20
38	10
39	194
40	43
41	1479
42	295
43	2756
44	98
50	15
51	49
52	20
53	77
54	109
55	1105
56	296
57	1633
58	75
63	25
64	9
65	178
66	23
67	137
68	79
69	485
70	156
71	672
72	39
75	16
76	23
77	256
78	413
79	285
80	77
81	103
82	74
83	357
84	86
85	459
86	34
89	81
90	98
91	9586
92	9999
93	827
94	148
95	64
96	39
97	172
98	39
99	47
100	7
101	10
102	25
103	136
104	1183
105	1302
106	260
107	39
108	11
109	21
110	14
111	53
112	20
113	27
114	6
115	79
116	39
117	370
118	175
119	248
120	73
121	20
125	17
126	10
127	20
128	22
129	28
130	23
131	108
132	69
133	503
134	128
135	28
141	14
145	22
146	20
147	79
148	24
160	14
161	33
162	4
167	16
169	10
174	14
175	18
188	11
189	10
216	5
230	5
244	4
301	9
344	10
356	61
358	4241
359	1221
360	174
