Mass Spectrum: 1-(2-Cyanoethyl)-2-ethyl-4-methylimidazole
Formula: C9 H13 N3
CAS: 23996-25-0
Molecular weight: 163
Origin: NIST Mass Spectrometry Data Center
m/z	RELATIVE INTENSITY
13	50
14	150
15	851
18	30
26	1361
27	3553
28	6166
29	1161
30	170
36	40
37	330
38	1001
39	6566
40	2252
41	8177
42	4224
43	180
44	110
50	80
51	480
52	2042
53	1511
54	4484
55	1031
56	1682
57	150
61	60
63	80
64	220
65	260
66	1641
67	1241
68	3954
69	530
70	210
77	80
78	170
79	260
80	1031
81	1021
82	1221
83	420
92	60
93	430
95	5655
96	711
105	100
106	280
107	1411
108	2492
109	9999
110	4094
111	330
119	90
120	340
121	1712
122	711
123	3693
124	330
133	120
134	631
135	741
136	210
137	280
146	150
148	9168
149	971
150	30
160	70
162	3273
163	9969
164	1111
165	70
