Mass Spectrum: Benzene, (1-ethyloctadecyl)-
Formula: C26 H46
CAS: 2400-02-4
Molecular weight: 358
Origin: CONTINENTAL OIL CO., PONCA CITY, OKLA, USA
m/z	RELATIVE INTENSITY
26	14
27	326
28	254
29	719
30	17
37	3
38	6
39	154
40	34
41	1376
42	228
43	1844
44	64
50	8
51	37
52	14
53	64
54	67
55	835
56	194
57	1074
58	50
63	13
64	5
65	64
66	11
67	94
68	41
69	384
70	112
71	706
72	41
73	9
74	9
75	14
76	20
77	235
78	213
79	188
80	23
81	82
82	41
83	331
84	61
85	408
86	30
87	8
88	7
89	45
90	62
91	9999
92	970
93	59
94	10
95	41
96	17
97	175
98	27
99	81
100	9
101	11
102	41
103	196
104	848
105	1184
106	125
107	11
108	7
109	17
110	7
111	64
112	13
113	56
114	14
115	185
116	91
117	674
118	488
119	8315
120	1188
121	77
122	9
123	6
124	5
125	21
126	9
127	48
128	39
129	56
130	34
131	228
132	206
133	279
134	40
135	5
139	8
140	5
141	32
142	9
143	17
144	10
145	86
146	22
147	207
148	28
150	5
153	6
154	5
155	23
156	5
157	6
159	20
161	168
162	27
167	6
168	5
169	19
170	4
173	9
175	121
176	19
183	15
184	2
187	6
189	91
190	15
197	7
198	6
201	4
203	74
204	16
211	6
217	60
218	12
225	20
231	50
232	11
245	42
246	9
258	7
259	31
260	7
272	6
273	23
274	4
287	18
288	5
315	8
327	29
328	83
329	1709
330	475
331	66
344	6
355	8
356	25
358	986
359	286
360	37
