Mass Spectrum: Benzene, (1-butylhexadecyl)-
Formula: C26 H46
CAS: 2400-04-6
Molecular weight: 358
Origin: CONTINENTAL OIL CO., PONCA CITY, OKLA, USA
m/z	RELATIVE INTENSITY
26	16
27	318
28	71
29	620
30	16
36	4
37	4
38	6
39	120
40	28
41	1016
42	165
43	1382
44	55
50	8
51	24
52	10
53	50
54	47
55	582
56	138
57	687
58	33
62	2
63	9
64	4
65	50
66	9
67	72
68	31
69	299
70	67
71	412
72	27
73	4
74	7
75	15
76	19
77	160
78	158
79	118
80	115
81	62
82	25
83	207
84	39
85	240
86	20
87	8
88	6
89	33
90	51
91	9999
92	936
93	51
94	8
95	29
96	11
97	107
98	16
99	47
100	8
101	12
102	36
103	159
104	808
105	1119
106	107
107	9
108	5
109	11
110	5
111	38
112	10
113	35
114	11
115	155
116	71
117	570
118	249
119	272
120	32
121	4
122	4
123	5
124	3
125	13
126	6
127	34
128	43
129	57
130	33
131	170
132	36
133	208
134	28
135	4
136	6
137	6
139	7
140	4
141	24
142	9
143	17
144	9
145	68
146	177
147	4039
148	397
149	47
150	2
152	2
153	4
154	3
155	14
156	6
157	8
159	13
160	16
161	122
162	20
165	3
167	8
168	4
169	9
171	4
173	11
174	8
175	91
176	15
177	4
183	6
187	5
189	73
190	13
197	16
198	5
203	50
204	14
207	7
217	43
218	9
230	6
231	31
232	7
244	6
245	21
246	5
258	7
259	16
273	4
299	15
300	67
301	1069
302	300
303	41
314	3
315	13
316	5
329	4
330	4
358	660
359	194
360	27
