Mass Spectrum: 2-(4-Fluorophenyl)-1,1,1,3,3,3-hexafluoro-2-propanol
Formula: C9 H5 F7 O
CAS: 2402-74-6
Molecular weight: 262
Origin: NIST Mass Spectrometry Data Center, 1994
m/z	RELATIVE INTENSITY
17	28
18	12
20	51
28	129
33	24
37	78
38	123
39	131
48	66
49	62
50	778
51	439
52	34
53	86
56	83
57	283
62	179
63	173
67	37
68	285
69	3534
70	203
71	35
72	20
73	31
74	27
75	1380
76	180
77	693
78	92
79	37
80	68
81	167
85	52
86	49
87	103
88	35
92	51
93	166
94	333
95	3214
96	764
97	348
98	25
99	115
100	46
101	37
104	36
105	86
106	59
107	133
112	24
113	88
114	89
119	38
121	34
123	9999
124	793
125	266
126	100
127	42
137	73
141	85
143	94
145	1072
146	83
154	29
155	37
156	58
157	74
163	132
174	69
175	92
176	57
193	4509
194	410
195	433
196	36
205	27
223	751
224	71
226	29
262	2106
263	197
