Mass Spectrum: trans-Geranylgeraniol
Formula: C20 H34 O
CAS: 24034-73-9
Molecular weight: 290
Origin: NIST Mass Spectrometry Data Center
m/z	RELATIVE INTENSITY
26	10
27	200
28	30
29	661
30	20
31	60
38	10
39	530
40	190
41	4264
42	240
43	691
44	30
45	40
50	20
51	90
52	60
53	991
54	100
55	1341
56	120
57	691
58	30
59	30
63	20
64	10
65	270
66	110
67	2022
68	1962
69	9999
70	631
71	310
72	20
73	10
75	10
77	561
78	110
79	981
80	470
81	4974
82	601
83	410
84	370
85	110
86	10
89	10
91	801
92	370
93	2662
94	510
95	1982
96	240
97	290
98	40
99	20
102	10
103	50
104	20
105	591
106	160
107	1752
108	380
109	1141
110	170
111	210
112	20
113	10
115	40
116	10
117	60
118	20
119	631
120	220
121	1461
122	520
123	1041
124	160
125	50
126	10
127	10
128	10
129	10
130	10
131	50
132	80
133	450
134	260
135	981
136	1191
137	781
138	200
139	70
140	10
141	10
145	70
146	40
147	380
148	190
149	330
150	70
151	80
152	20
153	10
157	10
159	120
160	40
161	430
162	110
163	130
164	30
165	30
166	20
173	30
174	10
175	100
176	40
177	180
178	40
179	60
180	10
187	60
188	30
189	220
190	70
191	90
192	30
193	10
194	10
195	60
196	10
201	30
202	40
203	150
204	160
205	50
206	20
207	20
208	10
215	20
216	20
217	20
219	20
221	110
222	20
229	60
230	20
231	10
243	10
245	10
247	30
248	10
257	40
258	10
259	30
260	10
272	30
273	10
275	10
290	20
