Mass Spectrum: Pyrrolidine, 1-(2-methyl-1-propenyl)-
Formula: C8 H15 N
CAS: 2403-57-8
Molecular weight: 125
Origin: D.H.WILLIAMS CHEMISTRY DEPT., UNIVERSITY OF CAMBRIDGE
m/z	RELATIVE INTENSITY
26	200
27	1000
29	1000
30	300
39	1000
40	400
41	1000
42	1950
43	1000
44	1600
45	600
51	200
52	200
53	600
54	850
55	2000
56	500
57	150
67	500
68	1150
69	900
70	1500
71	500
77	100
79	200
80	450
81	500
82	2000
83	470
84	1300
85	200
93	100
94	400
95	300
96	3300
97	500
106	100
107	100
108	300
109	100
110	6300
111	700
120	100
121	100
122	400
123	400
124	9999
125	9300
126	1000
