Mass Spectrum: 13-Isopropylpodocarpen-12-ol-20-al
Formula: C20 H28 O2
CAS: 24035-37-8
Molecular weight: 300
Origin: R RYHAGE MS-LAB KAROLINSKA INSTITUTET STOCKHOLM SWEDEN
m/z	RELATIVE INTENSITY
27	130
28	60
29	210
39	130
41	750
43	600
51	50
53	120
55	350
57	80
65	100
67	110
69	1580
70	110
77	210
78	70
79	130
81	90
83	220
85	90
89	50
91	310
92	50
93	70
95	90
97	90
103	90
105	170
107	190
109	70
115	540
116	160
117	170
119	80
121	80
127	320
128	530
129	400
130	100
131	300
132	120
133	490
134	70
135	70
139	90
141	520
142	210
143	200
144	350
145	720
146	120
147	460
148	60
149	330
151	80
152	330
153	380
154	190
155	280
156	100
157	570
158	290
159	740
160	130
161	300
163	130
165	330
166	140
167	170
168	100
169	220
170	150
171	490
172	230
173	820
174	150
175	2740
176	390
177	140
178	130
179	110
181	130
182	70
183	190
184	120
185	480
186	230
187	1100
188	190
189	3050
190	460
191	100
195	60
197	130
198	60
199	540
200	180
201	2740
202	650
203	540
204	90
211	240
212	90
213	410
214	170
215	1040
216	130
225	70
227	300
228	230
229	1400
230	260
239	50
241	100
255	150
256	50
257	140
267	60
269	130
270	170
271	9999
272	920
285	70
300	1340
301	320
