Mass Spectrum: 4-Piperidinol, 2,2,6,6-tetramethyl-
Formula: C9 H19 N O
CAS: 2403-88-5
Molecular weight: 157
Origin: Japan AIST/NIMC Database- Spectrum MS-NW-8656
m/z	RELATIVE INTENSITY
15	169
26	10
27	289
28	179
29	589
30	229
31	60
38	10
39	479
40	99
41	1339
42	1959
43	429
44	169
45	99
46	20
49	10
50	10
51	30
52	20
53	139
54	70
55	679
56	589
57	919
58	9999
59	389
60	20
63	80
65	50
66	20
67	229
68	70
69	40
70	159
71	149
72	129
77	20
79	70
80	30
81	70
82	219
83	229
84	159
85	1219
86	1599
87	70
91	40
92	10
93	20
94	40
95	40
96	80
97	40
98	739
99	279
100	40
101	10
105	10
107	369
108	109
109	40
110	30
112	199
113	30
122	40
123	10
124	1029
125	109
126	40
140	99
141	20
142	7109
143	669
144	40
157	40
158	20
