Mass Spectrum: N-Butylbenzylamine
Formula: C11 H17 N
CAS: 2403-22-7
Molecular weight: 163
Origin: NIST Mass Spectrometry Data Center, 1992
m/z	RELATIVE INTENSITY
15	65
17	12
18	89
26	47
27	519
28	216
29	501
30	399
31	10
37	10
38	66
39	617
40	73
41	535
42	140
43	155
44	175
45	9
46	10
50	144
51	345
52	93
53	40
54	31
55	43
56	45
57	65
59	41
60	150
62	54
63	245
64	106
65	1225
66	69
67	8
68	10
70	17
72	42
74	30
75	32
76	48
77	303
78	108
79	203
80	18
82	4
83	41
84	57
85	8
86	53
87	12
89	276
91	9999
92	852
93	34
101	2
102	6
103	27
104	161
105	74
106	624
107	61
108	5
115	10
116	15
117	81
118	344
119	5
120	4473
121	381
122	14
129	3
130	11
132	87
133	52
134	10
144	4
146	14
147	2
160	44
161	23
162	102
163	205
164	28
165	3
