Mass Spectrum: Phosphonamidic acid, N,N-diethyl-P-methyl-, ethyl ester
Formula: C7 H18 N O2 P
CAS: 2404-81-1
Molecular weight: 179
Origin: Dennis Rohrbaugh, CBDCOM/ERDEC, Edgewood, MD
m/z	RELATIVE INTENSITY
30	2817
42	2810
44	4995
45	281
47	1654
48	163
49	429
56	1725
58	9319
59	359
63	593
65	733
70	452
72	9999
73	515
78	483
79	6697
80	889
81	483
86	202
90	398
92	405
93	140
104	421
106	273
107	663
108	1865
118	101
120	1803
122	1178
134	1030
136	7805
137	351
150	694
164	5081
165	312
179	1358
180	101
