Mass Spectrum: Phosphorothioic acid, O,O-diethyl S-methyl ester
Formula: C5 H13 O3 P S
CAS: 2404-05-9
Molecular weight: 184
Origin: Dennis Rohrbaugh, CBDCOM/ERDEC, Edgewood, MD
m/z	RELATIVE INTENSITY
27	4463
29	7429
45	2516
46	1497
47	6501
48	3520
49	494
61	1011
63	254
65	4007
75	404
77	104
79	239
81	9999
82	4958
83	1999
91	2516
92	254
93	6471
94	247
95	149
96	254
97	494
109	7489
110	1617
111	6516
112	2486
113	748
128	3505
129	494
138	2509
139	996
140	4995
141	501
142	396
156	247
157	247
158	157
169	501
184	3010
185	501
186	254
