Mass Spectrum: Bis(N,N-dimethyl) O-ethyl phosphorodiamidate
Formula: C6 H17 N2 O2 P
CAS: 2404-65-1
Molecular weight: 180
Origin: Dennis Rohrbaugh, CBDCOM/ERDEC, Edgewood, MD
m/z	RELATIVE INTENSITY
40	369
42	2849
43	1419
44	9999
45	5149
47	389
58	259
65	199
88	279
90	99
92	219
93	199
106	119
108	3229
109	629
135	629
136	379
137	909
152	50
180	2259
181	99
