Mass Spectrum: Bicyclo[3.1.1]heptan-3-ol, 2,6,6-trimethyl-, [1S-(1.alpha.,2.beta.,3.alpha.,5.alpha.)]-
Formula: C10 H18 O
CAS: 24041-60-9
Molecular weight: 154
Origin: Philip Morris R&D
m/z	RELATIVE INTENSITY
36	16
38	47
39	934
40	156
41	3070
42	528
43	7561
44	276
45	200
50	60
51	177
52	68
53	523
54	159
55	3666
56	580
57	765
58	276
59	88
60	3
61	5
62	18
63	44
65	138
66	94
67	968
68	432
69	4499
70	9999
71	1704
72	135
73	21
77	323
78	96
79	591
80	356
81	2755
82	695
83	2425
84	5539
85	937
86	42
91	281
92	448
93	1421
94	304
95	1816
96	268
97	268
98	1205
99	770
100	42
105	83
106	23
107	375
108	47
109	52
110	944
111	239
112	31
113	31
121	794
122	96
123	31
125	23
136	614
137	36
139	101
152	8
