Mass Spectrum: N,N-Dimethyl O,O'-diethyl phosphoramidate
Formula: C6 H16 N O3 P
CAS: 2404-03-7
Molecular weight: 181
Origin: Dennis Rohrbaugh, CBDCOM/ERDEC, Edgewood, MD
m/z	RELATIVE INTENSITY
42	2209
43	1539
44	9999
45	1689
47	329
65	279
81	589
82	639
83	309
91	109
106	329
107	179
108	1749
109	259
110	669
111	469
124	2139
125	179
126	249
136	249
137	60
138	189
152	259
153	329
154	50
166	50
180	70
181	529
182	60
