Mass Spectrum: Thiophene, 3-phenyl-
Formula: C10 H8 S
CAS: 2404-87-7
Molecular weight: 160
Origin: CONTINENTAL OIL CO., PONCA CITY, OKLA, USA
m/z	RELATIVE INTENSITY
12	6
13	4
14	6
15	22
16	4
25	11
26	133
27	209
28	82
32	41
33	16
34	13
36	8
37	134
38	250
39	774
40	45
41	28
43	9
44	46
45	936
46	26
47	45
49	57
50	523
51	668
52	147
53	36
54	21
55	9
56	15
57	103
58	323
59	31
60	28
61	142
62	337
63	727
64	98
65	267
66	74
67	483
68	36
69	314
70	40
71	41
72	10
73	50
74	292
75	260
76	210
77	264
78	66
79	385
80	585
81	128
82	166
83	59
84	83
85	66
86	115
87	150
88	99
89	630
90	143
91	39
92	20
93	184
94	39
95	63
96	14
97	36
98	74
99	39
100	19
101	58
102	385
103	64
105	33
106	46
107	24
108	157
109	50
110	36
111	18
112	13
113	128
114	214
115	2799
116	623
117	66
119	24
120	18
121	290
122	31
123	16
125	9
126	110
127	205
128	523
129	59
130	6
132	67
133	101
134	451
135	46
136	23
145	54
154	24
157	19
158	300
159	632
160	9999
161	1170
162	505
163	49
