Mass Spectrum: Dimethylcarbamothioic acid, O-isopropyl ester
Formula: C6 H13 N O S
CAS: 24060-02-4
Molecular weight: 147
Origin: M. LOZYNSKI, POZNAN TECH. UNIV., POZNAN, POLAND
m/z	RELATIVE INTENSITY
27	1300
28	710
29	210
30	870
39	1100
41	2100
42	1700
43	2200
44	2700
45	220
47	240
58	2100
59	240
60	370
72	9999
73	520
74	1500
76	290
88	2000
91	740
92	410
105	2500
106	1100
132	1000
147	4300
148	340
149	210
