Mass Spectrum: Nitroxide, bis(1,1-dimethylethyl)
Formula: C8 H18 N O
CAS: 2406-25-9
Molecular weight: 144
Origin: RADIAN CORP
m/z	RELATIVE INTENSITY
14	160
15	760
16	40
25	20
26	410
27	2610
29	3810
30	2440
31	40
37	310
38	620
39	4900
40	880
41	9999
42	1910
43	4220
44	150
47	150
50	340
51	240
52	50
53	380
54	110
55	1120
56	2910
57	6530
58	730
69	60
70	30
72	140
74	640
85	60
88	350
89	70
98	90
99	120
103	20
