Mass Spectrum: 1H-Pyrrole, 3-ethyl-5-[(4-ethyl-3,5-dimethyl-2H-pyrrol-2-ylidene)methyl]-2,4-dimethyl-
Formula: C17 H24 N2
CAS: 2407-83-2
Molecular weight: 256
Origin: A.A.Kutin, Moscow, Russia
m/z	RELATIVE INTENSITY
38	2
39	138
41	109
42	261
43	129
44	3
50	2
51	52
52	25
53	65
54	16
55	23
63	40
64	17
65	72
66	64
67	25
68	3
69	1
71	6
74	6
77	170
78	98
79	95
80	89
81	59
82	64
84	14
86	6
87	7
89	37
91	129
92	25
93	26
94	18
95	6
96	4
98	48
99	25
100	5
101	2
102	17
103	33
104	78
105	104
106	68
107	63
108	31
109	2
111	3
112	36
113	143
114	28
115	85
116	39
117	77
118	60
120	116
121	107
122	57
123	4
124	1
127	21
128	311
130	223
132	120
133	79
134	85
135	31
136	48
139	16
140	23
141	39
142	87
143	93
144	242
145	137
146	98
147	12
148	10
149	19
151	5
152	34
153	29
154	153
156	219
157	97
158	144
159	52
161	56
162	8
164	2
165	19
166	51
167	109
168	210
169	143
170	182
171	71
172	55
173	21
174	6
178	1
179	22
180	85
181	91
182	252
183	154
184	222
185	85
186	59
187	10
189	2
191	9
192	22
193	37
194	85
195	257
197	1792
198	291
200	58
206	18
207	31
209	513
210	335
212	5456
213	607
214	77
215	10
219	4
220	11
221	55
223	251
224	150
225	659
226	940
227	477
228	63
229	11
233	2
234	1
236	23
237	127
239	388
241	9999
242	1071
244	80
251	15
253	131
256	6145
257	844
259	82
