Mass Spectrum: Benzoic acid, 3-methyl-4-nitro-, methyl ester
Formula: C9 H9 N O4
CAS: 24078-21-5
Molecular weight: 195
Origin: L.E. Slivon, Battelle Columbus Laboratories, Columbus, Ohio 43201
m/z	RELATIVE INTENSITY
40	204
41	214
42	93
43	130
44	353
45	436
46	278
47	37
48	9
49	28
50	724
51	1253
52	529
53	501
54	65
55	111
56	46
57	102
58	148
59	2024
60	102
61	288
62	1179
63	3729
64	1198
65	1114
66	241
67	176
68	37
69	65
70	19
71	56
73	130
74	594
75	668
76	445
77	3213
78	2117
79	2172
80	297
81	111
82	65
83	19
85	343
86	455
87	473
88	315
89	7134
90	3480
91	2801
92	882
93	232
94	343
95	399
96	56
97	28
98	19
99	28
100	9
101	46
102	74
103	306
104	399
105	1607
106	4698
107	882
108	167
109	204
110	28
111	46
113	28
116	510
117	1670
118	3538
119	2033
120	1002
121	1169
122	677
123	121
124	28
126	84
127	19
128	9
129	37
130	56
131	46
132	121
133	520
134	2561
135	1894
136	353
137	121
140	74
141	37
142	28
143	28
144	84
145	19
146	594
147	204
148	241
149	390
150	873
151	195
152	37
153	9
154	93
155	19
157	102
159	9
160	204
161	37
162	102
163	111
164	3358
165	1048
166	130
167	46
170	9
173	9
175	37
176	102
177	56
178	9999
179	1058
180	195
181	74
183	19
185	9
187	19
191	37
192	74
194	111
195	705
196	121
