Mass Spectrum: Cyclohexanone, 2,2,6-trimethyl-
Formula: C9 H16 O
CAS: 2408-37-9
Molecular weight: 140
Origin: NIST Mass Spectrometry Data Center, 1990.
m/z	RELATIVE INTENSITY
14	82
15	90
26	131
27	892
28	298
29	693
39	1988
40	493
41	3948
42	1158
43	551
50	105
51	253
52	122
53	680
54	398
55	4135
56	4850
57	965
58	87
63	59
65	132
67	1146
69	4485
70	1600
71	192
72	587
77	115
79	145
80	54
82	9999
83	1200
84	399
91	59
95	68
97	476
98	274
107	67
125	65
140	2065
141	196
