Mass Spectrum: 4-(Decyloxy)benzaldehyde
Formula: C17 H26 O2
CAS: 24083-16-7
Molecular weight: 262
Origin: NIST Mass Spectrometry Data Center
m/z	RELATIVE INTENSITY
15	20
18	30
26	30
27	981
28	200
29	2272
30	50
31	10
37	10
38	60
39	1171
40	190
41	4714
42	881
43	5595
44	180
50	120
51	470
52	40
53	310
54	220
55	3233
56	1431
57	3803
58	150
62	30
63	160
64	110
65	771
66	140
67	360
68	210
69	1511
70	1201
71	1361
72	80
74	40
75	30
76	160
77	1031
78	100
79	320
80	40
81	90
82	190
83	641
84	631
85	1291
86	90
87	10
89	10
91	70
92	130
93	450
94	200
95	450
96	190
97	781
98	330
99	130
102	10
103	30
104	60
105	540
106	60
107	130
108	20
109	10
110	40
111	480
112	260
113	10
115	10
119	40
121	4334
122	5575
123	9999
124	761
125	80
126	10
133	20
135	240
136	40
137	10
140	200
141	20
147	60
148	20
149	10
161	10
163	60
164	10
177	10
189	10
260	10
262	3353
263	520
264	60
