Mass Spectrum: Propanoic acid, 2-propenyl ester
Formula: C6 H10 O2
CAS: 2408-20-0
Molecular weight: 114
Origin: NIST Mass Spectrometry Data Center, 1990.
m/z	RELATIVE INTENSITY
13	39
14	82
15	239
16	3
18	1
24	15
25	79
26	602
27	1946
28	842
29	3931
30	113
31	234
37	101
38	329
39	1818
40	380
41	3590
42	255
43	90
44	24
45	58
53	50
54	34
55	306
56	24
57	9999
58	360
59	37
60	30
69	27
72	28
73	20
74	27
75	176
85	84
86	48
114	12
