Mass Spectrum: Phenol, 2-(1,1-dimethylethyl)-4-methyl-
Formula: C11 H16 O
CAS: 2409-55-4
Molecular weight: 164
Origin: Japan AIST/NIMC Database- Spectrum MS-NW-6144
m/z	RELATIVE INTENSITY
15	70
18	10
26	30
27	359
28	40
29	209
37	10
38	50
39	549
40	60
41	839
42	40
43	99
44	10
45	20
46	20
49	10
50	119
51	419
52	179
53	369
54	30
55	179
56	70
57	70
58	40
59	20
60	60
61	10
62	50
63	189
64	119
65	289
66	139
67	99
68	30
69	20
71	10
72	99
73	129
74	159
75	50
76	30
77	759
78	199
79	329
80	60
81	60
82	10
86	10
87	20
88	10
89	109
90	50
91	1149
92	129
93	139
94	50
95	10
98	20
99	10
101	10
102	50
103	209
104	70
105	559
106	80
107	489
108	249
109	609
110	50
113	10
114	10
115	619
116	639
117	109
118	30
119	109
120	60
121	4699
122	449
123	80
124	10
126	10
127	80
128	179
129	269
130	70
131	189
132	70
133	229
134	80
135	60
136	10
143	10
145	30
146	10
147	109
148	119
149	9999
150	1099
151	80
162	20
163	70
164	4209
165	539
166	40
