Mass Spectrum: Benzoic acid, 2,3-dihydroxy-, methyl ester
Formula: C8 H8 O4
CAS: 2411-83-8
Molecular weight: 168
Origin: W.COUCH,C.WILLIAMS,DEPT RADIOLOGY,U OF FLORIDA,GAINSVILLE.USA
m/z	RELATIVE INTENSITY
40	100
41	120
42	80
43	80
44	40
45	120
48	20
49	200
50	670
51	1620
52	2600
53	1570
54	360
55	1100
56	40
57	20
59	120
60	30
61	110
62	310
63	640
64	110
65	170
66	90
67	50
68	110
69	100
70	20
71	20
74	20
77	170
78	60
79	900
80	2000
81	1400
82	90
83	20
84	50
85	20
86	20
87	20
90	30
91	190
92	90
95	20
96	30
106	30
107	1200
108	2700
109	530
110	90
119	20
121	20
124	20
135	340
136	9999
137	2550
138	260
139	20
152	20
153	20
154	50
167	100
168	2500
169	500
170	60
