Mass Spectrum: 4a,8a-Ethenonaphthalene, 1,2,3,4-tetrahydro-
Formula: C12 H14
CAS: 24139-33-1
Molecular weight: 158
Origin: R.C. DOUGHERTY
m/z	RELATIVE INTENSITY
26	300
27	1201
28	951
29	200
39	200
40	2202
41	200
42	751
51	851
52	1902
53	851
54	480
63	350
64	1401
65	751
66	1201
67	300
68	500
75	400
76	450
77	550
78	1501
79	1201
80	601
81	300
88	150
90	701
91	250
92	4004
93	550
102	250
103	901
104	951
105	3703
106	550
116	6906
117	2302
118	3103
119	300
127	200
128	1401
129	3503
130	9999
131	7407
132	1802
133	851
141	500
142	601
143	2502
144	350
152	100
153	150
155	200
157	2002
158	5005
159	851
