Mass Spectrum: Cyclopropane, propyl-
Formula: C6 H12
CAS: 2415-72-7
Molecular weight: 84
Origin: D.HENNEBERG, MAX-PLANCK INSTITUTE, MULHEIM, WEST GERMANY
m/z	RELATIVE INTENSITY
26	129
27	3320
28	1441
29	2415
38	129
39	3141
40	516
41	8697
42	4065
43	2683
50	29
51	129
53	506
54	347
55	4980
56	9999
57	318
63	4
69	1868
84	407
