Mass Spectrum: Rhodium, dicarbonyl(1-phenyl-1,3-butanedionato)-
Formula: C12 H9 O4 Rh
CAS: 24151-55-1
Molecular weight: 320
Origin: S. PIGNATARO
m/z	RELATIVE INTENSITY
103	3200
131	1500
180	2600
193	2000
194	2000
195	1400
204	2200
208	3200
234	3200
236	3200
264	7800
292	5300
320	9999
