Mass Spectrum: Hexadecenoic acid, Z-11-
Formula: C16 H30 O2
CAS: 2416-20-8
Molecular weight: 254
Origin: J. Klune, Insect Chem. Ecol. Lab., USDA, Beltsville, MD 20705
m/z	RELATIVE INTENSITY
41	7093
42	1500
43	3354
44	88
45	996
47	66
51	126
52	120
53	923
54	1862
55	9999
56	2699
57	1557
58	122
59	386
60	1843
61	136
65	244
66	192
67	2048
68	1425
69	4932
70	1877
71	571
72	40
73	1440
74	140
75	118
77	239
78	91
79	466
80	215
81	1090
82	1018
83	3004
84	2108
85	440
86	96
87	330
88	53
89	53
91	125
92	53
93	168
94	236
95	769
96	1455
97	2270
98	1158
99	244
100	365
101	505
102	101
103	28
105	105
106	89
107	124
108	167
109	435
110	740
111	1086
112	378
113	203
114	575
115	209
116	30
117	56
119	170
120	114
121	155
122	129
123	456
124	500
125	350
126	159
127	276
128	86
129	149
130	32
133	124
134	156
135	76
136	130
137	303
138	332
139	216
140	91
141	105
143	87
144	29
147	143
148	99
150	79
151	204
152	362
153	134
154	64
155	122
157	59
158	85
159	26
161	79
162	27
163	43
164	25
165	159
166	149
167	67
168	57
169	83
171	24
173	24
175	87
176	29
177	60
179	99
180	73
182	32
185	51
189	80
191	35
192	283
193	160
194	214
195	81
207	78
208	152
209	31
218	31
220	39
221	52
222	30
232	26
236	385
237	120
254	207
255	100
