Mass Spectrum: Cloxazolam
Formula: C17 H14 Cl2 N2 O2
CAS: 24166-13-0
Molecular weight: 348
Origin: Patti Price, Georgia Bureau of Investigation, Decatur, Georgia
m/z	RELATIVE INTENSITY
40	30
42	70
43	430
44	90
45	450
50	140
51	280
62	320
63	580
64	140
74	250
75	880
76	180
77	210
81	130
82	60
84	40
85	80
86	300
87	740
88	850
89	1181
90	190
93	90
94	90
95	130
96	150
97	160
98	130
99	350
100	100
101	480
102	1121
105	70
106	80
108	380
110	220
111	300
112	110
113	250
114	110
116	50
117	60
118	20
119	120
120	70
121	60
123	400
124	480
126	950
127	550
128	60
129	30
135	160
136	180
137	380
138	260
139	160
140	180
143	320
144	210
149	220
150	590
151	530
152	200
153	150
161	390
162	1661
163	1811
164	1661
165	390
166	100
173	30
174	330
175	610
176	1621
177	600
178	290
179	100
186	50
188	500
189	510
190	1871
191	2882
192	660
197	190
198	980
199	1851
200	660
201	1070
202	710
203	1591
204	930
205	540
206	200
207	110
210	130
212	410
213	100
214	190
216	150
217	360
218	210
224	360
225	900
226	4083
227	3893
228	2041
229	1181
230	240
232	70
233	160
235	430
237	230
238	1030
239	630
240	1101
241	330
242	230
243	80
248	60
250	50
251	130
252	670
253	300
254	470
255	100
260	370
261	4844
262	5014
263	3333
264	3052
265	760
266	570
269	130
270	4444
271	750
272	1391
273	270
274	1050
275	280
276	620
277	200
278	200
288	120
290	70
292	30
304	300
305	9999
306	1931
307	6595
308	1411
309	1191
310	210
318	50
320	60
