Mass Spectrum: Pyrazine, 2-methoxy-3-(1-methylpropyl)-
Formula: C9 H14 N2 O
CAS: 24168-70-5
Molecular weight: 166
Origin: Japan AIST/NIMC Database- Spectrum MS-IW- 943
m/z	RELATIVE INTENSITY
14	10
15	219
26	109
27	489
28	649
29	769
30	60
31	10
37	30
38	80
39	689
40	869
41	1299
42	549
43	90
44	40
45	20
50	50
51	139
52	449
53	489
54	569
55	299
56	559
57	189
58	30
60	10
62	10
63	20
64	40
65	159
66	229
67	329
68	689
69	249
70	20
71	10
74	10
75	10
76	10
77	40
78	449
79	469
80	509
81	889
82	289
83	239
84	20
90	10
91	10
92	269
93	559
94	429
95	709
96	119
97	30
104	10
105	1209
106	259
107	639
108	569
109	1389
110	179
111	189
112	10
117	30
118	119
119	669
120	209
121	249
122	139
123	1659
124	6459
125	489
126	30
131	30
132	30
133	119
134	50
135	219
136	109
137	3109
138	9999
139	859
140	50
147	10
148	10
149	60
150	30
151	4549
152	449
153	30
165	159
166	139
167	80
