Mass Spectrum: Propanenitrile, 3-bromo-
Formula: C3 H4 Br N
CAS: 2417-90-5
Molecular weight: 133
Origin: NIST Mass Spectrometry Data Center, 1998.
m/z	RELATIVE INTENSITY
12	10
13	10
14	40
15	10
24	40
25	170
26	1160
27	1410
28	1580
29	30
36	60
37	200
38	330
39	280
40	240
41	20
50	160
51	1430
52	2960
53	2480
54	9999
55	370
56	10
79	550
80	140
81	560
82	140
83	20
91	100
92	100
93	2430
94	130
95	2300
96	20
103	10
104	50
105	120
106	140
107	110
108	90
109	10
117	10
118	10
129	10
130	10
131	20
133	4840
134	220
135	4670
136	180
