Mass Spectrum: 6-Methyl-5-octen-2-one
Formula: C9 H16 O
CAS: 24199-46-0
Molecular weight: 140
Origin: NIST Mass Spectrometry Data Center, 1994
m/z	RELATIVE INTENSITY
12	10
13	14
14	135
15	1160
16	9
17	10
18	21
19	11
26	211
27	1904
28	380
29	1173
30	41
37	37
39	2333
40	420
41	3194
42	37
43	9999
44	217
45	121
46	8
50	180
51	346
52	161
53	882
54	8
55	5273
56	308
57	224
58	555
59	70
61	14
62	41
63	94
65	244
67	3400
68	254
69	475
70	538
71	660
72	43
77	207
79	327
81	676
82	2643
83	697
84	66
85	26
91	138
92	97
93	312
94	51
95	80
96	52
97	212
98	30
105	34
107	355
108	38
109	33
110	30
111	752
112	66
122	1162
123	147
125	160
126	16
140	111
141	12
