Mass Spectrum: 4,4'-Biphthalic anhydride
Formula: C16 H6 O6
CAS: 2420-87-3
Molecular weight: 294
Origin: Japan AIST/NIMC Database- Spectrum MS-NW-9451
m/z	RELATIVE INTENSITY
28	60
37	10
38	20
39	20
43	10
44	90
49	20
50	469
51	60
53	20
55	10
59	10
61	149
62	589
63	109
69	10
73	90
74	1319
75	1899
76	159
77	30
85	60
86	139
87	149
88	30
89	499
97	40
98	489
99	309
100	1769
101	159
103	929
104	10
109	30
110	80
111	99
112	10
116	10
120	10
121	20
122	119
123	139
124	99
125	10
128	50
137	40
138	20
146	40
147	10
148	10
149	239
150	2639
151	349
152	20
166	10
177	30
178	4239
179	609
180	50
194	10
221	30
222	1719
223	259
224	30
249	20
250	9999
251	1659
252	209
253	20
294	4229
295	749
296	109
297	10
