Mass Spectrum: Mianserin
Formula: C18 H20 N2
CAS: 24219-97-4
Molecular weight: 264
Origin: NIST Mass Spectrometry Data Center, 1998.
m/z	RELATIVE INTENSITY
15	40
26	10
27	80
28	110
29	40
30	40
39	160
40	20
41	100
42	1550
43	2990
44	300
45	10
50	60
51	200
52	60
53	20
54	60
55	30
56	350
57	250
58	460
59	30
62	50
63	240
64	60
65	190
66	20
67	10
68	10
70	380
71	2430
72	2700
73	150
74	40
75	100
76	130
77	260
78	80
79	10
80	10
82	80
83	40
85	230
86	150
87	60
88	80
89	400
90	290
91	290
92	30
93	20
95	60
97	10
98	10
99	20
100	20
101	60
102	140
103	100
104	40
105	20
106	30
107	10
109	40
110	40
111	10
112	10
113	70
114	50
115	410
116	160
117	120
118	70
119	10
121	10
122	10
123	20
124	10
125	30
126	70
127	90
128	140
129	40
130	100
131	50
132	300
137	30
138	30
139	250
140	130
141	40
142	20
143	20
144	60
145	20
146	20
149	10
150	80
151	170
152	360
153	100
154	40
155	10
157	10
158	30
159	10
161	20
162	40
163	320
164	390
165	2110
166	550
167	250
168	40
171	10
174	20
175	30
176	290
177	310
178	1970
179	1490
180	290
181	40
185	10
187	20
188	40
189	190
190	560
191	1280
192	2420
193	9999
194	1670
195	140
201	10
202	70
203	130
204	480
205	250
206	440
207	230
208	380
209	60
214	10
215	20
216	60
217	180
218	290
219	180
220	2500
221	710
222	90
223	10
230	20
231	20
232	50
233	60
234	30
235	70
236	30
245	10
246	10
247	40
248	40
249	800
250	140
251	20
261	20
262	90
263	140
264	4800
265	1020
266	90
267	10
