Mass Spectrum: Bicyclo[3.2.0]hepta-2,6-diene
Formula: C7 H8
CAS: 2422-86-8
Molecular weight: 92
Origin: C.LIFSHITZ DEPT. PHYS. CHEM., HEBREW UNIV., JERUSALEM, ISRAEL
m/z	RELATIVE INTENSITY
27	336
39	1432
40	403
50	336
51	559
63	447
65	1298
66	1409
91	9999
92	3490
