Mass Spectrum: Benz[a]anthracene, 12-methyl-
Formula: C19 H14
CAS: 2422-79-9
Molecular weight: 242
m/z	RELATIVE INTENSITY
35	10
36	20
37	30
38	90
39	310
40	290
41	90
42	20
43	40
44	70
45	50
47	10
49	20
50	200
51	220
52	90
53	10
54	10
55	30
56	40
57	80
58	10
59	20
61	20
62	100
63	220
64	30
65	20
67	10
68	10
69	10
70	10
71	20
72	10
73	20
74	140
75	130
80	50
81	30
82	20
83	10
85	30
86	100
87	180
88	80
89	50
90	10
91	20
93	40
94	100
95	60
97	10
98	100
99	90
100	140
101	90
102	20
103	10
105	40
106	160
107	200
108	170
109	10
110	60
111	70
112	120
113	410
114	40
115	40
116	10
117	20
118	160
119	470
120	1111
121	831
122	50
123	30
124	10
125	20
126	40
127	20
128	10
133	10
134	20
135	20
136	10
137	30
138	20
139	60
140	10
146	10
147	10
149	20
150	70
151	40
152	30
153	10
158	10
159	10
161	30
162	30
163	100
164	30
165	60
166	10
169	10
173	10
174	50
175	30
176	60
177	10
178	10
185	20
186	30
187	140
188	50
189	120
190	20
191	10
196	10
197	10
198	30
199	30
200	120
201	50
202	120
203	30
209	10
210	10
211	110
212	50
213	280
214	70
215	711
216	140
217	10
222	10
223	20
224	140
225	70
226	500
227	160
228	60
229	20
233	10
234	10
235	60
236	50
237	510
238	200
239	3143
240	1651
241	4034
242	9999
243	1972
244	200
245	10
