Mass Spectrum: Cyclopropanemethanol, .alpha.-methyl-.alpha.-propyl-
Formula: C8 H16 O
CAS: 24230-08-8
Molecular weight: 128
Origin: CARL DJERASSI DEPT OF CHEM STANFORD UNIV STANFORD CALIF 94305
m/z	RELATIVE INTENSITY
41	1700
42	200
43	9999
44	300
45	900
53	400
54	100
55	500
56	100
57	300
58	200
65	200
67	1400
68	100
69	600
71	1700
72	500
81	400
82	200
85	2500
86	400
87	300
95	400
110	200
113	300
