Mass Spectrum: 9-Octadecenal, (Z)-
Formula: C18 H34 O
CAS: 2423-10-1
Molecular weight: 266
Origin: R.T.HOLMAN,UNIVERSITY OF MINNESOTA
m/z	RELATIVE INTENSITY
39	1620
40	290
41	8790
42	1460
43	6380
44	840
45	160
51	100
52	80
53	1080
54	3290
55	9999
56	3330
57	4890
58	440
59	120
65	270
66	440
67	5540
68	3090
69	6620
70	3770
71	1800
72	480
73	60
77	300
78	150
79	1600
80	1440
81	4610
82	4130
83	5300
84	2650
85	1040
86	180
91	200
92	70
93	1320
94	1160
95	3610
96	3170
97	3490
98	3970
99	500
100	100
105	60
107	840
108	780
109	1640
110	1160
111	2080
112	1400
113	200
114	60
121	1600
122	680
123	760
124	680
125	680
126	340
127	100
135	960
136	440
137	400
138	480
139	240
140	200
141	70
149	370
150	150
151	150
152	310
153	140
154	130
163	150
164	70
165	100
166	260
167	100
168	80
177	70
179	70
180	120
181	70
182	280
194	70
195	70
196	60
209	60
210	60
222	90
223	100
248	600
249	120
266	334
267	70
