Mass Spectrum: Pyrazine, 1,4-dioxide
Formula: C4 H4 N2 O2
CAS: 2423-84-9
Molecular weight: 112
m/z	RELATIVE INTENSITY
37	200
38	333
39	600
40	933
41	800
42	333
43	333
44	333
50	267
51	333
52	1400
53	667
54	333
55	267
56	600
66	200
67	200
68	200
80	533
85	267
95	200
96	800
112	9999
113	600
