Mass Spectrum: Eicosanedioic acid
Formula: C20 H38 O4
CAS: 2424-92-2
Molecular weight: 342
Origin: Japan AIST/NIMC Database- Spectrum MS-NW-8111
m/z	RELATIVE INTENSITY
15	10
17	90
18	489
26	20
27	339
28	259
29	929
30	30
31	70
32	20
39	309
40	70
41	2849
42	629
43	3029
44	159
45	409
46	10
47	10
51	20
52	20
53	169
54	319
55	4369
56	809
57	1929
58	379
59	369
60	1659
61	319
62	10
65	40
66	50
67	749
68	579
69	2609
70	589
71	1159
72	99
73	1919
74	189
75	20
77	40
78	30
79	219
80	399
81	859
82	689
83	1999
84	4539
85	819
86	80
87	379
88	50
89	10
91	50
92	30
93	259
94	529
95	769
96	729
97	1649
98	9999
99	1099
100	139
101	259
102	50
103	10
104	10
105	40
106	30
107	239
108	499
109	469
110	379
111	949
112	3229
113	459
114	129
115	239
116	119
117	20
119	70
120	50
121	479
122	329
123	309
124	219
125	549
126	1019
127	229
128	50
129	479
130	739
131	90
132	20
133	80
134	70
135	409
136	179
137	189
138	179
139	259
140	559
141	119
142	30
143	229
144	259
145	30
147	60
148	60
149	219
150	119
151	129
152	159
153	189
154	639
155	109
156	30
157	139
158	80
159	10
160	20
161	40
162	20
163	109
164	80
165	90
166	109
167	149
168	499
169	99
170	20
171	139
172	90
173	20
175	30
176	10
177	70
178	50
179	60
180	80
181	109
182	389
183	90
184	20
185	189
186	90
187	20
189	20
190	10
191	50
192	40
193	50
194	70
195	90
196	279
197	129
198	20
199	169
200	70
201	10
203	10
204	10
205	30
206	30
207	40
208	90
209	129
210	229
211	60
212	20
213	90
214	40
215	10
219	30
220	30
221	40
222	149
223	129
224	169
225	50
226	40
227	70
228	60
229	10
233	20
234	20
235	40
236	50
237	80
238	99
239	30
240	50
241	80
242	90
243	10
245	10
246	20
247	50
248	10
249	40
250	80
251	50
252	50
253	10
255	149
256	30
260	20
261	10
262	30
263	70
264	169
265	219
266	40
267	10
268	99
269	50
270	20
277	30
278	279
279	60
280	70
281	30
282	40
283	40
284	10
287	10
288	80
289	30
296	10
298	999
299	209
300	20
304	10
305	60
306	869
307	199
308	20
323	20
324	769
325	259
326	40
342	30
343	10
