Mass Spectrum: Methyldiallylamine
Formula: C7 H13 N
CAS: 2424-01-3
Molecular weight: 111
Origin: V.G.Zaikin, Petrochem. Synth. Inst., Moscow
m/z	RELATIVE INTENSITY
25	80
26	490
27	1131
28	450
29	210
30	260
31	30
37	450
38	851
39	5945
40	931
41	9999
42	9198
43	591
44	851
45	20
50	40
51	100
52	520
53	410
54	540
55	550
56	320
57	571
65	60
66	60
67	190
68	1241
69	240
70	851
71	60
79	60
80	80
81	180
82	1171
83	180
84	3914
85	190
94	180
95	60
96	450
97	30
110	310
111	631
112	60
