Mass Spectrum: 2-Propen-1-amine, N-ethyl-
Formula: C5 H11 N
CAS: 2424-02-4
Molecular weight: 85
Origin: NIST Mass Spectrometry Data Center, 1990.
m/z	RELATIVE INTENSITY
13	90
14	193
15	860
16	35
17	83
18	321
25	116
26	963
27	3143
28	7645
29	2235
30	5645
31	120
34	167
35	95
36	35
37	206
38	616
39	3001
40	35
41	9999
42	3092
43	1744
44	834
45	63
51	103
52	276
53	123
54	488
55	194
56	1734
57	647
58	3708
59	200
67	277
68	732
70	7666
71	444
80	75
82	102
84	1007
85	2326
86	165
