Mass Spectrum: Captafol
Formula: C10 H9 Cl4 N O2 S
CAS: 2425-06-1
Molecular weight: 347
Origin: ACCUSTANDARD Chemicals / NIST MS Data Center.
m/z	RELATIVE INTENSITY
15	10
17	15
18	7
25	52
26	158
27	840
28	705
29	47
30	29
32	194
35	134
36	87
37	80
38	171
39	997
40	163
41	301
42	59
43	48
44	135
45	132
46	240
47	103
48	117
49	88
50	335
51	617
52	473
53	549
54	311
55	151
56	195
57	265
58	32
59	72
60	200
61	34
62	79
63	119
64	55
65	278
66	147
67	241
68	71
69	77
70	637
71	52
72	308
73	22
74	211
75	106
76	506
77	2286
78	1999
79	9999
80	2593
81	414
82	156
83	398
84	54
85	245
86	52
87	64
90	92
91	131
92	435
93	119
94	296
95	304
96	103
97	169
98	71
99	70
101	37
102	55
103	24
104	375
105	713
106	455
107	1182
108	238
109	99
110	49
111	250
112	56
113	24
114	604
115	141
116	198
117	112
119	71
121	315
122	279
123	47
124	53
125	81
126	66
127	226
128	97
129	281
130	654
131	179
132	377
133	85
134	642
135	57
136	118
137	46
138	48
140	43
142	465
143	80
144	170
145	33
147	32
148	324
149	851
150	1120
151	145
152	32
153	36
154	191
155	76
156	237
158	93
161	155
162	310
163	225
164	379
165	520
166	166
167	617
168	117
169	561
170	93
171	312
172	65
173	74
174	41
178	117
179	575
180	148
181	140
182	833
183	1070
184	220
185	83
186	49
189	27
194	51
196	38
197	4
198	38
199	24
200	32
201	25
202	46
204	105
206	93
207	5
208	39
213	99
215	54
217	38
232	37
236	268
237	38
238	217
239	50
240	96
242	202
243	39
244	96
248	76
250	64
256	26
258	49
260	214
261	48
262	152
263	26
264	516
265	88
266	369
267	68
268	63
272	16
273	65
274	46
275	16
276	538
277	477
278	386
279	261
280	112
281	28
282	48
283	65
285	69
287	37
301	3
307	38
308	46
309	6
311	1226
312	849
313	1412
314	794
315	565
316	302
317	134
318	73
343	40
345	72
347	467
349	606
350	102
351	345
352	54
353	62
