Mass Spectrum: Hydroperoxide, 1-ethylbutyl
Formula: C6 H14 O2
CAS: 24254-56-6
Molecular weight: 118
Origin: J.Polzer ET AL.J.Chromatogr.,653,283(1993)
m/z	RELATIVE INTENSITY
19	120
25	50
26	591
27	3753
28	941
29	3833
30	240
31	2102
37	170
38	370
39	2813
40	400
41	5535
42	2202
43	9999
44	1702
45	611
50	220
51	290
52	120
53	571
54	100
55	7096
56	1231
57	3533
58	1081
59	4674
60	170
61	50
63	50
65	70
67	170
69	671
70	70
71	911
72	611
73	1922
74	100
75	400
77	30
79	30
83	170
84	971
85	1531
86	100
89	180
98	70
100	540
101	70
