Mass Spectrum: Dodecane, 5,8-diethyl-
Formula: C16 H34
CAS: 24251-86-3
Molecular weight: 226
m/z	RELATIVE INTENSITY
37	20
38	30
39	1081
40	180
41	5205
42	1011
43	5795
44	200
45	10
46	10
47	10
48	10
49	10
50	20
51	50
52	40
53	370
54	230
55	2532
56	1171
57	9999
58	490
59	10
60	10
61	10
62	10
63	10
64	10
65	60
66	30
67	240
68	110
69	931
70	931
71	3753
72	210
73	10
74	10
75	10
76	10
77	50
78	10
79	50
80	10
81	80
82	40
83	300
84	180
85	2382
86	170
87	10
88	10
89	10
90	10
91	20
92	10
93	10
94	10
95	30
96	30
97	160
98	1171
99	801
100	60
101	10
102	10
103	10
104	10
105	10
106	10
107	10
108	10
109	10
110	20
111	70
112	220
113	500
114	50
115	10
116	10
117	10
118	10
119	10
120	10
121	10
122	10
123	10
124	10
125	40
126	80
127	330
128	30
129	10
130	10
131	10
132	10
133	10
134	10
135	10
136	10
137	10
138	10
139	50
140	20
141	160
142	20
143	10
144	10
145	10
146	10
147	10
148	10
149	10
150	10
151	10
152	10
153	10
154	30
155	90
156	10
157	10
158	10
159	10
160	10
161	10
162	10
163	10
164	10
165	10
166	10
167	20
168	140
169	530
170	70
171	10
172	10
173	10
174	10
175	10
176	10
177	10
178	10
179	10
180	10
181	10
182	10
183	20
184	10
185	10
186	10
187	10
188	10
189	10
190	10
191	10
192	10
193	10
194	10
195	10
196	230
197	1091
198	170
199	10
200	10
201	10
202	10
203	10
204	10
205	10
206	10
207	10
208	10
209	10
210	10
211	10
212	10
213	10
214	10
215	10
216	10
217	10
218	10
219	10
220	10
221	10
222	10
223	10
224	10
225	10
226	10
227	10
228	10
