Mass Spectrum: Formamide, N-(1,1-dimethylethyl)-
Formula: C5 H11 N O
CAS: 2425-74-3
Molecular weight: 101
Origin: Japan AIST/NIMC Database- Spectrum MS-NW-6060
m/z	RELATIVE INTENSITY
14	50
15	639
16	30
17	20
18	99
25	10
26	129
27	699
28	659
29	1059
30	699
31	20
37	60
38	119
39	979
40	259
41	3319
42	1739
43	409
44	179
45	139
46	5369
47	90
48	10
49	10
50	70
51	80
52	60
53	90
54	90
55	419
56	1649
57	1099
58	9999
59	499
60	10
70	40
71	10
72	20
84	40
85	20
86	4179
87	219
88	10
100	10
101	1139
102	80
