Mass Spectrum: 5-Hexen-3-one
Formula: C6 H10 O
CAS: 24253-30-3
Molecular weight: 98
Origin: CARL DJERASSI DEPT OF CHEM STANFORD UNIV STANFORD CALIF 94305
m/z	RELATIVE INTENSITY
27	1700
28	600
29	9999
30	200
39	2000
40	300
41	3700
42	400
57	9999
58	400
69	3400
70	200
98	1400
99	100
