Mass Spectrum: Hydrocinnamic acid, .beta.-methyl-p-nitro-, methyl ester
Formula: C11 H13 N O4
CAS: 24254-61-3
Molecular weight: 223
m/z	RELATIVE INTENSITY
55	20
59	250
60	10
69	30
74	1902
75	70
76	10
77	40
78	30
79	30
91	130
92	420
93	40
103	140
104	460
105	180
106	801
107	90
116	160
117	330
118	180
119	320
120	601
121	90
132	30
133	410
134	150
135	150
136	170
137	10
147	240
148	30
149	60
150	4824
151	460
152	30
162	80
163	9999
164	1501
165	160
166	981
167	90
176	200
177	40
178	30
180	30
181	60
191	100
192	981
193	581
194	80
205	70
206	120
207	110
208	410
209	50
223	2853
224	380
225	30
