Mass Spectrum: Oxirane, (butoxymethyl)-
Formula: C7 H14 O2
CAS: 2426-08-6
Molecular weight: 130
Origin: Japan AIST/NIMC Database- Spectrum MS-NW- 961
m/z	RELATIVE INTENSITY
14	90
15	619
16	20
17	30
18	80
19	10
25	20
26	369
27	3509
28	1249
29	9999
30	679
31	7989
32	99
33	60
36	20
37	40
38	90
39	1249
40	309
41	6499
42	609
43	2159
44	999
45	2109
46	70
49	10
50	30
51	40
52	10
53	129
54	70
55	5409
56	2819
57	8949
58	4349
59	349
60	20
61	30
67	40
68	10
69	40
70	20
71	359
72	129
73	1889
74	119
75	30
81	20
83	10
85	139
86	10
87	429
88	20
89	10
99	40
100	20
