Mass Spectrum: 11H-Indeno(1,2-b)quinoline
Formula: C16 H11 N
CAS: 243-51-6
Molecular weight: 217
Origin: M. OEHME, NORW. INST. AIR RES., LILLESTROM, NORWAY
m/z	RELATIVE INTENSITY
50	260
51	310
52	70
62	200
63	450
64	90
74	140
75	180
76	90
81	490
86	120
87	200
88	160
89	210
94	1180
95	720
99	60
101	60
107	2210
108	3050
110	70
113	200
114	100
115	100
137	70
138	70
139	120
140	160
150	100
162	80
163	250
164	160
165	130
177	70
187	300
188	350
189	770
190	500
191	80
213	70
214	780
215	710
216	3440
217	9999
218	1690
219	140
