Mass Spectrum: Indeno[2,1-b]chromene,
Formula: C16 H10 O
CAS: 243-24-3
Molecular weight: 218
Origin: A.A.Kutin, Moscow, Russia
m/z	RELATIVE INTENSITY
33	2
34	2
36	3
37	18
38	76
39	262
40	55
41	46
42	13
43	47
44	54
45	7
50	226
51	212
52	36
53	22
54	12
55	66
56	21
57	27
59	69
60	13
61	52
62	214
63	385
64	58
65	38
66	10
67	37
68	59
69	82
70	19
71	16
72	49
73	72
74	251
75	193
76	85
77	59
78	11
79	12
81	903
84	26
85	55
86	182
87	242
88	113
89	90
90	13
91	45
92	42
94	2754
96	128
97	33
98	120
99	72
100	32
101	23
102	15
103	2
105	6
106	2
109	2252
111	94
112	39
113	116
114	70
115	47
116	4
120	3
121	10
122	39
123	27
124	14
125	24
126	40
127	13
128	7
129	2
131	3
133	10
134	20
135	23
136	13
137	86
138	54
139	147
140	20
142	3
145	1
146	7
147	4
148	1
149	27
150	79
151	39
152	13
153	3
158	3
159	6
160	10
161	88
162	151
163	543
164	135
165	23
166	5
168	7
174	9
175	3
176	3
179	9
180	2
181	1
182	4
183	6
185	28
186	122
187	805
188	741
189	3197
190	504
191	39
192	10
199	3
200	5
208	2
212	8
213	8
214	11
216	109
218	9999
219	1759
220	170
221	14
