Mass Spectrum: Vinylbital
Formula: C11 H16 N2 O3
CAS: 2430-49-1
Molecular weight: 224
Origin: Drug Lab
m/z	RELATIVE INTENSITY
40	200
41	1631
42	350
43	4104
44	380
45	10
50	30
51	120
52	140
53	430
54	280
55	961
56	80
57	10
62	10
63	40
64	20
65	290
66	240
67	611
68	110
69	180
70	320
71	1101
72	60
77	180
78	50
79	260
80	90
81	150
82	250
83	2132
84	130
85	10
87	10
91	60
92	30
93	50
94	90
95	160
96	60
97	20
98	120
106	10
107	20
108	30
109	60
110	180
111	50
112	140
113	10
120	10
121	30
122	10
123	20
124	40
125	10
126	100
135	30
136	20
137	30
138	80
139	10
141	50
152	30
153	891
154	9999
155	961
156	100
167	20
181	70
182	10
195	40
