Mass Spectrum: 8-Heptadecene, 9-octyl-
Formula: C25 H50
CAS: 24306-18-1
Molecular weight: 350
m/z	RELATIVE INTENSITY
17	50
18	180
25	30
26	150
27	1802
28	430
29	4614
30	110
31	10
32	50
36	10
37	30
38	40
39	751
40	190
41	6246
42	951
43	9218
44	320
45	10
50	30
51	40
52	40
53	571
54	1001
55	9999
56	6696
57	9659
58	430
59	10
61	10
62	10
63	10
65	140
66	150
67	3073
68	2372
69	8778
70	2052
71	3393
72	190
73	10
74	10
75	10
76	10
77	250
78	80
79	711
80	250
81	2402
82	1101
83	7817
84	1321
85	2282
86	160
87	10
89	10
91	220
92	50
93	250
94	120
95	1461
96	1001
97	5655
98	2392
99	761
100	50
101	10
102	10
103	20
104	20
105	70
106	30
107	70
108	40
109	611
110	561
111	3313
112	841
113	360
114	30
115	10
116	10
117	20
118	10
119	20
120	10
121	30
122	10
123	200
124	170
125	1081
126	1541
127	290
128	30
129	10
130	10
131	10
132	10
133	10
134	10
135	10
136	10
137	130
138	901
139	3934
140	971
141	190
142	20
143	10
145	10
146	10
147	10
149	10
150	10
151	110
152	160
153	310
154	4224
155	1441
156	150
157	10
163	10
164	10
165	60
166	50
167	190
168	130
169	70
170	10
177	10
178	10
179	50
180	40
181	140
182	70
183	50
184	10
191	10
192	10
193	40
194	20
195	50
196	50
197	30
198	10
199	10
200	10
201	10
202	10
207	10
208	10
209	20
210	50
211	20
221	10
222	10
223	10
224	160
225	30
226	10
235	40
236	120
237	310
238	160
239	30
249	10
250	10
251	10
252	751
253	300
254	50
255	10
263	30
264	10
265	10
266	10
