Mass Spectrum: Butanethioic acid, S-methyl ester
Formula: C5 H10 O S
CAS: 2432-51-1
Molecular weight: 118
Origin: W. UTILIZATION R & D DIV., U.S. DEPT. OF AGRIC., ALBANY, CAL.
m/z	RELATIVE INTENSITY
27	1803
28	190
29	144
35	51
39	793
40	93
41	3644
42	517
43	9999
44	268
45	501
46	214
47	754
48	346
49	117
55	404
56	31
57	35
58	51
59	47
60	27
61	167
69	43
70	70
71	3644
72	128
75	548
76	27
77	35
103	839
104	39
105	47
118	1535
119	51
120	51
