Mass Spectrum: Propanethioic acid, S-butyl ester
Formula: C7 H14 O S
CAS: 2432-44-2
Molecular weight: 146
Origin: W. UTILIZATION R & D DIV., U.S. DEPT. OF AGRIC., ALBANY, CAL.
m/z	RELATIVE INTENSITY
27	597
28	106
29	2669
30	76
35	40
39	278
40	23
41	859
42	99
43	152
45	215
46	133
47	368
53	73
54	46
55	365
56	607
57	9999
58	411
59	126
60	93
61	149
71	27
72	60
73	43
75	56
86	278
88	96
89	70
90	133
91	491
117	305
146	1124
147	76
148	56
