Mass Spectrum: Acetic acid, thio-, S-1-methylbutyl ester
Formula: C7 H14 O S
CAS: 2432-40-8
Molecular weight: 146
Origin: W. UTILIZATION R & D DIV., U.S. DEPT. OF AGRIC., ALBANY, CAL.
m/z	RELATIVE INTENSITY
27	426
29	540
35	65
39	550
40	69
41	1905
42	719
43	9999
44	275
45	354
46	76
47	364
53	199
54	69
55	1702
56	107
57	76
58	117
59	388
60	251
61	894
67	69
69	358
70	3596
71	1066
72	1238
73	210
74	316
75	994
76	437
77	1526
78	72
79	79
85	100
86	96
89	110
102	158
103	499
104	189
113	117
117	196
128	13
131	17
146	1526
147	83
148	65
