Mass Spectrum: Phenol, 2,6-dibromo-4-methyl-
Formula: C7 H6 Br2 O
CAS: 2432-14-6
Molecular weight: 264
Origin: Japan AIST/NIMC Database- Spectrum MS-NW-6517
m/z	RELATIVE INTENSITY
14	10
15	20
25	50
26	119
27	309
28	109
29	80
36	30
37	289
38	829
39	479
40	30
41	20
42	10
43	90
44	30
45	10
48	30
49	229
50	1139
51	2659
52	649
53	1109
54	60
55	80
57	10
60	50
61	259
62	409
63	319
64	30
65	60
66	119
67	50
72	10
73	119
74	389
75	769
76	649
77	4349
78	2239
79	259
80	159
81	129
82	139
83	40
84	30
85	50
86	70
87	60
88	40
89	40
90	40
91	30
92	549
93	529
94	40
101	10
103	20
104	40
105	859
106	549
107	70
108	10
109	50
116	40
117	80
118	40
119	70
124	10
128	50
129	70
130	60
131	129
132	90
133	199
134	80
135	10
140	10
141	50
142	20
143	50
144	10
154	10
155	219
156	319
157	329
158	329
159	149
160	10
167	30
168	10
169	20
170	10
183	269
184	129
185	5939
186	579
187	5699
188	459
189	40
197	10
235	10
237	20
239	10
246	10
248	20
250	10
262	10
263	639
264	5229
265	1629
266	9999
267	1359
268	4829
269	389
270	30
