Mass Spectrum: Pentanethioic acid, S-ethyl ester
Formula: C7 H14 O S
CAS: 2432-92-0
Molecular weight: 146
Origin: W. UTILIZATION R & D DIV., U.S. DEPT. OF AGRIC., ALBANY, CAL.
m/z	RELATIVE INTENSITY
27	799
28	285
29	3124
30	51
35	174
39	439
41	3907
42	225
43	186
45	159
46	91
47	166
53	87
55	641
56	336
57	9999
58	368
59	150
60	95
61	344
62	142
63	55
75	55
76	142
85	7236
86	289
89	210
117	3199
118	108
119	91
146	87
