Mass Spectrum: Propanethioic acid, S-(1-methylethyl) ester
Formula: C6 H12 O S
CAS: 2432-47-5
Molecular weight: 132
Origin: W. UTILIZATION R & D DIV., U.S. DEPT. OF AGRIC., ALBANY, CAL.
m/z	RELATIVE INTENSITY
27	924
28	334
29	2483
30	74
35	46
39	615
40	91
41	1904
42	302
43	2638
44	74
45	235
46	53
47	270
49	77
55	98
56	464
57	9999
58	499
59	509
60	214
61	404
71	60
72	277
73	74
74	450
75	221
76	81
89	49
90	509
91	140
103	42
117	21
132	2753
133	158
134	130
