Mass Spectrum: Ethanethioic acid, S-(3-methylbutyl) ester
Formula: C7 H14 O S
CAS: 2432-38-4
Molecular weight: 146
Origin: W. UTILIZATION R & D DIV., U.S. DEPT. OF AGRIC., ALBANY, CAL.
m/z	RELATIVE INTENSITY
27	410
29	413
35	56
39	501
40	67
41	1833
42	547
43	9999
44	273
45	294
46	172
47	498
53	190
54	77
55	1808
56	245
57	420
58	119
59	235
60	168
61	806
67	81
68	91
69	1447
70	4159
71	568
72	81
76	308
77	214
86	3651
87	259
89	291
90	77
102	105
103	568
104	77
131	42
146	445
147	31
148	25
