Mass Spectrum: Undecanoic acid, 2-methyl-
Formula: C12 H24 O2
CAS: 24323-25-9
Molecular weight: 200
Origin: NIST Mass Spectrometry Data Center, 1990.
m/z	RELATIVE INTENSITY
16	26
18	110
26	91
27	1166
28	304
29	1762
30	127
31	134
39	841
40	266
41	3316
42	837
43	2605
44	177
45	690
53	274
54	241
55	2363
56	695
57	1049
58	85
59	352
67	222
68	125
69	985
70	198
71	390
72	85
73	1049
74	9999
75	426
76	58
81	102
82	79
83	328
84	80
85	154
86	58
87	4176
88	252
97	266
98	241
101	494
111	106
112	68
115	220
129	758
130	86
143	1098
144	97
157	437
171	71
200	203
