Mass Spectrum: Ethanethioic acid, S-(1-methylpropyl) ester
Formula: C6 H12 O S
CAS: 2432-39-5
Molecular weight: 132
Origin: W. UTILIZATION R & D DIV., U.S. DEPT. OF AGRIC., ALBANY, CAL.
m/z	RELATIVE INTENSITY
27	512
29	1234
35	108
39	747
40	101
41	2819
42	267
43	9999
44	256
45	415
46	83
47	303
53	202
54	61
55	917
56	2422
57	2234
58	271
59	693
60	552
61	1332
62	76
63	65
71	79
72	155
73	97
74	94
75	346
76	819
77	1393
78	90
79	79
88	606
89	458
90	390
99	253
103	325
117	29
132	2718
133	162
134	126
