Mass Spectrum: Ethanethioic acid, S-(2-methylpropyl) ester
Formula: C6 H12 O S
CAS: 2432-37-3
Molecular weight: 132
Origin: W. UTILIZATION R & D DIV., U.S. DEPT. OF AGRIC., ALBANY, CAL.
m/z	RELATIVE INTENSITY
27	321
29	414
39	639
40	83
41	1593
42	229
43	9999
44	258
45	361
46	209
47	401
48	142
49	66
53	116
55	546
56	1606
57	1742
58	156
59	172
60	53
61	99
71	73
73	60
74	129
75	321
76	185
77	166
88	116
89	232
90	139
99	1093
117	73
132	1172
133	66
134	56
