Mass Spectrum: Butanethioic acid, S-butyl ester
Formula: C8 H16 O S
CAS: 2432-52-2
Molecular weight: 160
Origin: W. UTILIZATION R & D DIV., U.S. DEPT. OF AGRIC., ALBANY, CAL.
m/z	RELATIVE INTENSITY
28	120
29	531
39	441
40	49
41	2027
42	293
43	6210
44	210
45	179
46	117
47	376
53	74
54	43
55	537
56	336
57	395
58	68
59	102
60	83
61	157
69	22
70	167
71	9999
72	518
73	74
75	43
76	68
88	62
89	74
90	49
100	213
103	83
105	537
117	259
160	1465
161	114
162	62
