Mass Spectrum: Didodecyl phthalate
Formula: C32 H54 O4
CAS: 2432-90-8
Molecular weight: 502
Origin: Drug Lab
m/z	RELATIVE INTENSITY
50	30
51	10
53	50
54	100
55	811
56	330
57	961
58	40
65	50
66	10
67	130
68	100
69	500
70	210
71	380
72	20
75	10
76	130
77	70
78	10
79	20
81	60
82	70
83	260
84	100
85	200
86	10
93	60
95	20
96	30
97	180
98	50
99	50
104	180
105	120
106	10
110	10
111	70
112	20
113	30
121	80
122	80
123	90
124	10
125	10
127	10
132	20
133	10
135	10
140	30
145	10
146	20
149	9999
150	1001
151	110
160	10
167	230
168	50
169	40
176	20
260	20
274	10
317	50
318	30
335	781
336	170
337	20
