Mass Spectrum: Propanethioic acid, S-(2-methylpropyl) ester
Formula: C7 H14 O S
CAS: 2432-48-6
Molecular weight: 146
Origin: W. UTILIZATION R & D DIV., U.S. DEPT. OF AGRIC., ALBANY, CAL.
m/z	RELATIVE INTENSITY
26	39
27	477
28	214
29	2158
30	59
39	388
40	59
41	1046
42	125
43	437
45	204
46	118
47	234
48	53
53	79
54	39
55	359
56	559
57	9999
58	437
59	99
60	49
61	99
71	59
72	62
73	76
74	53
75	72
88	40
89	66
90	122
91	184
113	319
131	43
146	1460
147	82
148	59
