Mass Spectrum: s-Ethyl thiopropionate
Formula: C5 H10 O S
CAS: 2432-42-0
Molecular weight: 118
Origin: NIST Mass Spectrometry Data Center
m/z	RELATIVE INTENSITY
14	10
15	20
25	20
26	300
27	1461
28	430
29	3193
30	80
31	10
32	30
33	40
34	40
35	220
36	10
37	20
38	10
39	30
41	30
42	90
43	40
44	20
45	611
46	300
47	440
48	20
49	20
53	40
54	10
55	190
56	581
57	9999
58	891
59	500
60	260
61	811
62	240
63	60
64	10
68	10
69	40
70	10
71	50
72	100
73	30
74	20
75	110
76	10
77	10
89	420
90	70
91	20
103	10
118	5345
119	400
120	270
121	20
