Mass Spectrum: Decanoic acid, 2-methyl-
Formula: C11 H22 O2
CAS: 24323-23-7
Molecular weight: 186
Origin: NIST Mass Spectrometry Data Center, 1990.
m/z	RELATIVE INTENSITY
27	547
28	79
29	802
39	612
40	222
41	2170
42	557
43	1450
45	565
53	212
54	166
55	1631
56	595
57	876
59	307
67	171
69	816
70	208
71	289
73	1183
74	9999
75	346
83	284
87	3757
88	244
97	165
98	186
101	340
115	184
129	1046
143	836
186	192
