Mass Spectrum: Hexanethioic acid, S-methyl ester
Formula: C7 H14 O S
CAS: 2432-77-1
Molecular weight: 146
Origin: W. UTILIZATION R & D DIV., U.S. DEPT. OF AGRIC., ALBANY, CAL.
m/z	RELATIVE INTENSITY
27	679
28	371
29	949
35	42
39	562
40	83
41	2506
42	645
43	9999
44	237
45	258
46	100
47	612
48	117
49	67
53	133
55	1728
56	129
57	100
61	146
69	154
70	183
71	5358
72	212
75	654
81	100
90	150
99	4683
100	175
103	37
131	2094
146	54
