Mass Spectrum: Propanethioic acid, S-propyl ester
Formula: C6 H12 O S
CAS: 2432-43-1
Molecular weight: 132
Origin: W. UTILIZATION R & D DIV., U.S. DEPT. OF AGRIC., ALBANY, CAL.
m/z	RELATIVE INTENSITY
27	888
28	448
29	2911
30	87
39	478
40	71
41	1132
42	331
43	1121
44	38
45	384
46	218
47	523
55	109
56	433
57	9999
58	489
59	150
60	71
61	173
71	38
72	90
73	49
74	489
75	147
90	128
91	102
99	38
103	71
132	2211
133	135
134	105
