Mass Spectrum: 5,6-Dihydro-6-methyluracil
Formula: C5 H8 N2 O2
CAS: 2434-49-3
Molecular weight: 128
Origin: NIST Mass Spectrometry Data Center, 1994
m/z	RELATIVE INTENSITY
14	191
15	1185
16	222
18	63
25	51
26	563
27	1622
28	5469
30	172
35	29
37	200
38	439
39	1947
40	1529
41	3374
42	9293
43	6361
44	3162
45	78
51	100
52	188
53	93
54	200
55	80
56	511
57	503
58	36
59	151
67	39
68	244
70	8249
71	322
83	23
84	298
85	167
100	29
112	923
113	9999
114	515
115	63
128	1513
129	111
