Mass Spectrum: 1H-Pyrrole-2,4-dicarboxylic acid, 3,5-dimethyl-, diethyl ester
Formula: C12 H17 N O4
CAS: 2436-79-5
Molecular weight: 239
Origin: NIST Mass Spectrometry Data Center, 1998.
m/z	RELATIVE INTENSITY
14	10
15	60
26	110
27	780
28	340
29	1430
30	70
31	90
37	20
38	90
39	1190
40	400
41	360
42	680
43	530
44	110
45	250
46	50
50	110
51	630
52	460
53	540
54	170
55	150
56	30
60	30
62	60
63	390
64	500
65	3040
66	1790
67	1220
68	120
69	50
70	10
72	10
73	10
74	320
76	90
77	140
78	150
79	1310
80	710
81	240
82	310
83	280
84	30
85	50
89	10
90	250
91	980
92	1340
93	960
94	300
95	100
96	50
97	30
104	30
105	20
106	80
107	90
108	190
109	250
110	130
111	150
112	10
117	10
118	140
119	1110
120	1690
121	1510
122	430
123	180
124	30
132	40
133	10
134	140
135	70
136	410
137	780
138	1070
139	450
140	40
146	110
147	3930
148	9999
149	1710
150	390
151	60
152	40
154	30
160	10
162	90
164	8599
165	3010
166	3700
167	1310
168	140
169	10
174	10
178	90
179	10
180	130
181	30
182	3330
183	540
184	60
192	220
193	3660
194	5999
195	750
196	110
197	10
208	10
210	3430
211	910
212	100
213	10
224	80
225	10
238	70
239	8579
240	1170
241	140
242	10
