Mass Spectrum: 1,1'-Biphenyl, 2,2'-dinitro-
Formula: C12 H8 N2 O4
CAS: 2436-96-6
Molecular weight: 244
Origin: Japan AIST/NIMC Database- Spectrum MS-NW- 501
m/z	RELATIVE INTENSITY
26	30
27	149
28	129
29	30
30	319
31	30
32	10
36	10
37	40
38	119
39	1009
40	50
41	50
42	40
43	30
44	20
45	20
46	40
49	20
50	449
51	709
52	279
53	99
54	10
55	80
56	20
57	40
61	90
62	329
63	1059
64	429
65	279
66	40
67	40
68	20
69	90
70	50
71	30
72	20
73	40
74	449
75	589
76	559
77	539
78	539
79	299
80	90
81	20
82	10
83	10
84	20
85	70
86	209
87	369
88	319
89	739
90	369
91	99
92	169
93	30
94	20
95	80
96	10
97	20
98	159
99	159
100	90
101	309
102	399
103	109
104	149
105	30
106	60
107	10
108	20
109	20
110	60
111	60
112	30
113	439
114	659
115	2769
116	1079
117	119
118	50
119	10
120	10
121	20
122	40
123	20
124	20
125	99
126	369
127	569
128	339
129	109
130	179
131	40
132	30
137	50
138	109
139	3379
140	919
141	1109
142	1049
143	159
144	50
145	20
146	80
147	20
149	20
150	229
151	199
152	259
153	189
154	109
155	109
156	40
157	10
164	30
165	10
166	20
167	40
168	3479
169	589
170	859
171	119
172	20
180	40
181	70
182	299
183	40
196	20
197	30
198	9999
199	1409
200	139
201	10
211	30
214	20
