Mass Spectrum: Quinoline, 2,3,4-trimethyl-
Formula: C12 H13 N
CAS: 2437-72-1
Molecular weight: 171
Origin: CARL DJERASSI DEPT OF CHEM STANFORD UNIV STANFORD CALIF 94305
m/z	RELATIVE INTENSITY
41	50
42	100
44	50
50	150
51	250
52	100
62	100
63	200
64	150
65	150
66	50
74	50
75	100
76	100
77	300
78	50
89	150
101	100
102	150
103	100
110	50
113	50
114	50
115	550
116	250
117	50
118	50
126	50
127	450
128	850
129	550
130	250
131	100
140	100
141	50
142	100
143	350
144	200
153	50
154	350
155	150
156	2150
157	300
167	100
168	250
169	150
170	3900
171	9999
172	1300
173	50
