Mass Spectrum: 1-Octanamine, N-methyl-
Formula: C9 H21 N
CAS: 2439-54-5
Molecular weight: 143
Origin: Japan AIST/NIMC Database- Spectrum MS-IW-3847
m/z	RELATIVE INTENSITY
14	30
15	30
26	10
27	269
28	119
29	359
30	319
31	159
32	30
38	10
39	229
40	40
41	709
42	449
43	509
44	9999
45	489
46	10
51	10
52	10
53	60
54	40
55	339
56	199
57	269
58	1299
59	159
65	10
67	30
68	30
69	149
70	179
71	40
72	40
73	20
79	10
81	10
82	10
83	20
84	50
86	109
87	10
98	10
100	189
101	10
112	10
114	109
115	10
128	70
140	20
142	149
143	989
144	109
