Mass Spectrum: 1-Octadecanamine, N-methyl-
Formula: C19 H41 N
CAS: 2439-55-6
Molecular weight: 283
Origin: Japan AIST/NIMC Database- Spectrum MS-IW-3874
m/z	RELATIVE INTENSITY
15	10
27	90
28	70
29	339
30	199
31	50
39	50
40	10
41	649
42	239
43	989
44	9999
45	429
53	20
54	30
55	569
56	159
57	549
58	759
59	149
67	40
68	30
69	259
70	179
71	129
72	40
73	40
81	20
82	20
83	129
84	60
85	50
86	90
87	20
95	10
96	10
97	60
98	30
99	10
100	119
101	10
111	20
112	10
114	80
115	10
126	10
128	50
129	10
142	40
156	30
169	10
170	30
184	20
198	20
212	20
226	20
240	20
254	30
268	50
269	10
282	179
283	469
284	169
285	20
