Mass Spectrum: Drometrizole
Formula: C13 H11 N3 O
CAS: 2440-22-4
Molecular weight: 225
Origin: NIST Mass Spectrometry Data Center, 2010
m/z	RELATIVE INTENSITY
26	50
27	180
28	100
29	30
37	80
38	210
39	1021
40	270
41	310
42	40
43	40
49	20
50	410
51	1421
52	871
53	561
54	330
55	110
56	10
57	10
58	20
61	40
62	140
63	530
64	651
65	1962
66	2012
67	260
68	20
69	10
70	30
71	60
74	30
75	90
76	250
77	871
78	1231
79	170
80	20
81	10
83	120
87	20
88	30
89	60
90	90
91	811
92	1071
93	3443
94	310
95	20
97	30
98	50
101	30
102	40
103	60
104	70
105	460
106	190
107	140
108	10
112	390
114	20
115	160
116	40
117	60
118	40
119	150
120	320
121	40
126	30
127	150
128	150
129	50
130	140
131	20
132	10
133	10
139	50
140	60
141	200
142	70
143	70
144	20
145	10
151	20
152	40
153	90
154	1291
155	180
156	30
157	10
158	10
166	80
167	661
168	1521
169	260
170	90
171	30
178	20
179	10
180	80
181	40
182	180
183	30
184	50
185	20
194	20
195	50
196	831
197	150
198	20
208	10
209	10
210	20
222	10
223	30
224	831
225	9999
226	1521
227	130
228	10
