Mass Spectrum: Cyclohexene, 3-chloro-
Formula: C6 H9 Cl
CAS: 2441-97-6
Molecular weight: 116
Origin: T.A.BLAZER DU PONT, GIBBSTOWN, N.J., USA
m/z	RELATIVE INTENSITY
12	22
13	23
14	51
15	408
16	10
24	4
25	40
26	513
27	1997
28	243
29	216
30	5
31	39
35	120
36	315
37	291
38	551
39	2407
40	326
41	1524
42	97
43	22
47	11
48	21
49	214
50	810
51	1065
52	669
53	1977
54	973
55	321
56	35
57	123
58	12
59	98
60	22
61	90
62	128
63	224
64	59
65	589
66	321
67	415
68	44
69	5
70	9
72	9
73	98
74	126
75	575
76	83
77	1257
78	426
79	3251
80	3147
81	9999
82	700
83	28
85	9
86	12
87	28
88	973
89	61
90	321
91	21
93	5
96	6
97	6
98	4
99	22
100	15
101	120
102	11
103	36
104	3
105	3
112	5
113	5
114	8
115	49
116	1488
117	131
118	522
119	38
