Mass Spectrum: Ethyl trans-2-pentenoate
Formula: C7 H12 O2
CAS: 24410-84-2
Molecular weight: 128
Origin: F. JUTTNER, INST. CHEM., UNIV. TUBINGEN, TUBINGEN, W. GERMAN
m/z	RELATIVE INTENSITY
26	500
27	1000
29	2300
30	100
38	100
39	1200
41	400
42	200
43	300
45	400
50	200
51	200
53	600
54	600
55	4300
56	500
57	400
58	300
70	100
71	100
82	400
83	9999
84	600
85	300
99	4100
100	1600
101	400
113	200
128	100
129	100
