Mass Spectrum: 5-Aminoindan
Formula: C9 H11 N
CAS: 24425-40-9
Molecular weight: 133
Origin: NIST Mass Spectrometry Data Center
m/z	RELATIVE INTENSITY
14	30
15	130
17	40
18	70
26	150
27	781
28	721
29	60
30	220
37	90
38	310
39	1021
40	170
41	330
42	140
43	20
44	20
50	500
51	1041
52	641
53	380
54	330
55	30
56	10
59	90
61	80
62	240
63	510
65	1201
68	10
73	30
74	160
75	190
76	260
77	1091
78	480
79	410
80	160
81	10
85	20
86	40
87	70
88	40
89	280
90	140
91	340
92	80
93	120
94	10
98	20
99	20
100	10
101	50
102	230
103	490
104	490
105	500
106	470
107	50
113	30
115	1421
116	460
117	1561
118	380
128	40
130	1091
132	9999
133	5915
134	440
135	60
