Mass Spectrum: 1,2-Ethanediamine, N'-(2-aminoethyl)-N,N-diethyl-
Formula: C8 H21 N3
CAS: 24426-16-2
Molecular weight: 159
Origin: RADIAN CORP
m/z	RELATIVE INTENSITY
15	60
16	20
17	40
18	190
26	50
27	290
28	870
29	670
30	2260
31	50
32	110
39	10
40	50
41	220
42	860
43	290
44	1370
45	80
51	20
52	20
53	40
54	130
55	100
56	840
57	240
58	2260
59	110
68	60
69	50
70	240
71	130
72	880
73	370
74	30
80	50
81	30
82	40
83	40
84	90
85	210
86	9999
87	840
88	30
97	40
98	30
99	670
100	190
101	50
113	60
127	10
129	70
142	30
