Mass Spectrum: 4-Ethylphenoxyacetic acid
Formula: C10 H12 O3
CAS: 24431-27-4
Molecular weight: 180
Origin: NIST Mass Spectrometry Data Center
m/z	RELATIVE INTENSITY
12	30
13	70
14	240
15	340
16	40
18	70
19	10
20	20
26	210
27	1211
28	130
29	731
30	260
31	1481
32	90
33	20
36	30
37	210
38	480
39	2092
40	290
41	601
42	360
43	120
45	1311
46	60
50	981
51	2022
52	801
53	721
54	100
55	260
57	30
59	130
60	170
61	160
62	510
63	1281
64	360
65	1171
66	230
67	150
68	30
69	30
73	30
74	210
75	280
77	3823
78	1321
79	1742
80	130
81	80
85	30
87	80
89	891
90	951
91	1621
92	300
93	540
94	90
95	40
96	10
97	40
98	20
99	60
101	30
102	240
103	1061
104	380
105	1161
107	8127
108	581
109	40
111	20
113	20
115	20
117	10
118	60
122	280
123	90
125	10
131	20
133	70
135	450
136	60
138	30
139	40
141	30
146	30
153	20
156	20
157	30
162	10
165	9999
166	1021
167	100
177	20
180	4454
181	510
182	60
