Mass Spectrum: 3-Cyclohexene-1-acetaldehyde
Formula: C8 H12 O
CAS: 24480-99-7
Molecular weight: 124
Origin: H. Luftmann, Org. Chem. Inst., Westfalisch Wilhelms Univ., Munster, Germany
m/z	RELATIVE INTENSITY
38	100
39	1900
40	300
41	1600
42	200
50	200
51	400
52	200
53	700
54	1500
55	900
65	300
66	100
67	900
68	100
70	200
77	700
78	1000
79	4500
80	9999
81	1500
82	100
91	500
93	100
95	300
105	100
106	100
124	300
