Mass Spectrum: 1,3-Propanediol dibenzoate
Formula: C17 H16 O4
CAS: 2451-86-7
Molecular weight: 284
Origin: F. TURECEK,HEYROVSKY INST PHYS CHEM & ELECTROCHEM,PRAGUE,CZECH
m/z	RELATIVE INTENSITY
27	120
29	60
31	40
39	120
41	170
43	40
44	60
50	210
51	830
52	60
54	40
55	40
57	50
67	40
76	140
77	2550
78	240
79	90
82	80
104	390
105	9999
106	800
107	60
117	70
121	140
122	210
134	80
149	70
162	530
163	90
179	440
180	40
227	570
228	100
284	40
