Mass Spectrum: Cyclopentane, 1,3-dimethyl-
Formula: C7 H14
CAS: 2453-00-1
Molecular weight: 98
Origin: NIST Mass Spectrometry Data Center, 1990.
m/z	RELATIVE INTENSITY
15	633
26	408
27	3076
28	1049
29	1527
38	480
39	5088
40	1052
41	6877
42	2275
43	660
50	421
51	609
52	284
53	1207
54	704
55	7983
56	6990
57	1114
63	208
65	341
67	712
68	395
69	2946
70	9999
71	464
77	297
79	349
81	280
82	297
83	2577
98	1296
