Mass Spectrum: Benzenamine, 2-ethyl-6-methyl-
Formula: C9 H13 N
CAS: 24549-06-2
Molecular weight: 135
Origin: Japan AIST/NIMC Database- Spectrum MS-NW-8364
m/z	RELATIVE INTENSITY
15	20
26	10
27	179
28	199
29	40
30	159
37	10
38	50
39	399
40	50
41	169
42	259
43	20
44	10
46	40
47	10
50	99
51	299
52	199
53	199
54	119
55	20
56	10
58	119
59	139
60	179
61	10
62	50
63	159
64	60
65	379
66	109
67	70
68	20
74	30
75	50
76	50
77	839
78	199
79	249
80	109
81	20
87	10
89	109
90	70
91	859
92	229
93	429
94	90
101	10
102	80
103	269
104	159
105	90
106	309
107	99
108	30
115	279
116	90
117	349
118	289
119	439
120	9999
121	919
122	40
130	60
131	20
132	139
133	90
134	399
135	4959
136	509
137	20
