Mass Spectrum: 3,4-Heptadiene
Formula: C7 H12
CAS: 2454-31-1
Molecular weight: 96
Origin: JACSAT, 99(2) 532(1977); C. DJERASSI, STAMFORD UNIVERSITY, USA
m/z	RELATIVE INTENSITY
39	7000
40	1200
41	8500
42	1300
43	200
44	100
50	1000
51	1700
52	800
53	5100
54	2900
55	3200
56	500
58	150
61	100
62	500
63	700
64	100
65	2000
66	1200
67	8100
68	1100
77	1200
78	200
79	3400
80	400
81	9999
82	700
91	100
93	100
95	400
96	4800
97	400
