Mass Spectrum: Levophacetoperane
Formula: C14 H19 N O2
CAS: 24558-01-8
Molecular weight: 233
Origin: Finnigan MAT: Toxicological Library (LIBR-TX)
m/z	RELATIVE INTENSITY
51	328
54	293
56	1263
67	173
77	1212
78	306
82	393
84	9999
89	243
91	977
104	119
105	637
106	117
118	79
121	683
128	145
129	185
130	334
141	52
149	41
155	33
170	93
172	568
173	1093
188	6
189	74
192	11
200	12
211	8
215	356
233	6
