Mass Spectrum: Butane, 1-(2,2-dichloro-1-methylcyclopropyl)-3-methyl-
Formula: C9 H16 Cl2
CAS: 24551-81-3
Molecular weight: 194
m/z	RELATIVE INTENSITY
39	5105
40	1001
41	7607
42	1001
43	8508
44	400
51	1601
53	1601
54	701
55	3403
56	9999
57	2002
58	100
65	1501
67	901
69	9208
70	2102
71	400
75	500
77	701
81	601
83	701
87	601
89	701
98	1001
102	500
109	300
111	200
123	1401
124	300
125	701
126	200
165	100
194	50
