Mass Spectrum: Hexanoic acid, 2-butyl-, methyl ester
Formula: C11 H22 O2
CAS: 24551-95-9
Molecular weight: 186
m/z	RELATIVE INTENSITY
36	301
37	1747
38	482
39	904
40	241
41	4337
42	482
43	4307
44	422
45	783
46	241
52	301
53	783
54	301
55	5542
56	512
57	2771
58	452
59	1928
60	301
82	301
83	572
84	301
85	1144
86	271
87	9999
88	1687
89	301
96	542
97	1144
98	934
99	241
100	542
101	5120
102	482
128	482
129	1235
130	8734
131	2108
132	964
133	512
143	2952
144	241
155	1717
156	482
157	1235
158	301
186	512
