Mass Spectrum: 2-Propenoic acid, 2-methyl-, (tetrahydro-2-furanyl)methyl ester
Formula: C9 H14 O3
CAS: 2455-24-5
Molecular weight: 170
Origin: NIST Mass Spectrometry Data Center
m/z	RELATIVE INTENSITY
14	40
15	300
16	10
18	10
26	100
27	1001
28	240
29	891
30	50
31	200
37	40
38	170
39	2002
40	430
41	3513
42	851
43	4164
44	190
45	40
50	10
51	20
52	10
53	100
54	150
55	320
56	280
57	100
58	10
59	10
67	50
68	60
69	1481
70	520
71	9999
72	450
73	30
81	10
82	20
84	2482
85	160
86	10
87	20
95	10
99	40
100	10
101	20
112	10
