Mass Spectrum: Oxiraneoctanoic acid, 3-octyl-, cis-
Formula: C18 H34 O3
CAS: 24560-98-3
Molecular weight: 298
Origin: Japan AIST/NIMC Database- Spectrum MS-IW-4716
m/z	RELATIVE INTENSITY
14	10
15	20
17	109
18	589
25	10
26	90
27	819
28	329
29	1689
30	40
31	149
36	20
37	10
38	30
39	719
40	149
41	4249
42	1199
43	3799
44	299
45	439
46	10
50	30
51	80
52	60
53	439
54	1129
55	7079
56	2629
57	3589
58	499
59	439
60	1159
61	129
62	10
63	30
64	20
65	159
66	359
67	3239
68	2869
69	6309
70	2099
71	2179
72	229
73	1139
74	139
75	20
76	10
77	259
78	159
79	909
80	559
81	2749
82	2969
83	4069
84	1579
85	1179
86	149
87	449
88	259
89	70
90	10
91	509
92	219
93	719
94	2139
95	2689
96	2279
97	4549
98	1399
99	499
100	309
101	389
102	50
103	40
104	109
105	249
106	99
107	509
108	319
109	2489
110	1179
111	829
112	309
113	1249
114	419
115	219
116	90
117	179
118	99
119	359
120	1499
121	1119
122	249
123	449
124	1529
125	1019
126	509
127	409
128	219
129	249
130	90
131	179
132	70
133	99
134	60
135	279
136	539
137	739
138	1159
139	1449
140	379
141	439
142	389
143	319
144	189
145	129
146	60
147	80
148	50
149	259
150	179
151	109
152	119
153	809
154	829
155	9999
156	1749
157	1609
158	199
159	90
160	40
161	50
162	30
163	90
164	139
165	99
166	60
167	689
168	419
169	159
170	169
171	269
172	50
173	199
174	60
175	99
176	30
177	50
178	50
179	60
180	40
181	109
182	189
183	239
184	40
185	1789
186	309
187	70
188	20
189	20
190	10
191	30
192	20
193	40
194	30
195	90
196	50
197	40
198	10
199	20
200	90
201	30
202	10
203	10
204	10
205	20
206	20
207	30
208	20
209	50
210	30
211	20
212	10
213	90
214	20
215	10
216	10
217	10
218	10
219	20
220	40
221	20
222	10
223	50
224	30
225	20
227	20
228	10
230	10
232	10
233	20
234	30
235	10
236	20
237	40
238	30
239	30
240	30
241	20
242	50
243	10
244	80
245	30
246	10
251	20
252	30
253	10
255	50
256	10
258	10
260	20
261	10
262	90
263	50
264	60
265	20
269	20
270	40
276	10
278	10
279	30
280	219
281	129
282	40
298	99
299	30
