Mass Spectrum: 1,1':2',1''-Tercyclohexane
Formula: C18 H32
CAS: 2456-43-1
Molecular weight: 248
Origin: C.E.A., C.E.N., GRENOBLE, FRANCE
m/z	RELATIVE INTENSITY
17	30
18	140
26	20
27	200
28	720
29	390
30	10
32	20
37	10
38	10
39	310
40	60
41	2380
42	170
43	290
44	20
50	10
51	40
52	30
53	340
54	490
55	3970
56	230
57	90
59	10
60	10
63	10
65	110
66	110
67	2100
68	350
69	1200
70	70
71	30
72	90
73	10
75	10
77	190
78	70
79	460
80	300
81	2030
82	2350
83	9999
84	660
85	30
89	10
91	140
92	30
93	170
94	120
95	2120
96	1020
97	1850
98	140
103	10
104	10
105	30
106	10
107	100
108	130
109	3390
110	320
111	40
115	10
117	10
119	10
120	10
121	130
122	150
123	610
124	80
125	10
135	120
136	40
137	30
138	20
149	50
150	20
151	30
152	40
153	10
161	10
162	10
163	50
164	4180
165	6240
166	800
167	50
178	30
179	40
180	10
189	20
199	10
200	10
201	10
202	10
220	10
246	20
247	10
248	300
249	60
250	10
