Mass Spectrum: 3-Amino-4-methylbenzoic acid
Formula: C8 H9 N O2
CAS: 2458-12-0
Molecular weight: 151
Origin: Japan AIST/NIMC Database- Spectrum MS-NW-7235
m/z	RELATIVE INTENSITY
15	20
26	40
27	189
28	209
29	40
30	179
37	70
38	189
39	479
40	99
41	149
42	179
43	40
44	50
45	119
46	30
47	10
49	30
50	319
51	679
52	569
53	599
54	189
55	70
56	10
57	20
58	10
59	10
60	10
61	99
62	129
63	309
64	99
65	249
66	169
67	279
68	60
69	20
70	20
71	10
73	30
74	109
75	359
76	179
77	1389
78	599
79	929
80	189
81	30
82	10
83	10
84	10
85	10
86	20
87	30
88	30
89	139
90	129
91	70
92	40
93	40
94	149
95	40
96	20
99	10
100	20
102	50
103	30
104	629
105	949
106	6369
107	589
108	40
110	10
117	50
118	30
119	20
120	20
121	10
122	409
123	80
124	30
125	10
132	50
133	119
134	1229
135	149
136	40
148	50
149	40
150	1849
151	9999
152	969
153	99
154	10
