Mass Spectrum: 1,2,4-Benzenetricarboxylic acid, trimethyl ester
Formula: C12 H12 O6
CAS: 2459-10-1
Molecular weight: 252
Origin: Japan AIST/NIMC Database- Spectrum MS-NW-8287
m/z	RELATIVE INTENSITY
14	30
15	1239
16	10
18	10
27	10
28	60
29	139
30	40
31	50
38	10
39	60
45	20
50	70
51	40
52	20
53	60
59	169
62	20
63	129
64	20
65	30
66	10
73	10
74	179
75	479
76	319
77	239
78	99
79	50
89	20
90	20
91	139
92	60
95	20
102	10
103	569
104	249
105	149
106	20
107	40
109	10
118	30
119	469
120	149
121	20
122	10
132	10
133	70
134	90
135	309
136	40
137	10
146	10
147	119
148	10
149	30
150	99
151	10
161	399
162	479
163	209
164	20
165	20
175	70
176	10
177	20
178	60
179	30
190	70
191	259
192	30
193	499
194	70
195	10
207	50
208	10
220	10
221	9999
222	1239
223	169
224	10
237	10
251	30
252	979
253	159
254	20
