Mass Spectrum: Trimethylantimony dibromide
Formula: C3 H9 Br2 Sb
CAS: 24606-08-4
Molecular weight: 324
Origin: H. BREUNIG,FAC. BIOL./CHEM.,ANORG. CHEM.,BREMEN UNIV.,W. GER.
m/z	RELATIVE INTENSITY
151	2000
153	1400
166	500
168	350
200	1000
202	1800
204	800
215	1200
217	2000
219	900
230	2800
232	5000
234	2200
245	6500
247	9999
249	4500
279	400
281	1200
283	1150
285	300
294	3
296	100
298	95
309	100
311	300
313	280
315	60
