Mass Spectrum: Oxirane, [[(2-ethylhexyl)oxy]methyl]-
Formula: C11 H22 O2
CAS: 2461-15-6
Molecular weight: 186
Origin: NIST Mass Spectrometry Data Center, 1998.
m/z	RELATIVE INTENSITY
15	70
26	60
27	1020
29	2780
30	120
31	1630
32	20
33	20
37	10
38	20
39	790
40	140
41	3700
42	710
43	3030
44	220
45	1370
46	30
47	30
50	20
51	50
52	30
53	310
54	250
55	3120
56	3030
57	9999
58	1070
59	1050
60	40
61	10
63	10
65	50
66	20
67	220
68	230
69	2530
70	2720
71	1560
72	920
73	210
74	80
75	290
76	10
77	30
78	10
79	50
80	10
81	170
82	340
83	1680
84	840
85	200
86	40
87	940
88	60
89	70
91	10
93	10
95	60
96	30
97	240
98	440
99	290
100	40
101	10
107	10
109	20
110	30
111	300
112	1010
113	140
114	10
115	10
123	50
124	10
125	10
127	40
128	20
129	170
130	20
139	10
141	40
145	10
157	10
