Mass Spectrum: Thiazolo[3,2-c]pyrimidin-4-ium, 2,3-dihydro-8-hydroxy-5-methyl-, hydroxide, inner salt
Formula: C7 H8 N2 O S
CAS: 24614-07-1
Molecular weight: 168
m/z	RELATIVE INTENSITY
26	1101
27	2302
28	1702
40	300
41	300
42	801
44	300
45	1401
51	200
52	601
53	701
54	2602
55	300
57	400
58	1301
59	2302
60	8508
61	500
62	400
70	500
71	200
72	701
80	400
82	2602
84	400
85	1101
86	100
98	200
99	100
108	100
109	601
110	100
112	300
113	100
122	801
126	200
139	300
140	701
142	100
167	500
168	9999
169	1101
170	500
