Mass Spectrum: Dicapthon
Formula: C8 H9 Cl N O5 P S
CAS: 2463-84-5
Molecular weight: 297
Origin: NIST Mass Spectrometry Data Center, 1990.
m/z	RELATIVE INTENSITY
12	4
13	6
14	19
15	213
16	6
17	9
18	13
26	13
28	146
29	69
30	351
31	82
32	27
33	10
35	4
36	6
37	25
38	37
39	21
40	11
42	3
44	6
45	101
46	69
47	639
48	24
49	33
50	53
51	70
52	15
53	37
54	17
56	3
57	8
60	16
61	73
62	458
63	951
64	107
65	22
66	12
68	10
69	36
71	9
72	39
73	36
74	138
75	156
76	44
77	66
78	9
79	1134
80	63
81	25
82	15
83	8
84	23
85	14
86	19
87	12
88	10
89	11
90	7
91	30
93	526
94	70
95	145
96	24
97	105
98	98
99	49
100	33
101	7
104	4
105	9
106	18
107	35
109	703
110	56
111	45
112	24
113	21
114	13
115	11
116	8
117	9
118	3
119	7
121	9
123	107
125	2354
126	127
127	141
128	23
129	22
130	35
131	10
132	16
137	11
138	16
139	10
140	18
141	39
142	29
143	38
144	13
145	19
146	6
147	5
148	4
152	7
153	10
154	7
155	7
156	17
157	40
158	35
159	18
160	10
161	6
168	7
169	5
170	21
171	19
172	19
173	38
174	11
175	18
184	16
185	9
186	8
187	8
188	48
189	24
190	18
191	12
200	21
201	48
202	12
203	10
204	23
205	17
206	49
207	13
208	13
214	6
216	859
217	118
218	51
219	13
220	52
221	11
222	19
232	52
233	15
234	87
235	18
236	56
237	9
238	10
246	124
247	37
248	10
249	7
250	34
251	14
252	25
253	5
254	4
258	6
262	9999
263	1027
264	569
265	64
266	115
267	33
268	50
269	11
281	18
282	5
283	7
296	4
