Mass Spectrum: 2-Nonenal
Formula: C9 H16 O
CAS: 2463-53-8
Molecular weight: 140
m/z	RELATIVE INTENSITY
15	450
18	200
26	430
27	5975
28	1311
29	7637
30	260
31	260
39	5345
40	821
41	9999
42	3333
43	9999
44	500
51	360
53	1381
54	1842
55	7567
56	2702
57	4714
58	1411
67	1772
68	1191
69	3793
70	7186
71	1161
72	1581
79	561
81	1461
82	691
83	4764
84	3393
85	430
93	691
94	370
95	290
96	2182
97	1081
98	1251
109	300
110	330
111	621
112	270
122	1221
140	450
