Mass Spectrum: Ethyl tetracosanoate
Formula: C26 H52 O2
CAS: 24634-95-5
Molecular weight: 396
Origin: Japan AIST/NIMC Database- Spectrum MS-NW-2052
m/z	RELATIVE INTENSITY
15	20
17	30
18	109
26	20
27	349
28	149
29	1379
30	40
31	50
39	169
40	50
41	2059
42	449
43	4099
44	129
45	289
53	90
54	189
55	2099
56	559
57	2829
58	159
59	99
60	459
61	589
62	20
65	10
66	10
67	389
68	179
69	1429
70	629
71	1429
72	80
73	749
74	90
75	30
77	10
79	60
80	30
81	329
82	169
83	1009
84	319
85	759
86	50
87	129
88	9999
89	3759
90	209
91	30
93	60
94	30
95	329
96	129
97	749
98	379
99	169
100	20
101	5229
102	459
103	40
107	60
108	20
109	209
110	70
111	439
112	99
113	109
114	20
115	569
116	80
121	99
122	10
123	119
124	40
125	249
126	50
127	70
128	10
129	249
130	169
131	10
133	10
135	109
136	20
137	70
138	20
139	159
140	40
141	50
142	10
143	669
144	279
145	20
149	70
150	10
151	30
152	20
153	109
154	30
155	30
157	2159
158	259
159	30
163	50
164	10
165	20
166	10
167	60
168	20
169	20
171	159
172	40
177	40
179	10
181	50
182	20
183	20
185	119
186	50
187	10
191	20
195	40
196	10
199	309
200	80
205	10
209	30
210	20
211	10
213	349
214	70
219	10
223	30
224	20
225	10
227	80
228	30
233	10
236	10
237	20
238	10
241	90
242	40
243	10
251	20
252	10
255	99
256	30
264	10
265	10
266	10
269	90
270	20
279	10
283	50
284	30
297	189
298	50
299	10
306	10
308	20
311	109
312	30
325	60
326	10
331	10
332	10
339	50
340	20
348	40
349	40
350	40
351	329
352	109
353	409
354	99
355	10
367	80
368	50
369	10
394	10
395	30
396	4229
397	1169
398	189
