Mass Spectrum: Mercaptoacetone
Formula: C3 H6 O S
CAS: 24653-75-6
Molecular weight: 90
Origin: James Little,Eastman Chem.Co.,Kingsport,TN
m/z	RELATIVE INTENSITY
26	280
27	581
29	330
42	961
43	9999
44	410
45	1712
46	731
47	2853
57	130
58	150
88	200
90	4534
91	220
92	230
