Mass Spectrum: Pyracarbolid
Formula: C13 H15 N O2
CAS: 24691-76-7
Molecular weight: 217
Origin: NIST Mass Spectrometry Data Center, 1998.
m/z	RELATIVE INTENSITY
15	30
26	30
27	160
28	80
29	80
30	10
31	10
37	20
38	80
39	600
40	140
41	330
42	60
43	3060
44	80
45	20
50	90
51	330
52	140
53	340
54	190
55	1540
56	60
57	20
61	10
62	30
63	150
64	140
65	630
66	210
67	150
68	50
69	90
70	10
71	40
74	20
75	20
76	30
77	560
78	70
79	140
80	20
81	80
82	20
83	770
84	40
85	10
89	20
90	20
91	110
92	210
93	290
94	40
95	40
96	70
97	2270
98	130
99	10
102	10
103	20
104	70
105	20
106	40
107	590
108	50
115	20
116	10
117	40
118	40
119	30
120	30
122	10
123	30
125	9999
126	830
127	80
128	40
129	10
130	50
131	10
132	40
133	10
142	10
143	10
144	30
145	10
146	40
154	10
156	10
158	10
160	10
170	10
172	10
174	10
188	30
189	10
200	10
217	1220
218	180
219	20
