Mass Spectrum: Dodecane, 1,1'-thiobis-
Formula: C24 H50 S
CAS: 2469-45-6
Molecular weight: 370
Origin: Japan AIST/NIMC Database- Spectrum MS-NW-5976
m/z	RELATIVE INTENSITY
15	10
26	40
27	809
28	209
29	1979
30	70
32	10
33	10
34	20
35	20
36	10
37	10
38	10
39	569
40	109
41	4159
42	809
43	5499
44	209
45	219
46	99
47	319
48	30
49	20
50	20
51	30
52	20
53	299
54	399
55	4259
56	1049
57	3309
58	169
59	90
60	349
61	1179
62	60
63	80
65	60
66	50
67	729
68	539
69	3139
70	889
71	1229
72	70
73	129
74	80
75	139
76	20
77	60
78	10
79	99
80	30
81	439
82	589
83	2159
84	689
85	709
86	50
87	809
88	189
89	379
90	40
91	40
92	10
93	20
94	20
95	219
96	419
97	1509
98	489
99	139
100	20
101	299
102	60
103	129
104	20
105	20
107	10
108	20
109	90
110	159
111	739
112	309
113	90
114	10
115	139
116	40
117	80
118	10
119	10
121	10
123	30
124	70
125	319
126	159
127	60
128	20
129	229
130	60
131	90
132	10
133	10
137	20
138	50
139	159
140	299
141	50
142	10
143	129
144	30
145	90
146	10
147	10
153	10
154	10
155	10
157	199
158	30
159	80
160	20
161	10
165	10
166	30
167	20
168	1129
169	179
170	30
171	60
172	20
173	80
174	20
175	10
185	20
186	10
187	40
188	10
196	10
198	10
199	119
200	969
201	9999
202	1649
203	689
204	109
205	20
213	10
215	579
216	119
217	50
218	10
227	20
228	10
229	209
230	50
231	20
241	20
243	60
244	20
255	10
257	279
258	70
259	20
269	10
271	70
272	20
283	20
285	40
286	10
297	10
299	40
300	10
301	10
313	60
314	20
327	60
328	20
329	10
341	60
342	30
343	10
355	40
356	20
368	10
369	169
370	1669
371	469
372	149
373	30
