Mass Spectrum: 1-Heptanamine, N-heptyl-
Formula: C14 H31 N
CAS: 2470-68-0
Molecular weight: 213
m/z	RELATIVE INTENSITY
15	40
16	10
17	30
18	200
27	200
28	300
29	600
30	2500
31	60
41	900
42	300
43	1100
44	3900
45	200
46	10
55	600
56	400
57	1300
58	300
59	100
60	20
69	100
70	300
71	70
72	100
73	30
83	400
84	100
85	40
86	100
87	10
98	80
99	20
100	50
101	10
112	30
113	10
114	300
115	60
126	80
127	20
128	9999
129	900
140	10
141	10
142	100
143	20
154	30
156	30
157	10
168	20
170	100
171	20
184	200
185	30
198	60
199	10
212	100
213	400
