Mass Spectrum: 1H-Indene, 1-methylene-
Formula: C10 H8
CAS: 2471-84-3
Molecular weight: 128
Origin: HCACAV,60(3)1073(1977);6A; M. NEVENSCHWANDER, UNIVERSITAT BERN, SWITZERLAND
m/z	RELATIVE INTENSITY
39	600
50	900
51	1900
52	300
62	300
63	1300
64	1000
74	600
75	700
76	600
77	700
78	700
87	200
89	200
101	400
102	1300
103	100
126	1100
127	1700
128	9999
129	1200
