Mass Spectrum: Adenosine, 2-methoxy-
Formula: C11 H15 N5 O5
CAS: 24723-77-1
Molecular weight: 297
m/z	RELATIVE INTENSITY
25	66
26	1589
27	9999
28	5165
29	2086
30	861
31	2218
32	497
33	99
34	99
35	99
36	497
37	66
38	397
39	861
40	894
41	1788
42	1589
43	2914
44	2715
45	1192
46	132
47	132
49	132
50	132
51	132
52	265
53	1093
54	1093
55	1457
56	596
57	1887
58	861
59	265
60	563
61	894
62	1324
64	232
65	232
66	728
67	861
68	728
69	993
70	331
71	728
72	265
73	1258
74	265
75	132
76	132
77	132
78	132
79	232
80	596
81	728
82	265
83	265
84	265
85	530
86	265
87	99
88	99
89	99
90	99
91	99
92	331
93	331
94	497
95	265
96	464
97	464
98	199
99	132
100	132
101	265
102	132
103	132
104	132
105	364
106	265
107	596
108	1821
109	497
110	232
111	132
112	99
113	99
114	232
115	232
116	99
118	99
119	464
120	232
121	497
122	265
123	265
124	265
125	99
128	66
129	66
131	66
132	99
133	331
134	2185
135	2847
136	1655
137	265
138	132
142	99
143	99
145	66
146	66
147	33
148	331
149	662
150	265
151	695
152	66
161	232
162	33
163	232
164	2450
165	9734
166	3543
167	331
169	3841
170	2583
171	2649
172	430
173	99
175	66
176	66
177	99
178	728
179	563
180	33
181	232
182	66
183	99
184	99
189	66
190	99
191	99
192	99
193	66
194	3973
195	331
198	1523
199	728
200	1192
201	497
202	927
203	99
204	199
206	99
207	66
208	1523
209	232
210	66
211	33
212	596
213	66
214	265
220	99
224	99
228	99
236	66
248	99
250	99
261	99
266	99
267	232
271	99
273	99
279	99
280	99
297	728
298	99
