Mass Spectrum: Nonane, 1-chloro-
Formula: C9 H19 Cl
CAS: 2473-01-0
Molecular weight: 162
Origin: Japan AIST/NIMC Database- Spectrum MS-NW-4023
m/z	RELATIVE INTENSITY
15	60
26	99
27	1839
28	159
29	2749
30	60
36	60
37	10
38	40
39	1159
40	229
41	5309
42	1739
43	9999
44	359
49	169
50	30
51	80
52	30
53	319
54	279
55	5929
56	2299
57	4199
58	209
61	20
62	40
63	299
64	20
65	99
66	20
67	269
68	289
69	3559
70	1429
71	1719
72	99
75	50
76	30
77	229
78	20
79	70
81	60
82	139
83	1559
84	749
85	739
86	60
89	10
90	50
91	9499
92	469
93	3099
94	149
95	10
96	30
97	899
98	299
99	30
104	40
105	1309
106	99
107	439
108	30
111	20
113	10
118	20
119	109
120	20
121	30
126	20
132	10
133	30
135	10
162	10
