Mass Spectrum: 1-Chloroundecane
Formula: C11 H23 Cl
CAS: 2473-03-2
Molecular weight: 190
Origin: NIST Mass Spectrometry Data Center
m/z	RELATIVE INTENSITY
15	140
17	10
18	30
27	4024
28	1041
29	5275
30	130
35	20
36	30
37	20
39	2642
41	9999
42	2492
43	9999
44	310
49	310
50	50
51	230
52	70
53	631
54	621
55	6466
56	2062
57	6356
58	280
61	20
62	60
63	370
64	30
65	210
66	50
67	550
68	520
69	3954
70	1241
71	1792
72	100
73	10
75	60
76	30
77	200
78	20
79	100
81	140
82	240
83	1381
84	510
85	791
86	50
88	10
91	7957
92	430
93	2552
94	130
95	30
97	801
98	200
99	40
105	1611
106	130
107	540
108	30
111	190
112	60
113	10
118	30
119	170
120	20
121	50
125	20
126	40
132	10
133	20
146	10
147	10
161	10
190	20
