Mass Spectrum: N-t-Butylpyrrole
Formula: C8 H13 N
CAS: 24764-40-7
Molecular weight: 123
Origin: NIST Mass Spectrometry Data Center, 1994
m/z	RELATIVE INTENSITY
4	3
12	6
14	47
15	537
17	9
18	6
26	181
27	774
28	596
29	1068
30	45
32	2
37	157
38	458
39	2273
40	722
41	3098
42	293
47	17
49	16
50	214
51	407
52	214
53	380
54	135
55	257
56	104
57	981
58	50
63	46
64	63
65	203
66	16
67	9999
68	902
69	31
76	11
77	81
78	78
79	110
80	300
81	53
82	9
91	27
92	171
93	180
94	57
104	18
105	12
106	76
107	117
108	636
109	52
120	14
121	12
123	2380
124	232
125	12
