Mass Spectrum: Ethanone, 1-(2,5-dichlorophenyl)-
Formula: C8 H6 Cl2 O
CAS: 2476-37-1
Molecular weight: 188
Origin: D.HENNEBERG, MAX-PLANCK INSTITUTE, MULHEIM, WEST GERMANY
m/z	RELATIVE INTENSITY
26	98
27	53
28	199
29	27
31	8
32	5
35	44
36	212
37	260
38	199
39	167
40	11
41	24
42	227
43	5871
44	190
45	19
47	40
48	26
49	214
50	877
51	276
52	19
53	40
55	138
56	43
58	3
59	5
60	86
61	244
62	265
63	302
64	28
65	10
67	10
68	22
69	39
70	4
71	15
73	510
74	1616
75	1596
76	140
77	42
78	7
80	9
81	14
82	12
83	21
84	403
85	329
86	203
87	180
88	41
89	203
90	32
91	6
94	6
95	20
96	27
97	78
98	59
99	103
100	16
101	45
102	22
103	10
105	11
106	3
107	21
108	85
109	1360
110	574
111	713
112	209
113	98
114	10
118	26
119	41
120	17
121	41
122	26
123	107
124	68
125	123
126	20
127	30
128	4
131	4
133	20
134	5
135	28
136	17
137	18
138	64
139	21
140	22
141	6
143	5
144	37
145	2898
146	629
147	1883
148	393
149	309
150	63
151	4
152	4
153	9
154	5
157	3
159	107
160	13
161	69
162	10
163	14
164	5
165	3
166	4
167	3
168	5
169	3
170	9
172	24
173	9999
174	774
175	6316
176	499
177	1046
178	82
179	6
180	3
186	3
187	28
188	2798
189	266
190	1814
191	166
192	290
193	27
