Mass Spectrum: Benzenamine, N,N'-1,2-ethanediylidenebis[4-methoxy-
Formula: C16 H16 N2 O2
CAS: 24764-91-8
Molecular weight: 268
Origin: D.HENNEBERG, MAX-PLANCK INSTITUTE, MULHEIM, WEST GERMANY
m/z	RELATIVE INTENSITY
26	288
27	383
28	816
29	131
30	27
31	21
32	36
34	5
36	8
37	110
38	633
39	1286
40	103
41	207
42	37
43	46
44	75
45	12
46	9
48	5
49	21
50	816
51	1168
52	571
53	481
54	105
55	87
56	26
57	42
58	22
59	9
60	8
61	39
62	286
63	2209
64	4246
65	1884
66	304
67	72
68	16
69	27
72	5
74	152
75	353
76	957
77	8082
78	1176
79	684
80	255
81	40
82	24
83	33
84	11
86	23
87	25
88	47
89	68
90	626
91	403
92	6826
93	804
94	65
95	60
97	16
99	14
100	16
101	25
102	149
103	410
104	349
105	115
106	177
107	4651
108	785
109	98
110	13
111	16
112	12
113	13
114	28
115	34
116	46
117	66
118	143
119	333
120	8872
121	802
122	185
123	90
124	7
125	4
126	12
127	42
128	55
129	58
130	48
131	63
132	159
133	356
134	9960
135	6124
136	626
137	58
138	9
139	34
140	38
141	19
142	16
143	10
145	88
146	82
147	104
148	122
149	37
150	10
151	11
152	12
153	20
154	62
155	70
156	42
158	22
159	37
160	32
161	95
162	8
165	17
166	25
167	60
168	30
169	19
170	10
171	28
172	9
173	8
175	5
178	12
179	21
180	42
181	64
182	91
183	59
184	14
185	17
190	6
191	9
192	41
193	121
194	135
195	38
196	25
197	33
198	37
199	27
200	19
201	12
205	36
206	31
207	20
208	54
209	102
210	173
211	64
212	20
213	8
214	14
217	10
220	12
221	96
222	207
223	79
224	182
225	530
226	319
227	47
229	5
230	9
233	11
234	22
235	32
236	58
237	3897
238	820
239	224
240	228
241	58
242	29
243	10
244	14
245	11
247	11
249	8
251	58
252	206
253	9999
254	1777
255	206
256	15
259	9
264	9
265	26
266	173
267	9861
268	9219
269	1491
270	260
271	39
