Mass Spectrum: Hexane, 2,5-dibromo-
Formula: C6 H12 Br2
CAS: 24774-58-1
Molecular weight: 242
Origin: RADIAN CORP
m/z	RELATIVE INTENSITY
15	30
26	70
27	650
28	130
29	400
32	20
37	30
38	110
39	1430
40	400
41	3800
42	830
43	900
44	50
50	130
51	190
52	80
53	460
54	120
55	7890
56	410
57	130
62	30
63	70
65	180
66	50
67	640
68	70
69	80
74	20
77	80
79	200
80	150
81	250
82	250
83	9999
84	680
85	30
93	100
95	100
105	40
106	40
107	650
108	50
109	590
119	90
120	300
121	680
122	330
123	610
133	40
135	50
161	30
162	170
163	3040
164	370
165	2980
166	200
