Mass Spectrum: Octane, 1,8-diiodo-
Formula: C8 H16 I2
CAS: 24772-63-2
Molecular weight: 366
Origin: Japan AIST/NIMC Database- Spectrum MS-NW-7537
m/z	RELATIVE INTENSITY
14	10
15	139
25	10
26	199
27	3349
28	559
29	2989
30	60
31	10
37	30
38	109
39	2489
40	459
41	9999
42	1179
43	4339
44	159
45	10
46	20
47	10
50	70
51	179
52	99
53	669
54	359
55	8769
56	969
57	2919
58	129
60	10
61	10
62	10
63	40
64	10
65	90
66	50
67	439
68	119
69	8249
70	539
71	1379
72	80
74	10
77	60
78	10
79	80
80	20
81	149
82	50
83	679
84	80
85	60
91	20
93	10
95	20
97	10
98	10
107	10
109	30
110	10
111	4789
112	469
113	20
119	10
127	429
128	339
129	20
135	10
137	10
140	10
141	269
142	10
151	10
153	30
154	80
155	3379
156	99
162	10
167	40
169	1779
170	80
181	20
183	2489
184	129
191	10
196	10
197	1669
198	109
211	129
212	10
238	40
239	2349
240	239
241	10
254	30
255	10
366	959
367	99
