Mass Spectrum: Benzo[b]phenanthro[2,3-d]thiophene
Formula: C20 H12 S
CAS: 248-85-1
Molecular weight: 284
Origin: Organic Synthesis Lab, MSU, Moscow.TRC 360
m/z	RELATIVE INTENSITY
41	20
50	130
51	120
57	30
58	120
63	130
64	10
67	70
68	10
73	190
74	230
75	30
76	90
77	60
78	40
82	10
86	240
87	160
89	50
91	30
95	60
97	20
98	100
99	120
100	210
101	110
102	140
104	30
105	160
106	430
109	30
110	140
111	70
112	160
113	190
114	100
115	100
116	571
117	210
119	480
121	30
122	150
123	180
124	220
125	330
126	120
127	150
128	741
129	1321
134	130
136	60
137	30
138	150
139	230
140	721
141	2052
142	3413
145	30
146	40
147	190
148	20
150	240
151	150
152	120
157	10
158	130
161	30
162	200
163	180
164	80
165	30
166	30
169	120
174	180
175	30
176	80
182	110
185	150
186	140
187	410
188	160
189	50
195	80
197	90
198	160
199	120
200	190
205	30
209	70
210	20
211	450
212	170
213	370
214	110
219	60
221	40
222	160
223	90
224	220
225	150
226	130
231	110
233	30
235	260
236	200
237	611
238	290
239	581
240	220
248	150
249	90
250	390
251	90
252	420
253	110
254	40
255	140
256	220
258	270
266	120
268	150
269	10
280	310
282	1471
284	9999
285	2122
286	681
