Mass Spectrum: Rescinnamine
Formula: C35 H42 N2 O9
CAS: 24815-24-5
Molecular weight: 634
Origin: AAFS Toxicology Section MS DB Committee, U. Alberta, Canada
m/z	RELATIVE INTENSITY
41	3873
42	1521
43	4423
44	1901
45	1201
50	220
51	440
53	920
54	1221
55	6826
56	2191
57	4854
58	1060
59	1060
60	3753
61	970
63	370
64	250
65	570
66	520
67	3483
68	2312
69	9999
70	2942
71	4954
72	650
73	6145
74	840
75	620
76	370
77	1801
78	640
79	2061
80	960
81	6585
82	2642
83	5805
84	5565
85	3493
86	870
87	1821
88	320
89	480
90	240
91	1601
92	750
93	1751
94	1281
95	3252
96	2302
97	4764
98	2572
99	1461
100	700
101	1111
102	730
103	740
104	530
105	1211
106	500
107	1481
108	780
109	2081
110	1701
111	2912
112	1171
113	1070
114	860
115	1661
116	780
117	690
118	500
119	1131
120	710
121	1661
122	790
123	1801
124	930
125	1261
126	750
127	930
128	470
129	2772
130	1070
131	620
132	730
133	960
134	670
135	1621
136	1431
137	2171
138	760
139	780
140	430
141	740
142	350
143	1221
144	690
145	570
146	300
147	1231
148	600
149	4684
150	970
151	680
152	1381
153	550
154	620
155	820
156	460
157	960
158	690
159	500
160	740
161	710
162	770
163	1501
164	420
165	430
166	500
167	1331
168	1971
169	2662
170	910
171	1161
172	890
173	1050
174	1511
175	710
176	390
177	690
178	650
179	590
180	500
181	550
182	560
183	440
184	850
185	1661
186	2592
187	1050
188	320
189	410
190	1521
191	960
192	420
193	960
194	580
195	590
196	440
197	770
198	910
199	4514
200	3333
201	920
202	230
203	260
204	220
205	390
206	710
207	490
208	380
209	280
210	400
211	440
212	960
213	2081
214	2422
215	780
219	230
221	7396
222	1511
223	1641
224	550
225	800
226	440
227	1090
228	520
229	260
231	210
235	310
236	1020
237	820
238	1741
239	1171
240	400
241	840
242	440
243	240
249	310
250	410
251	3703
252	1010
253	1401
254	1241
255	420
256	1161
257	480
263	240
264	500
265	1441
266	390
267	890
268	260
269	390
270	350
271	290
277	280
278	230
279	660
280	320
284	320
289	240
295	330
297	680
298	230
299	310
305	310
307	520
308	240
309	260
316	840
321	330
323	530
325	220
337	1010
338	310
341	260
349	280
359	320
360	310
361	260
363	490
365	3713
366	910
367	290
368	300
369	350
381	6986
382	1711
383	430
394	320
395	4383
396	3433
397	2772
398	640
411	280
413	1221
414	380
446	510
603	260
633	970
634	770
635	310
