Mass Spectrum: Butanoic acid, 2-methyl-, 2-phenylethyl ester
Formula: C13 H18 O2
CAS: 24817-51-4
Molecular weight: 206
Origin: Chuck Anderson, Aldrich Chemical Co.
m/z	RELATIVE INTENSITY
15	16
17	2
18	6
26	30
27	260
28	133
29	577
30	20
31	12
38	9
39	198
40	16
41	471
42	30
44	11
50	39
51	149
52	35
53	32
55	97
56	56
57	1970
58	73
63	55
65	194
66	12
69	6
74	3
77	434
78	259
79	255
80	6
85	561
86	31
89	69
91	550
92	103
102	12
103	178
104	9999
105	1355
106	90
