Mass Spectrum: 1-Bromo-2-butanol
Formula: C4 H9 Br O
CAS: 2482-57-7
Molecular weight: 152
Origin: Japan AIST/NIMC Database- Spectrum MS-NW-4360
m/z	RELATIVE INTENSITY
14	40
15	369
17	10
18	30
25	20
26	209
27	1079
28	179
29	979
30	80
31	3209
32	40
33	10
36	10
37	50
38	99
39	579
40	80
41	1689
42	249
43	1809
44	589
45	219
49	20
50	60
51	50
52	20
53	129
54	50
55	2799
56	269
57	539
58	419
59	9999
60	339
61	30
69	10
71	80
72	99
73	739
74	30
79	70
80	80
81	70
82	80
86	10
87	10
89	10
91	10
92	20
93	149
94	80
95	139
96	60
97	10
101	30
105	30
106	30
107	50
108	30
109	40
111	10
113	10
115	30
119	10
120	20
121	50
122	119
123	1869
124	119
125	1699
126	40
127	10
128	10
131	20
134	10
135	40
136	10
137	50
151	20
152	10
153	30
