Mass Spectrum: 2,6-Bis(trifluoromethyl)benzoic acid
Formula: C9 H4 F6 O2
CAS: 24821-22-5
Molecular weight: 258
Origin: NIST Mass Spectrometry Data Center, 1994
m/z	RELATIVE INTENSITY
17	138
18	124
20	72
26	59
28	208
31	642
32	35
37	312
38	379
39	399
44	218
45	3082
46	43
47	125
49	187
50	958
51	641
53	112
56	155
57	491
60	30
61	220
62	425
63	549
64	62
67	97
68	453
69	3162
70	80
71	60
72	67
73	320
74	1688
75	3863
76	302
77	141
79	154
80	330
81	271
82	49
83	52
85	177
86	264
87	268
88	244
91	45
92	245
93	682
94	895
95	396
97	225
99	1676
100	222
101	98
103	101
104	183
105	249
106	146
107	57
111	101
112	218
113	834
114	329
117	246
118	235
119	128
123	561
124	301
125	3170
126	294
130	48
132	240
136	52
137	81
141	340
143	2169
144	4632
145	2340
146	168
150	66
155	106
156	60
161	129
163	5616
164	1240
165	87
168	29
169	62
172	118
174	139
175	145
181	188
182	318
189	258
191	271
192	68
194	6624
195	1550
196	104
209	103
210	462
211	61
212	61
213	3958
214	701
215	52
219	4034
220	425
221	36
239	34
241	9999
242	974
243	58
258	6955
259	657
260	77
