Mass Spectrum: D-Allothreonine
Formula: C4 H9 N O3
CAS: 24830-94-2
Molecular weight: 119
Origin: LAC, NIDDK, NIH, Bethesda, MD 20892
m/z	RELATIVE INTENSITY
41	412
42	746
43	1300
44	648
45	3670
46	548
51	199
52	158
54	291
55	275
56	2078
57	9999
58	1270
59	376
60	360
65	183
69	177
72	219
73	37
74	2403
75	8345
76	310
77	365
78	177
79	154
87	654
88	232
101	221
102	409
103	465
104	76
119	43
