Mass Spectrum: Acetic acid, nitro-, methyl ester
Formula: C3 H5 N O4
CAS: 2483-57-0
Molecular weight: 119
Origin: ORMSBG,9(2)257(1974); NIBBERZNG
m/z	RELATIVE INTENSITY
26	500
27	3200
28	1700
29	4300
30	6000
31	4100
32	390
41	400
42	5200
43	2900
44	9600
45	1400
46	1200
54	100
55	100
59	1700
60	100
61	100
70	100
71	300
72	100
73	9999
74	700
75	100
84	100
88	2600
89	100
