Mass Spectrum: Allyltributyltin
Formula: C15 H32 Sn
CAS: 24850-33-7
Molecular weight: 332
Origin: Japan AIST/NIMC Database- Spectrum MS-NW-9652
m/z	RELATIVE INTENSITY
14	10
15	10
25	10
26	80
27	339
28	269
29	539
30	20
36	10
37	50
38	80
39	599
40	169
41	1429
42	369
43	169
44	329
45	60
46	40
50	20
51	30
53	50
54	20
55	239
56	369
57	659
58	60
60	10
67	10
69	20
71	20
73	10
79	20
81	10
82	10
83	30
85	10
91	10
95	10
97	10
109	10
112	10
113	70
114	10
115	70
116	269
117	1199
118	969
119	2179
120	1309
121	2809
122	229
123	929
124	99
125	499
127	119
130	10
131	159
132	99
133	269
134	119
135	359
136	10
137	60
139	60
141	20
143	50
144	30
145	209
146	99
147	329
148	99
149	369
150	20
151	109
153	90
154	10
155	40
156	10
157	139
158	80
159	269
160	99
161	359
162	40
163	149
164	10
165	80
167	20
169	99
170	10
171	369
172	80
173	1659
174	989
175	6489
176	3319
177	9999
178	2889
179	9619
180	439
181	1849
182	90
183	1589
184	70
189	10
190	10
191	20
192	10
193	20
195	80
196	40
197	199
198	80
199	289
200	40
201	189
203	50
204	10
205	50
206	10
207	50
209	30
210	10
211	50
212	20
213	60
214	10
215	50
216	20
217	70
218	30
219	90
220	10
221	30
223	10
227	109
228	10
229	90
230	70
231	1649
232	1029
233	2799
234	1229
235	3689
236	329
237	529
238	50
239	639
240	50
247	10
249	20
251	30
252	10
253	169
254	99
255	389
256	179
257	519
258	99
259	319
260	20
261	99
262	10
263	50
265	40
266	20
267	90
268	30
269	109
270	20
271	319
272	189
273	509
274	229
275	699
276	99
277	149
278	30
279	169
280	20
281	10
283	90
284	10
285	60
286	40
287	1249
288	809
289	2139
290	999
291	2849
292	369
293	419
294	50
295	489
296	60
305	20
307	20
309	209
310	139
311	549
312	269
313	809
314	189
315	509
316	40
317	139
318	10
319	80
