Mass Spectrum: Cyclopentaneacetic acid, 3-oxo-2-pentyl-, methyl ester
Formula: C13 H22 O3
CAS: 24851-98-7
Molecular weight: 226
Origin: N.W. Davies, Centr. Sci. Lab., Univ. Tasmania, Hobart, Australia
m/z	RELATIVE INTENSITY
26	60
27	630
31	300
36	60
39	530
40	370
41	1570
42	220
43	890
44	180
50	70
51	90
52	80
53	640
54	400
55	1970
56	230
57	150
59	710
62	60
63	70
65	90
66	210
67	1170
68	440
69	770
70	140
71	270
72	70
74	930
75	530
77	190
78	60
79	400
81	700
82	2830
83	9999
84	840
85	100
86	120
87	90
91	120
92	90
93	180
94	210
95	840
96	1100
97	740
99	120
101	120
105	220
108	200
109	610
110	430
111	180
113	240
115	90
117	80
119	180
122	50
123	280
124	140
125	90
134	150
135	280
137	260
138	90
139	90
141	60
147	70
149	50
150	90
151	320
152	440
153	2570
154	400
155	190
156	1910
157	130
165	100
168	110
169	190
170	60
180	70
194	60
195	300
207	130
209	80
226	180
