Mass Spectrum: 6-Hydroxy-2-mercaptopurine
Formula: C5 H4 N4 O S
CAS: 2487-40-3
Molecular weight: 168
Origin: Japan AIST/NIMC Database- Spectrum MS-NW-1799
m/z	RELATIVE INTENSITY
12	30
13	10
15	10
16	50
17	10
18	30
24	20
25	20
26	129
27	1049
28	2159
29	70
30	10
32	419
33	129
34	189
35	10
36	30
38	299
39	279
40	109
41	60
42	70
43	199
44	529
45	109
46	50
47	20
48	10
50	20
51	20
52	179
53	1509
54	4329
55	439
56	30
57	30
58	199
59	799
60	679
61	50
62	30
64	119
65	99
66	139
67	109
68	149
69	40
70	539
71	289
72	50
73	20
76	60
77	10
78	30
79	80
80	409
81	649
82	489
83	50
84	80
85	189
86	419
87	50
88	20
91	50
92	30
93	50
94	10
95	10
96	70
97	50
98	99
99	10
106	40
107	139
108	109
109	2459
110	4539
111	239
112	60
113	90
114	10
118	70
119	10
120	10
123	229
124	50
125	189
126	20
127	10
134	139
135	699
136	179
137	10
139	60
140	199
141	40
150	339
151	559
152	189
153	40
167	50
168	9999
169	769
170	519
171	40
