Mass Spectrum: Androstane
Formula: C19 H32
CAS: 24887-75-0
Molecular weight: 260
m/z	RELATIVE INTENSITY
41	8205
42	882
43	1470
51	294
52	235
53	2470
54	1000
55	6588
56	588
57	294
63	59
64	88
65	823
66	500
67	6382
68	1970
69	1765
71	88
74	88
77	1765
78	471
79	3529
80	1059
81	6470
82	1294
83	1176
84	59
88	59
91	2059
92	412
93	3000
94	1588
95	7646
96	1735
97	588
103	88
104	59
105	1029
106	294
107	2941
108	2000
109	3794
110	706
111	176
115	176
117	176
118	59
119	471
120	294
121	3000
122	1323
123	1353
124	206
127	59
128	176
129	176
130	59
131	147
132	29
133	941
134	471
135	4705
136	1235
137	765
138	88
141	59
145	176
146	118
147	970
148	1470
149	4470
150	1970
151	794
152	59
159	59
161	1294
162	794
163	1765
164	765
165	471
166	59
173	88
175	1118
176	735
177	500
178	176
187	59
189	1941
190	1470
191	88
201	59
202	59
203	6470
204	3235
205	588
206	118
216	3117
217	1765
218	294
230	294
231	1176
232	118
243	294
244	88
245	9999
246	2000
247	206
258	294
259	29
260	9764
261	2117
262	206
