Mass Spectrum: 1-Hexadecanol, 2-methyl-
Formula: C17 H36 O
CAS: 2490-48-4
Molecular weight: 256
Origin: R.T.HOLMAN,UNIVERSITY OF MINNESOTA
m/z	RELATIVE INTENSITY
25	40
26	170
27	1230
28	990
29	3160
30	170
31	1310
32	110
36	70
37	30
38	40
39	740
40	190
41	6330
42	1680
43	8880
44	940
45	1520
46	50
47	20
48	20
50	40
51	60
52	40
53	370
54	740
55	6700
56	5720
57	9999
58	1190
59	570
60	190
61	60
62	20
63	30
64	30
65	90
66	110
67	940
68	1190
69	5800
70	3410
71	5140
72	450
73	490
74	70
75	60
76	30
77	100
78	50
79	190
80	90
81	740
82	1850
83	4600
84	2180
85	3000
86	220
87	320
88	120
89	270
90	30
91	110
92	40
93	100
94	90
95	420
96	900
97	3860
98	1310
99	610
100	60
101	110
102	40
103	120
104	40
105	90
106	40
107	90
108	50
109	200
110	410
111	2130
112	860
113	330
114	90
115	250
116	50
117	110
118	20
119	50
120	30
121	60
122	40
123	130
124	230
125	940
126	530
127	200
128	40
129	80
130	20
131	50
132	30
133	130
134	20
135	60
136	40
137	70
138	170
139	370
140	340
141	140
142	30
143	30
144	20
145	30
146	20
147	60
148	20
149	80
150	20
151	40
152	110
153	200
154	270
155	100
156	20
157	30
158	40
159	130
160	30
161	40
162	20
163	30
164	20
165	40
166	60
167	120
168	190
169	70
170	10
171	20
172	10
173	10
174	10
175	40
176	20
177	50
178	20
179	20
180	60
181	90
182	190
183	50
184	10
185	40
186	20
187	10
188	10
189	20
190	10
191	20
192	20
193	30
194	40
195	60
196	250
197	50
198	10
199	10
200	10
201	10
202	20
203	40
204	20
205	30
206	20
207	30
208	30
209	50
210	290
211	50
212	10
213	20
214	10
215	10
216	10
217	20
218	10
219	20
220	10
221	20
222	20
223	30
224	70
225	30
226	10
227	10
228	20
229	20
230	10
231	20
232	10
233	10
234	10
235	10
236	20
237	20
238	390
239	90
240	20
241	10
254	10
255	20
256	34
