Mass Spectrum: Ethanone, 1-(4-hydroxyphenyl)-2-phenyl-
Formula: C14 H12 O2
CAS: 2491-32-9
Molecular weight: 212
Origin: A.A.Kutin, Moscow, Russia
m/z	RELATIVE INTENSITY
37	12
38	68
39	539
40	26
41	36
42	4
50	58
51	108
52	23
53	78
54	4
55	16
61	18
62	76
63	261
64	189
65	1580
66	127
67	11
74	33
75	42
76	43
77	44
78	8
81	10
82	19
84	5
85	4
86	13
87	15
89	138
90	103
91	937
92	304
93	1966
94	147
95	10
102	11
103	5
105	14
115	36
116	5
118	16
121	9999
122	1514
123	142
124	8
126	12
127	24
128	27
129	12
139	24
140	7
141	10
151	20
152	74
153	49
154	14
155	18
156	2
163	19
164	16
165	65
166	13
169	20
181	37
182	11
183	16
184	4
212	669
213	109
214	13
215	5
