Mass Spectrum: Benzenamine, N,N-dimethyl-4-[(4-nitrophenyl)azo]-
Formula: C14 H14 N4 O2
CAS: 2491-74-9
Molecular weight: 270
Origin: Japan AIST/NIMC Database- Spectrum MS-NW-4123
m/z	RELATIVE INTENSITY
14	10
15	229
16	10
26	30
27	80
28	239
29	60
30	109
37	30
38	70
39	309
40	30
41	109
42	3499
43	60
44	159
50	369
51	239
52	139
53	80
54	50
55	20
57	10
58	10
61	10
62	40
63	209
64	139
65	309
66	109
67	60
68	80
69	30
70	10
71	10
73	30
74	50
75	249
76	339
77	1459
78	679
79	1229
80	209
81	60
82	20
83	10
85	10
88	10
89	20
90	179
91	669
92	619
93	369
94	109
95	10
97	20
98	10
102	20
103	179
104	819
105	1559
106	419
107	50
108	30
111	20
112	10
115	10
116	10
117	40
118	339
119	589
120	9999
121	929
122	129
123	10
126	10
127	10
132	40
133	60
134	109
135	60
136	50
137	10
138	10
139	10
140	10
145	20
146	30
148	1629
149	179
150	20
151	10
152	60
153	30
158	10
166	10
167	10
168	10
179	10
180	10
181	10
184	10
194	20
195	30
196	30
197	10
209	10
212	10
223	40
224	60
225	10
226	20
236	20
237	10
238	30
239	10
240	149
241	40
242	30
252	99
253	20
254	50
255	20
256	10
269	99
270	5649
271	949
272	109
273	10
