Mass Spectrum: cis-2,6-Dimethyl-2,6-octadiene
Formula: C10 H18
CAS: 2492-22-0
Molecular weight: 138
Origin: NIST Mass Spectrometry Data Center, 1990.
m/z	RELATIVE INTENSITY
27	617
28	38
29	388
39	1504
41	5785
42	359
43	223
50	119
51	293
52	164
53	977
54	238
55	654
56	47
63	79
65	261
67	1383
69	9999
70	1292
71	60
77	292
78	69
79	266
80	61
81	420
82	278
83	56
91	205
92	39
93	130
94	531
95	2709
96	275
105	57
107	59
109	151
121	40
123	846
124	87
138	271
139	31
