Mass Spectrum: 4-Bromophenyl isocyanate
Formula: C7 H4 Br N O
CAS: 2493-02-9
Molecular weight: 197
Origin: NIST Mass Spectrometry Data Center, 1992
m/z	RELATIVE INTENSITY
12	38
13	26
15	18
16	12
17	112
18	335
24	24
25	92
26	351
27	176
28	595
29	22
31	55
32	78
36	164
37	1402
38	1423
39	1610
40	186
41	27
42	19
45	710
48	74
49	427
50	1387
51	559
52	355
53	30
54	70
59	40
60	175
61	939
62	1512
63	4026
64	1531
65	131
66	23
67	27
68	13
71	15
72	36
73	205
74	566
75	425
76	211
77	19
78	18
79	168
80	83
81	176
82	52
83	14
84	190
85	204
87	277
88	465
90	7511
91	558
92	39
93	58
94	19
95	20
99	511
100	462
101	7
102	34
104	41
105	15
106	36
107	21
115	19
116	51
117	149
118	426
119	146
120	23
128	33
129	23
130	31
131	18
141	47
142	54
143	85
144	37
145	25
155	12
156	13
157	14
169	3225
171	3101
172	242
173	22
197	9999
199	9334
200	746
201	53
