Mass Spectrum: 4-Octyloxybenzoic acid
Formula: C15 H22 O3
CAS: 2493-84-7
Molecular weight: 250
Origin: NIST Mass Spectrometry Data Center, 1998.
m/z	RELATIVE INTENSITY
26	20
27	450
29	1000
30	30
31	10
36	10
37	20
38	60
39	740
40	100
41	2940
42	600
43	3250
44	130
45	50
50	150
51	190
52	60
53	390
54	130
55	2020
56	1080
57	2900
58	130
61	10
62	50
63	240
64	150
65	1170
66	130
67	180
68	130
69	910
70	1300
71	1510
72	80
73	10
74	40
75	120
76	180
77	250
78	60
79	160
80	30
81	340
82	220
83	900
84	530
85	50
89	10
90	10
91	100
92	160
93	380
94	80
95	290
96	20
97	110
98	10
103	80
104	60
105	70
106	30
107	110
108	20
109	150
110	90
111	20
112	370
113	30
115	10
117	10
118	10
119	60
120	80
121	3350
122	270
123	70
124	10
131	20
132	10
133	30
134	10
135	20
136	10
138	9999
139	3910
140	330
141	30
145	10
147	30
149	10
151	260
152	30
155	10
160	10
161	10
164	20
165	10
175	10
179	20
188	10
233	30
250	1410
251	230
252	20
