Mass Spectrum: 6-Tridecene, 7-methyl-
Formula: C14 H28
CAS: 24949-42-6
Molecular weight: 196
Origin: CARL DJERASSI DEPT OF CHEM STANFORD UNIV STANFORD CALIF 94305
m/z	RELATIVE INTENSITY
39	808
40	101
41	5050
42	505
43	2929
44	1919
53	505
55	9999
56	8484
57	5757
58	101
67	909
68	1313
69	9898
70	2828
71	1212
79	101
81	808
82	303
83	4141
84	1313
85	202
91	404
92	101
95	202
97	1313
98	909
110	101
111	2323
112	404
126	909
127	101
196	909
