Mass Spectrum: 1-Methoxyphthalazine
Formula: C9 H8 N2 O
CAS: 24953-56-8
Molecular weight: 160
Origin: A.M.Zyakoon
m/z	RELATIVE INTENSITY
62	230
63	641
64	210
75	190
76	621
77	230
89	3413
90	320
102	881
103	9999
104	1401
105	561
115	100
116	150
117	210
128	470
129	2382
130	2722
131	4844
132	801
159	6836
160	8097
161	1031
