Mass Spectrum: Benzyl methacrylate
Formula: C11 H12 O2
CAS: 2495-37-6
Molecular weight: 176
Origin: Japan AIST/NIMC Database- Spectrum MS-NW-5205
m/z	RELATIVE INTENSITY
15	50
26	50
27	169
28	50
29	60
37	50
38	179
39	1769
40	259
41	3419
42	269
43	30
44	10
45	20
49	10
50	259
51	739
52	219
53	70
55	50
61	20
62	99
63	399
64	129
65	1509
66	80
68	10
69	5959
70	979
71	50
74	50
75	40
76	40
77	979
78	239
79	1489
80	99
86	10
89	599
90	1679
91	9999
92	959
93	30
97	10
98	30
103	10
105	389
106	60
107	1669
108	219
115	99
116	50
117	139
118	20
120	99
128	10
129	149
130	129
131	4969
132	579
133	40
140	10
142	10
148	10
157	60
158	1399
159	179
160	10
161	20
175	10
176	2259
177	279
178	20
