Mass Spectrum: Benzo[b]naphtho[2,3-d]thiophene, 8-methyl-
Formula: C17 H12 S
CAS: 24964-07-6
Molecular weight: 248
m/z	RELATIVE INTENSITY
25	10
26	10
27	50
28	20
32	10
33	10
34	10
35	10
37	10
38	10
39	90
40	10
41	10
42	10
43	10
44	10
45	60
46	10
47	10
49	10
50	40
51	60
52	10
53	10
56	10
57	10
58	10
59	10
60	10
61	10
62	50
63	110
64	20
65	10
66	10
67	10
68	10
69	100
70	10
71	20
72	10
73	10
74	60
75	80
76	40
77	30
78	10
79	10
81	20
82	40
83	10
84	10
85	10
86	50
87	90
88	180
89	50
90	10
91	10
92	10
93	60
94	30
95	20
96	10
97	30
98	70
99	60
100	110
101	150
102	20
103	30
104	20
105	10
106	20
107	20
108	20
109	40
110	120
111	300
112	30
113	30
114	20
115	30
116	50
117	30
118	10
119	10
120	10
121	20
122	130
123	280
124	1041
125	80
126	40
127	20
128	10
129	10
130	10
131	10
132	10
133	10
134	10
135	10
136	10
137	30
138	30
139	60
140	10
141	10
142	10
143	10
144	10
145	20
146	10
147	10
148	10
149	20
150	80
151	60
152	50
153	10
154	10
155	10
156	10
157	10
158	20
159	10
160	10
161	30
162	40
163	110
164	30
165	20
166	10
167	10
168	10
169	30
170	20
171	60
172	10
173	10
174	50
175	50
176	120
177	30
178	10
179	10
180	10
181	10
182	30
183	10
184	20
185	20
186	30
187	130
188	60
189	130
190	20
191	10
193	20
194	10
195	50
196	20
197	30
198	30
199	40
200	120
201	70
202	240
203	90
204	20
205	10
206	30
207	20
208	100
209	20
210	20
211	30
212	20
213	110
214	30
215	200
216	40
217	10
218	20
219	110
220	60
221	701
222	130
223	40
224	10
230	20
231	20
232	160
233	40
234	30
235	10
236	10
241	10
242	20
243	140
244	110
245	1011
246	651
247	2542
248	9999
249	1982
250	621
251	100
252	20
253	10
