Mass Spectrum: Benzo[b]naphtho[2,3-d]thiophene, 7-methyl-
Formula: C17 H12 S
CAS: 24964-09-8
Molecular weight: 248
m/z	RELATIVE INTENSITY
38	60
39	210
40	20
41	10
43	10
44	10
45	110
50	90
51	120
52	20
55	10
57	20
58	20
61	20
62	90
63	160
64	20
65	20
69	130
70	20
71	20
73	10
74	100
75	110
76	50
77	40
78	10
81	30
82	50
83	20
84	10
85	20
86	70
87	120
88	210
89	60
90	10
91	20
93	70
94	40
95	30
96	10
97	20
98	90
99	70
100	140
101	180
102	30
103	40
104	10
105	20
106	30
107	30
108	30
109	50
110	150
111	350
112	30
113	30
114	20
115	30
116	60
117	40
119	10
121	30
122	160
123	330
124	1241
125	90
126	30
127	20
134	10
135	10
137	30
138	30
139	60
140	10
141	10
145	10
149	10
150	60
151	50
152	40
158	10
161	20
162	30
163	90
164	30
165	20
169	30
170	20
171	40
174	50
175	40
176	100
177	20
182	20
184	30
185	20
186	30
187	120
188	50
189	110
190	20
193	20
194	20
195	50
196	20
197	30
198	30
199	40
200	120
201	70
202	220
203	70
204	20
206	30
207	40
208	100
209	30
210	20
211	30
212	20
213	110
214	40
215	170
216	40
217	10
218	20
219	100
220	60
221	591
222	120
223	40
224	20
230	20
231	20
232	150
233	40
234	50
235	20
237	30
243	150
244	140
245	1081
246	651
247	2863
248	9999
249	1962
250	601
251	90
252	40
