Mass Spectrum: [1,1'-Biphenyl]-2-carbonitrile
Formula: C13 H9 N
CAS: 24973-49-7
Molecular weight: 179
Origin: R.G. BOLTON
m/z	RELATIVE INTENSITY
63	300
69	80
70	40
71	100
74	100
75	300
76	1100
77	100
78	30
89	400
90	80
125	50
126	100
127	100
128	50
140	100
149	90
150	200
151	700
152	600
153	300
154	100
164	40
175	40
176	100
177	800
178	1900
179	9999
180	1400
181	200
