Mass Spectrum: (E)-2-Decenyl acetate
Formula: C12 H22 O2
CAS: 2497-23-6
Molecular weight: 198
Origin: NIST Mass Spectrometry Data Center
m/z	RELATIVE INTENSITY
14	10
15	80
26	30
27	561
28	150
29	841
30	20
31	30
37	10
38	20
39	881
40	160
41	2422
42	591
43	9999
44	310
45	60
50	20
51	90
52	70
53	611
54	3343
55	2863
56	791
57	1341
58	290
59	80
60	10
61	230
62	10
63	20
65	210
66	360
67	2813
68	2132
69	1301
70	540
71	1011
72	470
73	200
74	10
77	140
78	30
79	450
80	210
81	2722
82	2522
83	1211
84	330
85	290
86	300
87	70
88	10
91	60
92	10
93	80
94	80
95	1942
96	2632
97	631
98	130
99	540
100	771
101	160
102	10
105	10
107	20
108	30
109	1101
110	2132
111	230
112	80
113	571
114	721
115	210
116	20
121	10
123	120
124	30
125	20
126	10
127	470
128	140
129	10
136	10
137	70
138	811
139	100
140	20
141	170
142	40
143	10
154	10
155	250
156	931
157	100
158	10
169	50
170	10
183	10
