Mass Spectrum: Oxydisulfoton
Formula: C8 H19 O3 P S3
CAS: 2497-07-6
Molecular weight: 290
Origin: J. SHAW, BORRISTON RESEARCH, ROCKVILLE, MD, USA
m/z	RELATIVE INTENSITY
12	30
13	30
14	130
15	630
16	120
17	460
18	1641
19	110
25	70
26	920
27	6856
28	1681
29	9999
30	300
31	190
32	160
33	90
34	140
35	500
36	10
37	20
39	60
40	10
41	220
42	80
43	560
44	130
45	1981
46	380
47	1611
48	320
49	180
50	210
51	50
52	10
53	20
54	20
55	130
56	20
57	120
58	410
59	1771
60	1891
61	3733
62	260
63	1001
64	600
65	3083
66	90
67	30
69	30
70	10
71	20
72	10
73	70
74	20
75	570
76	200
77	920
78	370
79	210
80	320
81	650
82	50
83	50
84	10
85	30
86	40
87	130
88	1381
89	850
90	120
91	380
92	210
93	1171
94	100
95	290
97	7017
98	80
99	340
105	520
106	30
107	80
108	40
109	770
110	40
111	70
112	330
113	170
114	160
115	160
116	10
117	10
119	10
120	20
121	460
122	50
123	140
125	5095
126	200
127	270
129	1601
130	80
131	190
133	10
135	20
137	160
138	20
139	170
140	60
141	100
142	210
143	80
144	20
146	10
149	20
151	20
153	3193
154	170
155	180
157	1541
158	140
159	170
160	20
161	30
167	20
168	20
169	10
170	20
171	40
183	20
185	1891
186	210
187	200
188	20
189	40
197	10
202	20
205	10
211	10
213	2252
214	180
215	200
216	10
217	10
233	10
245	10
261	30
274	20
290	10
291	40
