Mass Spectrum: Benz[a]anthracene, 1-methyl-
Formula: C19 H14
CAS: 2498-77-3
Molecular weight: 242
m/z	RELATIVE INTENSITY
35	10
36	20
37	30
38	90
39	300
40	250
41	60
42	10
43	20
44	70
45	40
47	10
49	20
50	180
51	200
52	80
53	10
55	20
56	30
57	60
58	10
59	10
61	20
62	90
63	190
64	20
65	20
67	10
68	10
69	10
70	10
71	10
72	10
73	20
74	130
75	120
76	60
77	80
78	280
79	60
80	40
81	30
82	20
83	10
85	30
86	110
87	170
88	80
89	40
90	10
91	10
92	10
93	40
94	100
95	60
97	10
98	100
99	90
100	140
101	90
102	20
103	10
105	30
106	140
107	180
108	180
109	10
110	50
111	70
112	120
113	380
114	40
115	30
117	20
118	140
119	470
120	871
121	851
122	60
123	30
124	10
125	20
126	40
127	10
128	10
133	10
134	20
135	20
136	10
137	30
138	10
139	50
140	10
149	20
150	80
151	50
152	40
153	10
161	30
162	30
163	100
164	30
165	90
166	20
173	10
174	60
175	40
176	70
177	20
178	10
185	20
186	30
187	140
188	50
189	140
190	30
191	10
197	10
198	30
199	30
200	120
201	40
202	120
203	30
209	10
210	10
211	100
212	50
213	260
214	60
215	430
216	90
217	10
222	10
223	20
224	140
225	70
226	581
227	240
228	50
229	20
234	10
235	50
236	40
237	430
238	180
239	2722
240	1391
241	2562
242	9999
243	2022
244	220
245	20
