Mass Spectrum: Ethyl 5-hydroxyindole-2-carboxylate
Formula: C11 H11 N O3
CAS: 24985-85-1
Molecular weight: 205
Origin: NIST Mass Spectrometry Data Center, 1994
m/z	RELATIVE INTENSITY
14	24
15	194
16	14
17	27
18	43
19	28
25	15
26	219
27	836
28	228
29	999
30	54
31	15
37	48
38	206
39	289
40	40
41	11
42	52
43	69
44	40
45	57
49	50
50	658
51	1199
52	475
53	277
54	51
55	80
61	46
62	185
63	241
64	114
65	218
66	165
67	33
68	19
73	25
74	127
75	418
76	1212
77	658
78	153
79	65
80	238
81	24
85	12
86	48
87	63
88	44
89	27
90	15
91	33
92	38
93	30
99	14
100	18
101	64
102	714
103	1222
104	218
105	1859
106	162
114	32
119	14
120	32
130	1513
131	1272
132	758
133	221
134	32
144	35
148	78
159	9999
160	1921
161	270
162	24
172	25
176	174
177	112
178	14
190	33
205	2892
206	352
207	42
