Mass Spectrum: n-Hexyl acrylate
Formula: C9 H16 O2
CAS: 2499-95-8
Molecular weight: 156
Origin: Japan AIST/NIMC Database- Spectrum MS-IW-4783
m/z	RELATIVE INTENSITY
15	30
25	20
26	229
27	2019
28	309
29	839
30	20
31	119
38	20
39	489
40	99
41	1989
42	2239
43	2689
44	149
45	50
50	10
51	30
52	10
53	159
54	309
55	9999
56	6929
57	669
58	50
59	20
60	10
65	10
66	10
67	179
68	109
69	2459
70	469
71	149
72	70
73	4929
74	219
75	30
77	10
79	20
81	80
82	149
83	629
84	4619
85	699
86	60
87	30
94	20
95	30
96	119
97	139
98	109
99	179
100	80
101	40
109	60
110	40
111	20
112	30
113	189
114	50
115	20
123	30
127	60
128	10
138	10
156	10
