Mass Spectrum: Thieno[3,4-b]thiophene
Formula: C6 H4 S2
CAS: 250-65-7
Molecular weight: 140
m/z	RELATIVE INTENSITY
37	635
38	714
39	1016
45	3333
61	286
62	635
63	984
64	555
65	238
69	2301
70	952
71	381
81	635
82	603
88	476
89	508
93	952
95	2222
96	2539
139	2222
140	9999
141	1016
142	1016
