Mass Spectrum: Ethanone, 1-(1H-pyrazol-4-yl)-
Formula: C5 H6 N2 O
CAS: 25016-16-4
Molecular weight: 110
Origin: J. VAN THUIJL
m/z	RELATIVE INTENSITY
15	480
25	50
26	200
27	240
28	1390
29	110
36	30
37	360
38	520
39	1540
40	890
41	230
42	260
43	1470
49	40
50	100
51	170
52	270
53	240
54	170
55	40
65	40
66	90
67	340
68	1370
69	40
81	50
95	9999
96	640
97	40
110	3290
111	260
