Mass Spectrum: .alpha.-D-Glucopyranoside, 2,3,4,6-tetra-O-methyl-.alpha.-D-glucopyranosyl 2,3,4,6-tetra-O-methyl-
Formula: C20 H38 O11
CAS: 25018-29-5
Molecular weight: 454
m/z	RELATIVE INTENSITY
45	5099
59	400
71	1300
75	1300
88	650
99	450
101	9999
111	1920
115	560
127	530
129	240
131	270
143	440
145	490
155	780
159	150
187	3200
219	230
235	100
249	150
275	410
279	40
293	10
305	40
307	340
409	10
