Mass Spectrum: 4-Acetamidophenylacetonitrile
Formula: C10 H10 N2 O
CAS: 25025-06-3
Molecular weight: 174
Origin: NIST Mass Spectrometry Data Center, 1994
m/z	RELATIVE INTENSITY
14	168
15	681
18	41
26	114
27	212
28	316
29	52
30	38
37	110
38	240
39	532
40	135
41	206
42	38
43	5598
44	175
49	47
50	506
51	943
52	616
53	163
54	90
61	111
62	219
63	599
64	351
65	255
66	79
74	121
75	261
76	643
77	1444
78	641
79	148
80	51
87	37
88	85
89	304
90	141
91	191
93	40
102	223
103	299
104	1375
105	797
106	542
107	39
114	54
115	74
116	166
129	78
131	5393
132	9999
133	953
134	58
145	39
159	29
174	2248
175	288
