Mass Spectrum: [1,2,4]Triazolo[1,5-a]pyrimidin-7-ol, 5-methyl-
Formula: C6 H6 N4 O
CAS: 2503-56-2
Molecular weight: 150
Origin: RADIAN CORP
m/z	RELATIVE INTENSITY
15	20
26	50
27	160
28	270
29	140
30	30
36	40
37	110
38	310
39	1370
40	1300
41	790
42	490
43	350
44	560
45	140
46	20
50	40
51	120
52	290
53	270
54	270
55	510
56	170
57	350
60	330
61	90
62	20
63	30
64	160
65	100
66	470
67	1630
68	2900
69	730
70	270
71	280
72	50
73	460
74	80
75	20
76	20
77	50
78	50
79	110
80	110
81	250
82	220
83	380
84	300
85	210
86	40
87	120
88	20
91	50
92	30
93	130
94	530
95	770
96	240
97	320
98	180
99	90
100	40
101	50
102	20
103	20
104	20
105	60
106	20
107	80
108	40
109	150
110	90
111	140
112	60
113	50
114	40
115	90
116	30
117	20
118	20
119	50
120	60
121	1470
122	2420
123	250
124	60
125	70
126	60
127	50
128	30
129	20
130	20
131	20
133	20
134	20
135	60
136	30
137	40
138	50
139	20
140	20
141	20
143	40
145	20
147	40
148	20
149	70
150	9999
151	940
152	100
153	10
