Mass Spectrum: Benzamide, N,N-dibutyl-
Formula: C15 H23 N O
CAS: 25033-65-2
Molecular weight: 233
Origin: CARL DJERASSI DEPT OF CHEM STANFORD UNIV STANFORD CALIF 94305
m/z	RELATIVE INTENSITY
41	200
42	100
50	100
51	300
57	100
76	100
77	2100
78	100
84	100
91	100
105	9999
106	800
134	200
135	200
148	400
149	200
176	200
190	1300
191	300
204	100
232	600
233	1100
234	200
