Mass Spectrum: 2-Propanone, 1-(4-hydroxy-3-methoxyphenyl)-
Formula: C10 H12 O3
CAS: 2503-46-0
Molecular weight: 180
Origin: K. VLADIMIR INSTITUTE OF CHEMISTRY BRATISLAVA CZECHOSLOVAKIA
m/z	RELATIVE INTENSITY
29	150
31	120
39	1890
41	250
43	4900
50	630
51	1850
52	810
53	810
55	600
63	580
65	1280
66	1280
67	250
77	1240
78	420
79	430
81	440
91	340
94	2120
95	280
105	320
106	210
107	310
109	280
122	2200
123	820
136	840
137	9999
138	1630
180	2900
181	380
