Mass Spectrum: Silane, 1,2-ethanediylbis[trichloro-
Formula: C2 H4 Cl6 Si2
CAS: 2504-64-5
Molecular weight: 294
Origin: RADIAN CORP
m/z	RELATIVE INTENSITY
25	20
26	340
27	680
29	90
30	20
35	200
37	60
41	70
42	50
45	30
48	20
52	80
53	590
54	100
55	70
63	6450
64	510
65	2470
66	180
67	90
72	50
76	30
77	40
79	40
87	60
88	160
89	120
90	170
91	130
92	50
93	30
98	4310
99	1620
100	2990
101	1090
102	600
103	200
107	130
109	30
111	30
112	120
113	30
114	80
115	20
123	420
124	180
125	2090
126	5500
127	1650
128	3740
129	580
130	700
131	110
133	9999
134	480
135	9880
136	540
137	3450
138	160
139	450
142	70
144	40
160	20
161	3760
162	370
163	3770
164	300
165	1310
166	100
167	170
196	60
198	50
258	1010
259	380
260	1730
261	620
262	1220
263	420
264	470
265	160
266	110
294	220
296	430
297	50
298	360
300	170
