Mass Spectrum: 2-Methoxy-5-methylbenzoic acid
Formula: C9 H10 O3
CAS: 25045-36-7
Molecular weight: 166
Origin: NIST Mass Spectrometry Data Center, 1994
m/z	RELATIVE INTENSITY
14	186
15	1254
17	38
18	73
26	254
27	966
28	489
29	365
30	81
31	155
32	37
37	224
38	492
39	2140
40	266
41	613
42	79
43	493
44	134
45	790
49	190
50	1685
51	3213
52	1609
53	1765
54	125
55	648
59	65
61	238
62	740
63	1533
64	462
65	1920
66	327
67	567
68	82
69	84
73	85
74	469
75	383
76	65
77	6465
78	2615
79	1349
80	89
81	72
83	46
85	76
86	172
87	116
88	46
89	1436
90	1313
91	7342
92	1153
93	5479
94	472
95	527
103	154
105	2247
106	1428
107	1092
108	153
119	8361
120	1440
121	2235
122	269
123	397
133	2470
134	881
135	799
136	269
137	4824
138	462
139	55
147	1331
148	642
149	2702
150	262
151	249
164	88
166	9999
167	966
168	100
