Mass Spectrum: Bentazone
Formula: C10 H12 N2 O3 S
CAS: 25057-89-0
Molecular weight: 240
Origin: CATALOGUE OF MASS SPECTRA OF PESTICIDES, APRIL, 1975; J. FREUDENTHAL & L. G. GRAMBERG, NAT'L INST. OF PUBLIC HEALTH, THE NETHERLANDS
m/z	RELATIVE INTENSITY
27	249
38	166
39	502
41	759
42	233
43	352
44	158
50	139
51	271
52	468
63	718
64	1188
65	643
67	106
74	106
76	150
77	229
78	332
79	448
90	1062
91	758
92	3129
93	267
104	112
105	340
106	290
107	105
117	176
118	1509
119	9642
120	2705
121	137
133	196
134	239
138	269
153	119
154	181
155	113
161	3940
162	394
181	219
182	2276
183	269
198	9999
199	1436
200	554
225	2450
226	199
240	1904
241	122
