Mass Spectrum: Tetradecanoic acid, 2-hydroxy-
Formula: C14 H28 O3
CAS: 2507-55-3
Molecular weight: 244
Origin: R.T.HOLMAN,UNIVERSITY OF MINNESOTA
m/z	RELATIVE INTENSITY
26	90
27	1940
28	610
29	3630
30	160
31	150
37	70
38	60
39	1090
40	240
41	6100
42	2330
43	7270
44	810
45	750
46	60
47	330
48	60
50	60
51	120
52	100
53	550
54	660
55	4540
56	1450
57	2850
58	540
59	250
60	810
61	250
63	60
65	100
66	140
67	1140
68	750
69	2200
70	1070
71	3890
72	280
73	440
74	60
75	70
77	110
79	220
80	140
81	980
82	740
83	1200
84	720
85	580
86	190
87	460
88	320
89	9999
90	460
91	200
92	60
93	140
94	70
95	630
96	710
97	1100
98	540
99	190
100	240
101	150
102	120
103	50
104	100
105	70
106	50
107	100
108	90
109	310
110	400
111	530
112	270
113	160
114	360
115	180
116	90
117	60
118	50
119	100
120	60
121	60
122	70
123	230
124	280
125	140
126	110
127	230
128	150
129	140
130	90
131	60
133	70
134	70
135	70
136	60
137	180
138	230
139	120
140	320
141	100
142	100
143	90
144	60
146	50
147	70
148	90
149	70
150	50
151	110
152	100
153	70
154	110
155	100
156	70
157	70
158	90
159	50
161	70
162	50
164	200
165	120
166	550
167	190
168	60
169	70
170	50
171	50
172	60
178	50
179	60
180	70
182	70
183	120
184	60
185	150
186	60
190	90
191	60
197	50
198	90
199	50
208	370
209	100
210	50
216	60
217	50
218	50
219	70
220	50
226	370
227	110
228	70
