Mass Spectrum: 1,3-Diethyladamantane
Formula: C14 H24
CAS: 25074-51-5
Molecular weight: 192
Origin: V.G.Zaikin, TIPS, Russian Acad. Sci.
m/z	RELATIVE INTENSITY
51	100
53	300
54	100
55	800
56	200
57	600
67	600
69	400
70	100
71	200
77	600
78	200
79	1401
80	200
81	600
82	200
91	400
92	200
93	1401
94	200
95	400
105	400
106	200
107	1801
108	200
109	300
111	100
117	200
121	600
133	1000
135	200
149	400
163	9999
164	1401
165	200
192	400
193	60
