Mass Spectrum: 5-Nitro-2-furoyl chloride
Formula: C5 H2 Cl N O4
CAS: 25084-14-4
Molecular weight: 175
Origin: NIST Mass Spectrometry Data Center, 1994
m/z	RELATIVE INTENSITY
4	37
12	156
13	120
14	86
16	145
24	94
25	467
26	1215
27	90
28	666
29	192
30	5248
32	29
35	346
36	582
37	2796
38	6093
39	259
40	274
41	296
42	73
44	87
46	375
47	274
48	91
49	313
50	256
51	364
52	567
53	766
54	1816
55	57
60	38
61	239
62	37
63	597
64	55
65	416
66	2778
67	181
68	795
71	43
72	123
73	1177
74	97
75	376
80	217
82	574
83	32
84	38
89	1218
90	55
91	369
93	142
94	596
96	1294
97	70
103	34
112	31
117	280
119	81
140	9999
141	581
142	120
147	629
148	34
149	203
175	1442
176	85
177	477
178	28
