Mass Spectrum: Benzoic acid, 3,5-dimethyl-, methyl ester
Formula: C10 H12 O2
CAS: 25081-39-4
Molecular weight: 164
m/z	RELATIVE INTENSITY
69	10
70	10
71	10
72	10
73	30
74	190
75	180
76	150
77	1792
78	661
79	991
80	70
81	80
82	10
83	40
84	20
85	20
86	50
87	70
88	20
89	220
90	100
91	290
92	40
93	20
94	10
95	10
96	10
97	10
98	30
99	10
100	10
101	50
102	180
103	961
104	490
105	3883
106	380
107	20
108	20
109	10
115	10
116	10
117	10
118	40
119	180
120	30
121	20
122	10
129	10
130	10
131	30
132	100
133	9999
134	1041
135	80
136	10
146	20
147	30
148	10
149	210
150	210
151	10
162	20
163	190
164	3934
165	430
166	40
