Mass Spectrum: Thieno[3,2-b]thiophene
Formula: C6 H4 S2
CAS: 251-41-2
Molecular weight: 140
m/z	RELATIVE INTENSITY
38	80
45	941
57	130
58	80
63	270
64	300
69	1181
70	1051
71	430
81	130
82	220
88	110
93	160
95	561
96	1942
97	110
139	160
140	9999
141	831
142	911
