Mass Spectrum: Phosphorochloridic acid, dipropyl ester
Formula: C6 H14 Cl O3 P
CAS: 2510-89-6
Molecular weight: 200
Origin: V.G. Zaikin, R.S.Borisov, TIPS RAS, Moscow, Russia
m/z	RELATIVE INTENSITY
27	260
29	100
31	100
39	230
40	40
41	530
42	250
43	841
47	70
55	30
58	20
59	380
65	80
77	20
81	220
83	20
99	150
100	340
101	160
102	100
103	30
112	20
117	9999
119	3423
123	320
129	1301
130	120
131	530
132	30
133	20
143	180
145	50
157	130
158	270
159	380
160	80
161	100
171	120
173	20
