Mass Spectrum: 3,5-Dimethylisoxazole-4-carboxylic acid
Formula: C6 H7 N O3
CAS: 2510-36-3
Molecular weight: 141
Origin: NIST Mass Spectrometry Data Center, 1994
m/z	RELATIVE INTENSITY
12	268
14	566
15	2013
25	289
26	979
27	1247
28	1563
29	58
30	636
37	528
38	835
39	2443
40	844
41	773
42	1928
43	9999
44	632
45	836
50	303
51	854
52	1367
53	1180
54	1734
55	1496
58	335
61	211
62	447
63	732
64	212
65	352
66	368
67	528
68	594
69	334
70	582
71	680
80	1066
81	2746
82	8923
83	515
84	260
97	614
98	347
99	542
123	822
124	339
126	1394
141	5431
142	394
