Mass Spectrum: Benzeneacetonitrile, .alpha.-(phenylmethylene)-
Formula: C15 H11 N
CAS: 2510-95-4
Molecular weight: 205
Origin: RADIAN CORP
m/z	RELATIVE INTENSITY
26	10
27	150
28	30
38	100
39	610
40	50
50	630
51	1240
52	360
61	70
62	280
63	800
64	130
65	130
73	20
74	380
75	660
76	1200
77	660
78	350
79	10
81	40
85	20
86	110
87	310
88	1100
89	1360
91	20
98	100
99	140
100	180
101	260
102	720
110	20
111	50
112	30
113	180
114	90
115	110
116	10
122	20
123	30
124	30
125	90
126	230
127	230
128	80
137	90
138	60
139	170
140	200
149	80
150	450
151	750
152	470
153	130
154	20
162	30
163	180
164	240
165	980
166	190
174	100
175	360
176	1960
177	2390
178	1780
179	380
180	30
188	80
189	90
190	4830
191	760
192	50
201	330
202	520
203	2410
204	8560
205	9999
206	1480
207	110
