Mass Spectrum: Benzonitrile, 4-ethoxy-
Formula: C9 H9 N O
CAS: 25117-74-2
Molecular weight: 147
Origin: Dr. Jiri Zamecnik, DCIEM, North York, Canada, GP Library
m/z	RELATIVE INTENSITY
38	190
39	480
50	230
51	340
52	170
63	640
64	1130
65	240
75	410
76	310
90	410
91	1190
92	260
102	410
103	60
104	40
119	9999
120	810
121	50
132	40
147	3070
148	330
