Mass Spectrum: Nonadecane, 4-methyl-
Formula: C20 H42
CAS: 25117-27-5
Molecular weight: 282
Origin: W.L.MEAD BRITISH PETROLEUM CO. LTD., SUNBURY-ON-THAMES, UK
m/z	RELATIVE INTENSITY
39	1070
40	260
41	4730
42	1330
43	9999
44	350
53	300
54	270
55	3420
56	1430
57	6360
58	330
67	470
68	260
69	1430
70	3530
71	7370
72	400
81	190
82	230
83	860
84	380
85	3070
86	210
95	110
96	170
97	680
98	200
99	1180
100	90
111	420
112	170
113	750
114	50
125	200
126	120
127	690
128	70
138	60
139	170
140	60
141	550
142	80
153	30
154	40
155	540
156	50
167	40
168	40
169	310
170	30
181	50
182	70
183	240
184	40
196	30
197	110
198	40
210	180
211	220
212	20
238	740
239	1230
240	220
253	70
254	80
267	90
268	20
282	20
