Mass Spectrum: 2-Ethyl-3-methoxy-2-cyclopentenone
Formula: C8 H12 O2
CAS: 25112-86-1
Molecular weight: 140
Origin: K. MATOBA, TOYAMA MED. & PHARM. UNIV., SUGITANI, TOYAMA, JAPAN
m/z	RELATIVE INTENSITY
40	1191
41	5316
42	1093
43	2616
44	1526
45	605
50	610
51	1073
52	752
53	2575
54	1294
55	2638
56	575
57	955
58	811
59	929
60	1219
62	201
63	410
65	1449
66	754
67	4445
68	902
69	1916
71	325
72	252
74	215
77	940
78	194
79	1930
80	367
81	996
82	952
83	2007
84	218
88	264
95	1853
96	314
97	4634
98	778
107	219
109	291
110	207
111	2043
112	281
125	9999
126	937
139	1566
140	8389
141	1364
