Mass Spectrum: 4-Methyldocosane
Formula: C23 H48
CAS: 25117-30-0
Molecular weight: 324
Origin: J. Klune, Insect Chem. Ecol. Lab., USDA, Beltsville, MD 20705
m/z	RELATIVE INTENSITY
41	4555
42	1594
43	9999
44	7
45	8
49	13
50	4
51	44
52	19
53	371
54	6
55	5314
56	2126
57	7063
58	319
59	9
61	4
63	44
65	195
66	69
67	957
68	505
69	2857
70	7266
71	5939
72	412
73	16
75	99
76	11
77	243
78	31
79	390
80	92
81	860
82	677
83	1940
84	917
85	3526
86	226
87	103
89	334
90	47
91	320
92	64
93	307
94	68
95	1255
96	460
97	1735
98	422
99	972
100	72
101	90
102	181
103	112
104	80
105	111
106	16
107	213
109	827
110	404
111	936
112	269
113	519
114	51
115	133
116	146
117	100
118	72
119	39
120	14
121	125
122	61
123	1213
124	180
125	948
126	167
127	418
129	227
130	77
131	156
132	67
133	49
134	19
135	105
136	119
137	272
138	156
139	191
140	98
141	208
143	86
144	231
145	56
146	77
147	45
148	9
149	79
150	20
151	105
152	250
153	88
154	173
155	128
156	30
157	38
158	31
159	19
160	11
161	8
163	41
164	51
165	609
166	193
167	415
168	123
169	158
170	23
171	19
172	8
173	10
175	6
177	23
178	8
179	25
180	24
181	33
182	30
183	73
184	10
185	11
187	6
189	5
191	18
192	7
193	17
194	17
195	16
196	15
197	55
198	7
199	5
205	13
207	16
208	12
209	12
210	19
211	36
212	5
219	8
221	7
222	7
223	9
224	19
225	27
233	7
235	7
236	11
237	7
238	19
239	16
245	4
249	8
250	6
251	5
252	148
253	140
254	18
261	6
262	5
263	12
264	6
266	220
267	56
268	7
277	6
280	387
281	680
282	135
283	11
289	20
290	6
291	6
294	71
295	82
296	12
298	7
308	21
309	70
310	12
323	10
324	85
325	29
326	5
