Mass Spectrum: Pentadecane, 5-methyl-
Formula: C16 H34
CAS: 25117-33-3
Molecular weight: 226
Origin: DM6-99-U2
m/z	RELATIVE INTENSITY
15	190
25	190
26	190
27	1910
28	600
29	3410
30	1010
40	1090
41	5399
42	1140
43	9999
44	460
53	330
54	220
55	2340
56	1360
57	5609
58	350
67	270
68	140
69	950
70	460
71	2780
72	330
81	140
82	140
83	330
84	2450
85	4580
86	330
97	270
98	270
99	540
111	220
112	160
113	460
127	350
140	270
141	160
168	870
169	540
211	270
226	190
