Mass Spectrum: Cyclopropane, pentyl-
Formula: C8 H16
CAS: 2511-91-3
Molecular weight: 112
Origin: CARL DJERASSI DEPT OF CHEM STANFORD UNIV STANFORD CALIF 94305
m/z	RELATIVE INTENSITY
41	5500
42	5700
43	5700
44	200
50	100
51	100
52	100
53	500
54	600
55	8000
56	9999
57	1500
65	100
67	400
68	1200
69	4700
70	5300
71	600
81	100
82	600
83	3100
84	3100
85	200
97	300
112	600
113	100
