Mass Spectrum: Tridecane, 5-methyl-
Formula: C14 H30
CAS: 25117-31-1
Molecular weight: 198
Origin: D.HENNEBERG, MAX-PLANCK INSTITUTE, MULHEIM, WEST GERMANY
m/z	RELATIVE INTENSITY
22	42
26	195
27	683
29	1498
30	38
33	28
34	8
35	37
38	75
39	298
41	2445
42	759
43	9999
44	24
51	1
53	73
54	64
55	1079
56	1487
57	7793
58	373
59	124
67	64
68	87
69	648
70	506
71	3646
72	219
73	3
78	21
79	32
82	73
83	214
84	2310
85	5756
86	355
95	14
96	48
97	219
98	194
99	640
100	32
111	180
112	308
113	182
126	51
127	18
140	848
141	603
142	46
154	20
155	34
168	30
169	26
183	72
198	23
