Mass Spectrum: Pentamethylphosphonic diamide
Formula: C5 H15 N2 O P
CAS: 2511-17-3
Molecular weight: 150
Origin: NIST Mass Spectrometry Data Center
m/z	RELATIVE INTENSITY
14	330
15	1922
17	30
18	841
28	801
30	571
33	100
40	290
42	5555
43	841
44	9999
45	280
47	1461
48	170
49	230
56	80
58	1962
60	591
61	100
63	951
65	80
75	80
76	851
77	110
89	100
90	1501
92	6146
93	210
106	5265
107	1611
108	100
135	1872
136	100
150	1752
151	110
