Mass Spectrum: Thiazole, 5-ethoxy-
Formula: C5 H7 N O S
CAS: 25115-63-3
Molecular weight: 129
Origin: M.A.FRIEDMAN FAC. SCI. ST-JEROME, MARSEILLE, FRANCE
m/z	RELATIVE INTENSITY
26	400
27	1400
28	1700
29	4400
40	400
45	1900
46	3600
56	1300
57	800
58	1300
59	1400
73	5300
75	800
85	400
86	500
100	400
101	9999
102	1200
103	1500
129	3300
130	300
131	300
