Mass Spectrum: Hexadecane, 4-methyl-
Formula: C17 H36
CAS: 25117-26-4
Molecular weight: 240
Origin: W.L.MEAD BRITISH PETROLEUM CO. LTD., SUNBURY-ON-THAMES, UK
m/z	RELATIVE INTENSITY
39	940
40	210
41	5070
42	1320
43	9999
44	380
53	330
54	300
55	3280
56	1230
57	6270
58	310
67	350
68	210
69	1160
70	3430
71	7240
72	410
81	110
82	180
83	640
84	410
85	3130
86	210
96	150
97	520
98	210
99	1060
100	90
110	80
111	300
112	170
113	890
114	70
124	40
125	170
126	120
127	740
128	80
138	30
139	110
140	80
141	480
142	70
153	50
154	40
155	230
156	30
168	290
169	180
170	40
182	20
183	30
196	710
197	1030
198	130
210	60
211	80
212	20
224	10
225	80
226	10
240	40
