Mass Spectrum: Piperidine, 1,1'-thiobis-
Formula: C10 H20 N2 S
CAS: 25116-80-7
Molecular weight: 200
Origin: R.L.FOLTZ BATTELLE COLUMBUS LAB., COLUMBUS, OHIO, USA
m/z	RELATIVE INTENSITY
43	792
44	549
45	160
50	1017
53	63
54	123
55	4256
56	1688
57	877
58	61
60	214
61	257
62	460
67	132
69	136
70	390
73	47
74	81
75	55
76	305
82	932
83	488
84	9999
85	2077
86	541
87	123
88	109
98	111
104	123
115	1167
116	5361
117	834
118	241
148	239
200	8105
201	1077
202	379
