Mass Spectrum: 2H-1-Benzopyran, 2,2-dimethyl-
Formula: C11 H12 O
CAS: 2513-25-9
Molecular weight: 160
m/z	RELATIVE INTENSITY
51	522
52	304
53	217
75	87
77	435
78	217
79	87
89	304
91	783
92	174
94	435
119	174
120	87
121	348
131	304
134	87
144	350
145	9999
146	1100
147	80
148	5
158	130
159	348
160	1217
161	261
162	87
