Mass Spectrum: 3-Hexen-1-ol, benzoate, (Z)-
Formula: C13 H16 O2
CAS: 25152-85-6
Molecular weight: 204
m/z	RELATIVE INTENSITY
26	80
27	781
28	270
29	460
38	70
39	931
40	140
41	1511
42	200
43	90
50	460
51	1732
52	180
53	390
54	701
55	561
65	140
66	110
67	6996
68	490
69	60
74	80
75	120
76	310
77	5415
78	510
79	280
80	70
81	591
82	1091
83	911
104	80
105	9999
106	1021
107	60
122	60
123	550
124	60
