Mass Spectrum: Cyclobutylamine
Formula: C4 H9 N
CAS: 2516-34-9
Molecular weight: 71
Origin: Chuck Anderson, Aldrich Chemical Co.
m/z	RELATIVE INTENSITY
14	4
15	73
17	16
18	28
25	7
26	115
27	407
28	617
29	101
30	266
33	18
34	31
36	8
37	73
38	141
39	490
40	190
41	703
42	3398
43	9999
44	351
49	18
50	74
51	80
52	53
53	80
54	77
55	54
56	78
68	31
69	6
70	34
71	23
72	66
