Mass Spectrum: 3,7-Octadien-2-one, (E)-
Formula: C8 H12 O
CAS: 25172-06-9
Molecular weight: 124
Origin: CARL DJERASSI DEPT OF CHEM STANFORD UNIV STANFORD CALIF 94305
m/z	RELATIVE INTENSITY
41	4300
42	400
43	9999
44	300
50	100
51	400
52	100
53	600
54	600
55	4200
65	200
66	900
67	500
68	200
69	200
77	300
79	1400
80	1000
81	5700
82	400
83	400
95	1000
96	100
109	1600
110	100
