Mass Spectrum: 3-(3,4-Dichlorophenyl)propionic acid
Formula: C9 H8 Cl2 O2
CAS: 25173-68-6
Molecular weight: 218
Origin: NIST Mass Spectrometry Data Center, 1994
m/z	RELATIVE INTENSITY
14	167
15	140
17	103
18	103
26	397
27	1717
28	526
29	307
30	103
31	376
32	13
35	209
36	211
37	437
38	531
39	1181
40	119
41	122
42	547
43	769
44	13
45	3249
46	136
47	124
48	13
49	581
50	2322
51	2454
52	307
53	279
54	78
55	436
56	62
59	97
60	203
61	646
62	1067
63	2074
64	137
65	167
68	677
69	312
72	278
73	1558
74	2423
75	3331
76	668
77	1981
78	181
83	123
84	484
85	641
86	612
87	698
88	290
89	1676
90	232
91	359
92	182
96	143
97	597
98	389
99	916
100	421
101	2225
102	3143
103	1519
104	283
105	71
107	210
108	177
109	999
110	369
111	1191
112	288
113	585
114	116
115	154
119	73
123	1516
124	447
125	553
126	213
127	128
133	300
135	350
136	581
137	1438
138	660
139	530
140	128
141	2222
142	171
143	605
144	83
145	232
146	803
147	227
148	560
149	127
150	128
157	77
159	9999
160	883
161	5953
162	528
163	943
164	137
165	107
167	80
170	63
172	4890
173	930
174	3390
175	543
176	522
177	193
183	163
185	92
201	137
203	92
218	2845
219	256
220	1820
221	141
222	289
