Mass Spectrum: 2-Azetidinecarboxylic acid
Formula: C4 H7 N O2
CAS: 2517-04-6
Molecular weight: 101
Origin: Japan AIST/NIMC Database- Spectrum MS-NW-6216
m/z	RELATIVE INTENSITY
12	10
13	20
14	50
15	90
16	10
17	20
18	70
25	40
26	409
27	1039
28	5689
29	639
30	1339
31	30
32	10
37	20
38	50
39	80
40	70
41	139
42	90
43	40
44	159
45	429
46	50
47	10
50	10
51	50
52	99
53	40
54	419
55	789
56	9999
57	439
58	10
63	10
64	10
65	10
68	10
69	10
70	10
71	10
72	30
73	339
74	50
80	10
81	10
82	30
83	20
84	10
85	10
86	10
97	10
98	10
100	10
101	639
102	40
