Mass Spectrum: 1-Butanol, 3-methoxy-
Formula: C5 H12 O2
CAS: 2517-43-3
Molecular weight: 104
Origin: Japan AIST/NIMC Database- Spectrum MS-NW-9315
m/z	RELATIVE INTENSITY
14	10
15	219
18	20
26	40
27	379
28	149
29	1109
30	60
31	1879
32	60
33	709
34	10
37	10
38	30
39	319
40	80
41	699
42	519
43	809
44	90
45	419
46	10
50	10
51	10
53	90
54	50
55	569
56	179
57	549
58	279
59	9999
60	399
61	60
63	20
69	20
70	30
71	459
72	239
73	129
74	40
85	70
86	209
87	30
89	689
90	30
101	10
103	30
104	10
105	10
