Mass Spectrum: 3-(p-Methoxyphenyl)propionic acid
Formula: C10 H12 O3
CAS: 25173-37-9
Molecular weight: 180
Origin: A.A.Kutin, Moscow, Russia
m/z	RELATIVE INTENSITY
37	31
38	123
39	812
40	81
41	141
42	108
43	263
44	58
45	1314
46	29
47	13
49	28
50	439
51	943
52	570
53	601
54	53
55	413
56	26
57	9
60	15
61	38
62	132
63	399
64	109
65	717
66	85
67	37
68	26
69	15
71	38
72	14
73	287
74	80
75	43
77	2589
78	751
79	1406
80	661
81	89
85	9
86	21
87	18
89	229
90	569
91	1110
92	134
93	116
94	19
95	9
103	13
105	113
107	5105
108	9999
109	846
110	52
115	12
117	12
118	9
119	40
120	16
121	209
122	21
133	26
134	40
135	83
136	8
163	66
164	8
178	22
180	3668
181	413
182	43
