Mass Spectrum: 3-(3,4,5-Trimethoxyphenyl)propionic acid
Formula: C12 H16 O5
CAS: 25173-72-2
Molecular weight: 240
Origin: Japan AIST/NIMC Database- Spectrum MS-IW-6707
m/z	RELATIVE INTENSITY
15	80
27	70
28	40
29	20
31	10
38	40
39	189
40	30
41	90
42	10
43	70
44	10
45	119
46	10
50	70
51	159
52	109
53	189
54	10
55	209
56	10
57	20
59	40
61	20
62	30
63	109
64	70
65	329
66	159
67	80
68	10
69	80
74	20
75	40
76	50
77	389
78	169
79	199
80	60
81	90
82	20
83	30
85	20
89	70
90	99
91	309
92	90
93	109
94	90
95	119
96	20
97	70
98	20
99	40
102	10
103	90
104	40
105	189
106	99
107	189
108	80
109	229
110	30
111	30
112	10
117	10
118	40
119	159
120	139
121	289
122	80
123	209
124	30
125	20
131	20
132	20
133	80
134	70
135	229
136	339
137	1189
138	209
139	60
140	10
147	70
148	339
149	199
150	90
151	829
152	189
153	80
154	20
155	30
161	40
162	30
163	60
164	219
165	619
166	99
167	99
168	40
169	50
175	10
176	10
177	20
178	20
179	2539
180	409
181	6379
182	719
183	139
184	10
189	10
191	20
192	10
193	70
194	109
195	549
196	70
197	359
198	30
205	10
206	10
207	169
208	30
209	80
210	10
211	10
221	20
222	139
223	99
224	90
225	4679
226	579
227	80
240	9999
241	1319
242	179
243	10
