Mass Spectrum: Benzene, 1,3-dichloro-5-methyl-
Formula: C7 H6 Cl2
CAS: 25186-47-4
Molecular weight: 160
Origin: RADIAN CORP
m/z	RELATIVE INTENSITY
14	20
26	50
27	80
28	100
32	20
35	50
36	30
37	200
38	240
39	600
40	60
43	350
44	680
47	50
48	30
49	210
50	500
51	320
52	30
60	150
61	500
62	1240
63	1630
64	180
65	110
72	90
73	680
74	360
75	470
76	30
77	30
80	80
81	50
83	40
84	190
85	300
86	330
87	320
88	80
89	2120
90	370
91	20
96	40
97	270
98	30
99	700
100	40
101	200
107	60
108	20
109	120
110	30
111	50
123	450
124	160
125	9999
126	800
127	3210
128	240
133	150
135	100
159	750
160	5210
161	890
162	3370
163	340
164	530
165	40
