Mass Spectrum: Methyl 6-methyl heptanoate
Formula: C9 H18 O2
CAS: 2519-37-1
Molecular weight: 158
Origin: N.W. DAVIES, UNIVERSITY OF TASMANIA, TASMANIA, AUSTRALIA
m/z	RELATIVE INTENSITY
27	1390
29	1560
31	150
39	1090
40	270
41	3490
42	790
43	4830
44	460
45	230
53	290
55	2990
56	810
57	1920
58	130
59	1440
67	350
68	110
69	1790
70	150
71	250
73	530
74	9999
75	890
81	200
82	1710
83	1490
84	460
85	300
87	5330
88	540
93	600
99	150
101	510
109	760
111	370
115	830
126	110
127	640
129	110
