Mass Spectrum: [1,2]Dithiolo[1,5-b][1,2]dithiole-7-S(IV)
Formula: C5 H4 S3
CAS: 252-09-5
Molecular weight: 160
m/z	RELATIVE INTENSITY
50	328
51	492
69	2186
70	437
71	929
76	2568
78	328
80	874
81	382
82	328
83	437
84	1585
100	273
101	874
102	492
103	382
115	437
116	2623
117	219
118	273
127	2404
128	2732
129	437
130	328
159	7431
160	9999
161	1967
162	1530
