Mass Spectrum: 4-Methyl-1,6-heptadien-4-ol
Formula: C8 H14 O
CAS: 25201-40-5
Molecular weight: 126
Origin: NIST Mass Spectrometry Data Center
m/z	RELATIVE INTENSITY
15	90
26	30
27	300
29	290
31	90
37	30
38	100
39	1241
40	160
41	1371
42	240
43	9999
44	260
45	110
50	30
51	80
52	20
53	110
54	10
55	240
56	20
57	60
58	40
62	10
63	30
65	90
66	20
67	180
68	20
69	430
70	30
77	60
78	10
79	40
80	10
81	20
83	30
84	20
85	2682
86	140
91	40
93	20
109	10
111	10
