Mass Spectrum: 4-Chlorothiobenzamide
Formula: C7 H6 Cl N S
CAS: 2521-24-6
Molecular weight: 171
Origin: NIST Mass Spectrometry Data Center
m/z	RELATIVE INTENSITY
12	40
13	40
15	10
16	60
17	40
18	10
24	20
25	100
26	320
27	320
28	530
32	440
33	330
34	430
35	180
36	250
37	941
38	791
39	450
40	60
41	50
42	30
43	40
44	80
45	250
46	30
47	140
48	140
49	701
50	3463
51	2022
52	641
53	100
54	170
55	90
56	40
57	100
58	90
60	2672
61	520
62	591
63	500
64	220
65	230
66	30
68	510
69	550
70	90
71	60
72	250
73	871
74	1702
75	3783
76	1541
77	661
78	70
79	50
80	30
81	80
82	90
83	70
84	280
85	370
86	280
87	190
88	80
89	30
90	60
91	50
92	100
93	210
94	60
95	20
96	20
97	80
98	80
99	490
100	450
101	490
102	4044
103	450
104	40
105	100
106	30
107	80
108	360
109	350
110	420
111	1391
112	591
113	450
114	150
117	50
119	190
120	250
121	100
125	20
127	40
128	30
134	120
135	100
137	9999
138	5405
139	3633
140	1732
141	150
142	20
143	210
144	110
145	80
146	40
149	20
155	2432
156	240
157	881
158	80
159	40
168	20
170	891
171	5375
172	811
173	2112
174	210
175	150
