Mass Spectrum: 4-tert-Butylphenol, TMS derivative
Formula: C13 H22 O Si
CAS: 25237-79-0
Molecular weight: 222
Origin: A.Pleshkova, Nesmeyanov Inst.Org.Elem.Cpds, Moscow
m/z	RELATIVE INTENSITY
41	761
42	180
43	460
44	150
45	1001
46	180
55	260
56	140
57	821
58	120
67	290
68	400
69	170
73	3073
74	380
75	781
76	120
77	360
78	150
82	2282
83	240
91	651
92	190
96	550
97	160
151	611
152	160
179	200
191	280
207	9999
208	1712
209	571
210	180
222	1371
223	270
224	70
