Mass Spectrum: Phosphorodichloridothioic acid, O-methyl ester
Formula: C H3 Cl2 O P S
CAS: 2523-94-6
Molecular weight: 164
m/z	RELATIVE INTENSITY
15	675
29	435
31	594
45	493
46	687
47	6527
63	2325
66	776
67	594
79	764
97	1484
98	1726
101	1481
103	908
105	164
129	8219
131	3022
134	9657
136	6623
164	9999
166	6879
168	1474
