Mass Spectrum: 1H-Indole, 4-chloro-
Formula: C8 H6 Cl N
CAS: 25235-85-2
Molecular weight: 151
Origin: Japan AIST/NIMC Database- Spectrum MS-IW-1275
m/z	RELATIVE INTENSITY
28	60
36	10
37	50
38	70
39	139
40	10
41	20
43	50
44	50
49	30
50	90
51	60
52	50
56	20
57	359
58	90
60	20
61	129
62	389
63	529
64	99
65	50
66	10
72	20
73	129
74	70
75	719
76	219
77	30
84	30
85	70
86	129
87	239
88	269
89	2259
90	239
91	10
96	10
97	60
98	20
99	30
100	10
111	10
112	10
114	239
115	489
116	1669
117	159
123	429
124	1249
125	239
126	409
127	30
150	379
151	9999
152	1029
153	3209
154	299
155	10
