Mass Spectrum: Alloaromadendrene
Formula: C15 H24
CAS: 25246-27-9
Molecular weight: 204
m/z	RELATIVE INTENSITY
26	180
27	2002
29	2182
37	70
38	90
39	2592
40	540
41	9408
42	550
43	2412
45	50
50	140
51	681
52	450
53	2762
54	440
55	5415
56	340
57	500
58	70
59	110
62	60
63	280
64	150
65	1651
66	581
67	4944
68	561
69	7106
70	470
71	150
72	80
73	90
74	70
75	150
76	70
77	3883
78	1411
79	6406
80	1411
81	6116
82	2472
83	1181
84	80
85	60
89	180
90	120
91	8358
92	2702
93	8007
94	2702
95	3363
96	741
97	240
103	540
104	320
105	7527
106	2943
107	7166
108	2292
109	2122
110	290
111	90
115	490
116	300
117	1061
118	340
119	5605
120	2702
121	4244
122	3183
123	771
124	90
127	140
128	280
129	290
130	150
131	571
132	310
133	6126
134	2412
135	2642
136	651
137	90
141	90
142	50
143	90
144	50
145	370
146	290
147	5005
148	3593
149	1181
150	180
159	290
160	290
161	9999
162	1772
163	320
175	881
176	480
177	90
189	3243
190	470
204	6005
205	1061
206	140
