Mass Spectrum: Phosphorochloridothioic acid, O,O-dimethyl ester
Formula: C2 H6 Cl O2 P S
CAS: 2524-03-0
Molecular weight: 160
Origin: Japan AIST/NIMC Database- Spectrum MS-NW-4878
m/z	RELATIVE INTENSITY
12	20
13	50
14	189
15	2799
16	40
24	10
27	40
28	289
29	889
30	149
31	799
32	229
33	129
34	40
35	80
36	209
37	30
38	70
41	20
43	10
44	149
45	939
46	649
47	5489
48	429
49	399
50	1149
51	50
52	379
53	10
55	20
59	10
60	10
61	209
62	529
63	2369
64	699
65	129
66	249
67	249
68	80
69	90
75	10
76	149
77	469
78	90
79	1969
80	289
81	109
82	60
83	159
84	20
85	50
92	10
93	1329
94	669
95	189
96	129
97	9989
98	289
99	3299
100	139
101	80
102	10
103	30
104	10
109	80
110	119
111	109
112	20
113	60
115	20
125	4859
126	199
127	269
128	50
129	1709
130	9239
131	819
132	3599
133	129
134	169
135	30
136	10
141	199
142	99
143	20
144	20
145	419
146	49
147	179
148	10
149	20
155	10
156	20
157	499
158	70
159	90
160	9999
161	369
162	3779
163	129
164	179
165	10
