Mass Spectrum: Diphenyl chlorophosphate
Formula: C12 H10 Cl O3 P
CAS: 2524-64-3
Molecular weight: 268
Origin: Japan AIST/NIMC Database- Spectrum MS-NW-4887
m/z	RELATIVE INTENSITY
14	30
16	10
17	10
18	30
26	90
27	259
28	369
29	30
31	10
32	30
35	10
36	109
37	129
38	499
39	2899
40	179
41	30
42	10
43	10
44	30
47	659
49	30
50	709
51	2579
52	189
53	99
54	10
55	119
57	10
60	10
61	60
62	169
63	639
64	429
65	3389
66	399
67	20
68	50
69	10
73	40
74	169
75	259
76	469
77	8089
78	609
79	40
80	30
81	249
82	30
83	50
84	40
86	10
89	20
90	10
91	30
92	269
93	539
94	1719
95	129
96	10
99	60
100	40
101	20
102	40
103	10
105	20
107	10
108	20
109	149
110	20
111	50
112	169
113	40
114	60
115	339
116	50
117	10
118	20
119	30
121	30
123	10
126	30
127	40
128	80
129	129
130	30
131	99
132	20
134	70
135	30
138	10
139	409
140	719
141	1079
142	869
143	109
144	40
145	10
146	10
147	60
148	10
149	30
150	40
151	189
152	1189
153	249
154	30
155	90
156	90
157	189
158	199
159	50
160	10
161	20
165	10
167	70
168	939
169	2719
170	4419
171	629
172	60
174	60
175	259
176	30
177	90
178	10
184	10
185	70
186	519
187	99
188	99
189	10
190	40
191	20
192	70
193	20
194	20
198	10
199	10
200	20
201	20
202	20
203	30
204	70
205	30
206	10
210	30
211	10
212	20
213	20
214	60
215	569
216	99
217	20
225	10
228	10
231	209
232	3239
233	1099
234	139
235	20
239	30
240	10
241	30
249	109
250	60
251	129
252	60
253	40
254	10
265	10
266	60
267	4239
268	9999
269	2649
270	3269
271	439
272	50
