Mass Spectrum: 2-Pyridinecarboxylic acid, ethyl ester
Formula: C8 H9 N O2
CAS: 2524-52-9
Molecular weight: 151
Origin: Japan AIST/NIMC Database- Spectrum MS-NW-6429
m/z	RELATIVE INTENSITY
14	20
15	70
18	10
25	20
26	209
27	809
28	219
29	1299
30	30
31	10
32	10
37	40
38	80
39	189
40	20
41	20
42	10
43	50
44	40
45	30
48	10
49	60
50	389
51	1529
52	1069
53	109
54	10
64	10
65	30
66	20
67	40
75	50
76	119
77	139
78	4739
79	9999
80	919
81	40
92	10
93	20
95	20
104	10
105	10
106	1569
107	2149
108	149
109	10
124	30
150	20
151	129
152	20
