Mass Spectrum: Phosphorochloridothioic acid, O,O-diethyl ester
Formula: C4 H10 Cl O2 P S
CAS: 2524-04-1
Molecular weight: 188
Origin: Japan AIST/NIMC Database- Spectrum MS-NW-2937
m/z	RELATIVE INTENSITY
12	10
13	20
14	139
15	729
16	30
17	10
18	90
19	90
25	30
26	659
27	4409
28	1599
29	7039
30	149
31	199
32	389
33	80
34	159
35	159
36	239
37	10
38	70
39	20
40	40
41	40
42	129
43	1189
44	269
45	6469
46	189
47	1789
48	239
49	80
50	10
51	10
57	10
58	129
59	219
60	899
61	519
62	139
63	589
64	109
65	1769
66	90
67	219
68	30
69	90
73	10
75	20
76	60
77	50
78	10
79	719
80	499
81	99
82	50
83	1829
84	20
85	559
89	20
90	20
91	169
92	20
93	349
94	30
95	20
96	509
97	7629
98	189
99	979
100	599
101	219
102	179
103	20
107	10
108	149
109	90
110	119
111	1589
112	60
113	529
114	199
115	2889
116	6219
117	1309
118	2219
119	159
120	90
121	189
122	30
123	10
124	20
125	2479
126	169
127	419
128	149
129	149
130	50
131	239
132	7149
133	4069
134	2669
135	1479
136	129
137	80
138	20
141	10
142	10
143	869
144	6469
145	819
146	2419
147	199
148	109
149	10
150	20
152	10
153	1079
154	90
155	90
156	40
157	10
158	10
159	219
160	769
161	1609
162	329
163	549
164	30
165	30
170	10
173	10
176	10
178	10
186	20
187	70
188	9999
189	589
190	3609
191	189
192	149
