Mass Spectrum: Thunbergol
Formula: C20 H34 O
CAS: 25269-17-4
Molecular weight: 290
Origin: NIST Mass Spectrometry Data Center, 2010
m/z	RELATIVE INTENSITY
15	30
27	791
29	921
30	20
31	50
38	30
39	1051
40	340
41	5415
42	430
43	9999
44	250
45	270
51	190
52	130
53	1962
54	400
55	4484
56	310
57	861
58	220
59	240
62	10
63	40
65	621
66	280
67	3934
68	1171
69	3763
70	380
71	2222
72	160
77	1451
78	300
79	3133
80	861
81	5785
82	1321
83	1441
84	500
85	330
91	2152
92	621
93	4254
94	1271
95	4314
96	861
97	2412
98	260
99	120
103	150
104	90
105	2292
106	731
107	4204
108	1471
109	3863
110	561
111	921
112	120
113	110
115	130
116	60
117	310
118	120
119	2002
120	751
121	3823
122	1091
123	2532
124	530
125	631
126	430
130	40
131	490
132	170
133	2002
134	1571
135	2172
136	1672
137	1211
138	350
139	901
140	180
144	40
145	731
146	250
147	2572
148	1121
149	1802
150	681
151	550
152	120
153	100
158	30
159	681
160	220
161	1441
162	550
163	751
164	561
165	300
166	80
173	520
174	130
175	470
176	210
177	410
178	110
179	170
180	50
181	60
182	10
187	420
188	170
189	1411
190	340
191	260
192	70
193	90
201	250
202	120
203	150
204	110
205	190
206	60
207	160
208	40
215	90
216	70
217	150
218	40
220	40
229	811
230	170
232	140
244	60
247	230
248	50
257	240
258	50
272	280
273	60
275	90
290	70
291	10
