Mass Spectrum: cis-1,4-Diacetoxy-2-butene
Formula: C8 H12 O4
CAS: 25260-60-0
Molecular weight: 172
Origin: NIST Mass Spectrometry Data Center
m/z	RELATIVE INTENSITY
13	20
14	150
15	851
16	10
26	80
27	370
28	160
29	280
30	20
31	80
37	20
38	80
39	691
40	120
41	390
43	9999
44	250
45	60
50	40
51	60
52	50
53	180
54	100
55	50
56	10
57	60
58	10
61	250
68	40
69	310
70	2492
71	180
72	10
73	10
82	70
83	10
84	10
86	20
99	50
100	10
103	30
112	330
113	220
114	10
