Mass Spectrum: tri-n-Amylphosphate
Formula: C15 H33 O4 P
CAS: 2528-38-3
Molecular weight: 308
Origin: Zaikin V.G., Institute of Petrochemical Synthesis RAS
m/z	RELATIVE INTENSITY
26	20
27	90
28	50
29	140
36	30
38	30
39	170
40	40
41	500
42	370
43	751
44	60
53	70
54	50
55	540
56	40
57	50
67	80
68	60
69	250
70	290
71	350
81	60
82	60
83	90
91	50
99	9999
101	80
111	120
112	100
113	190
123	40
125	420
126	30
127	290
139	140
151	170
153	100
155	60
167	90
169	1972
170	110
173	40
181	70
183	40
197	170
239	1271
240	140
