Mass Spectrum: 1,2-Benzenedicarboxylic acid, mono(phenylmethyl) ester
Formula: C15 H12 O4
CAS: 2528-16-7
Molecular weight: 256
Origin: A.A.Kutin, Moscow, Russia
m/z	RELATIVE INTENSITY
33	37
34	20
35	14
36	78
37	516
38	1049
39	4335
40	478
41	565
42	92
43	130
44	410
45	602
47	15
48	48
50	5301
51	4060
52	886
53	698
54	53
55	80
56	25
57	46
58	7
60	29
61	206
62	525
63	1536
64	879
65	7702
66	504
67	76
68	36
69	25
70	25
71	15
72	23
73	301
74	1610
75	1295
76	3478
77	4610
78	1032
79	1964
80	163
81	38
82	18
83	36
84	29
85	26
86	53
87	59
89	1113
91	9999
92	1095
93	1201
94	155
95	24
96	4
97	11
98	10
99	2
100	3
101	11
102	39
104	2637
105	2956
106	365
107	1486
108	1788
109	131
110	18
111	55
112	12
113	10
114	1
115	22
116	5
117	4
119	70
121	848
122	3214
123	262
124	33
125	6
126	9
127	15
128	13
129	11
130	5
132	341
133	63
134	17
135	23
136	5
138	4
139	12
140	3
141	7
142	2
143	2
146	6
149	3923
150	3560
151	336
152	88
153	26
154	7
155	5
159	2
163	11
164	23
165	252
166	78
167	33
168	8
169	4
171	4
177	2
181	21
182	2
183	2
192	3
193	26
194	69
195	12
197	1
209	2
210	16
211	9
212	13
225	7
238	22
243	3
254	1
256	52
257	10
