Mass Spectrum: Phosphoric acid, dibutyl phenyl ester
Formula: C14 H23 O4 P
CAS: 2528-36-1
Molecular weight: 286
Origin: NIST Mass Spectrometry Data Center, 1998.
m/z	RELATIVE INTENSITY
26	20
27	210
29	670
30	20
31	10
37	10
38	30
39	420
40	60
41	1090
42	50
43	110
44	10
45	30
47	40
50	70
51	230
52	30
53	90
54	40
55	460
56	270
57	720
58	30
62	10
63	80
64	60
65	650
66	260
67	20
68	10
71	10
73	10
74	20
75	30
76	60
77	1180
78	110
79	30
80	10
81	120
82	20
83	20
89	10
90	70
91	70
92	40
93	130
94	3730
95	330
96	20
99	150
100	80
101	10
102	20
103	80
104	120
105	20
107	230
108	20
109	130
110	10
112	20
113	10
115	40
116	20
117	380
118	40
119	20
120	10
121	40
122	10
128	20
129	70
130	10
131	50
132	190
133	20
136	20
137	100
138	10
139	60
140	50
141	30
149	10
155	40
156	240
157	270
158	20
159	30
165	20
169	20
172	10
173	50
174	3490
175	9999
176	750
177	110
178	10
183	20
185	10
187	1090
188	150
189	30
199	10
201	900
202	90
203	20
213	10
215	40
229	50
230	770
231	670
232	80
233	10
243	230
244	30
257	10
286	800
287	130
288	20
