Mass Spectrum: 1H,1H,2H-Perfluoro-1-octene
Formula: C8 H3 F13
CAS: 25291-17-2
Molecular weight: 346
Origin: Japan AIST/NIMC Database- Spectrum MS-IW-2620
m/z	RELATIVE INTENSITY
26	40
27	429
31	209
32	10
37	10
38	20
39	90
43	20
45	60
46	10
50	40
51	2399
52	20
56	30
57	179
58	20
64	30
65	80
69	1459
70	20
74	10
75	249
76	60
77	9999
78	359
81	20
82	10
87	10
88	30
89	30
93	80
95	119
99	10
100	299
101	10
106	10
107	60
108	239
109	10
112	20
113	70
119	319
120	10
126	10
127	159
131	419
132	10
137	20
139	60
145	90
150	10
157	60
158	10
163	30
169	129
177	20
181	50
189	10
195	20
207	50
213	40
219	40
227	10
231	10
237	10
239	10
243	10
245	20
257	159
258	10
263	40
277	10
281	189
282	10
287	10
307	20
327	139
328	10
