Mass Spectrum: Isophosphinoline
Formula: C9 H7 P
CAS: 253-37-2
Molecular weight: 146
Origin: ORMSBG,10(7)515(1975); C. JONGSMA
m/z	RELATIVE INTENSITY
102	1400
103	100
107	200
115	2600
116	300
119	200
120	1300
121	100
144	900
145	800
146	9999
147	1000
