Mass Spectrum: Quinazoline
Formula: C8 H6 N2
CAS: 253-82-7
Molecular weight: 130
Origin: NIST Mass Spectrometry Data Center, 1994
m/z	RELATIVE INTENSITY
12	11
13	19
25	39
26	197
27	333
28	615
29	11
37	424
38	523
39	314
40	37
48	51
49	362
50	2409
51	970
52	348
53	62
60	35
61	134
62	181
63	247
64	132
65	224
72	38
73	246
74	939
75	1522
76	3985
77	371
78	19
85	18
86	29
87	33
88	24
99	129
100	97
102	1097
103	6425
104	515
105	22
129	1757
130	9999
131	951
132	40
