Mass Spectrum: 1,7-Naphthyridine
Formula: C8 H6 N2
CAS: 253-69-0
Molecular weight: 130
m/z	RELATIVE INTENSITY
36	600
38	500
39	800
41	800
50	2000
51	1000
52	700
63	500
65	800
74	600
75	1400
76	2500
77	1000
79	1600
101	1300
102	800
103	2600
104	2400
105	500
129	2100
130	9999
131	1700
