Mass Spectrum: Pyrido[2,3-d]pyridazine
Formula: C7 H5 N3
CAS: 253-73-6
Molecular weight: 131
m/z	RELATIVE INTENSITY
25	190
26	1051
27	370
28	731
29	100
37	821
38	951
39	1051
49	871
50	4934
51	2092
52	1241
53	330
55	150
57	190
62	330
63	400
64	581
65	190
66	150
74	731
75	2032
76	5475
77	8007
78	460
102	150
103	951
104	2682
105	150
130	220
131	9999
132	1451
133	150
