Mass Spectrum: Cinnoline
Formula: C8 H6 N2
CAS: 253-66-7
Molecular weight: 130
m/z	RELATIVE INTENSITY
39	701
41	200
49	200
50	1902
51	1601
52	901
62	300
63	801
74	200
75	801
76	3003
77	300
101	300
102	6806
103	701
129	300
130	9999
131	901
