Mass Spectrum: (3-Chloropropyl)trimethoxysilane
Formula: C6 H15 Cl O3 Si
CAS: 2530-87-2
Molecular weight: 198
Origin: RADIAN CORP
m/z	RELATIVE INTENSITY
17	30
21	50
24	10
26	30
27	110
28	530
29	90
31	130
34	20
35	10
36	20
37	70
38	30
39	100
40	60
41	600
42	2860
43	190
45	150
46	30
47	200
49	180
56	10
59	1150
60	350
61	930
62	10
63	100
65	90
67	10
69	10
74	90
75	90
77	330
79	40
81	90
85	70
87	20
90	480
91	5370
92	420
93	200
94	80
95	930
96	20
97	360
104	30
105	10
108	30
111	10
120	100
121	9999
122	840
123	370
124	20
125	1830
126	130
127	710
128	20
129	10
135	20
155	780
156	100
157	1640
158	120
159	460
