Mass Spectrum: 3-Acetyl-2,5-dimethylthiophene
Formula: C8 H10 O S
CAS: 2530-10-1
Molecular weight: 154
Origin: NIST Mass Spectrometry Data Center
m/z	RELATIVE INTENSITY
13	20
14	140
15	741
16	20
18	20
26	50
27	310
28	30
32	30
33	20
34	10
35	10
37	100
38	210
39	971
40	100
41	561
43	2152
45	881
46	60
47	120
48	10
49	70
50	520
51	941
52	270
53	340
54	40
55	90
57	100
58	490
59	1832
60	100
61	170
62	200
63	260
65	510
66	240
67	1501
68	120
69	731
70	290
71	561
72	60
73	40
74	50
75	70
77	1161
78	450
79	80
80	10
81	80
82	80
83	160
84	110
85	160
86	20
87	10
89	10
91	130
92	50
93	160
94	20
95	190
96	80
97	190
98	20
99	10
103	10
105	10
108	20
109	150
111	2552
112	200
113	120
114	10
121	20
123	30
124	20
125	100
126	10
134	20
135	100
136	20
139	9999
140	771
141	470
142	40
151	10
154	4604
155	450
156	240
157	10
