Mass Spectrum: Benzene, 1-ethyl-4-iodo-
Formula: C8 H9 I
CAS: 25309-64-2
Molecular weight: 232
Origin: NIST Mass Spectrometry Data Center, 1994
m/z	RELATIVE INTENSITY
14	134
15	513
18	59
26	449
27	2411
28	92
29	254
37	402
38	1022
39	2822
40	352
41	140
50	3872
51	4127
52	871
53	523
54	51
61	416
62	1210
63	3033
64	932
65	451
66	70
73	323
74	1627
75	1074
76	1549
77	5525
78	2093
79	2923
80	212
85	138
86	261
87	201
88	138
89	3398
90	5210
91	418
98	122
101	101
102	683
103	2297
104	1443
105	6497
106	601
108	55
127	1951
128	204
204	74
217	9066
218	665
232	9999
233	878
