Mass Spectrum: Ethyl 2-nitropropionate
Formula: C5 H9 N O4
CAS: 2531-80-8
Molecular weight: 147
Origin: NIST Mass Spectrometry Data Center
m/z	RELATIVE INTENSITY
14	60
15	340
16	30
18	10
19	90
26	1221
27	3803
28	2542
29	9999
30	2522
31	10
38	20
39	40
40	50
41	661
42	260
43	811
45	3343
46	661
47	10
53	60
55	1151
56	1782
57	300
58	390
60	20
73	2022
74	340
75	210
76	10
86	20
99	10
101	460
102	1241
103	50
132	20
