Mass Spectrum: 1.alpha.,2.beta.,3.alpha.,4.beta.-Tetramethylcyclopentane
Formula: C9 H18
CAS: 2532-67-4
Molecular weight: 126
Origin: NIST Mass Spectrometry Data Center, 1990.
m/z	RELATIVE INTENSITY
14	822
15	395
27	2650
28	110
29	1935
39	3559
40	777
41	7238
42	1641
43	1119
51	514
53	1403
55	6690
56	5367
57	705
65	479
67	1010
69	9999
70	5029
71	1515
77	431
79	332
82	929
83	2408
84	6763
97	390
126	1601
