Mass Spectrum: Cyclopentane, 1,3-dimethyl-, cis-
Formula: C7 H14
CAS: 2532-58-3
Molecular weight: 98
Origin: NIST Mass Spectrometry Data Center, 1990.
m/z	RELATIVE INTENSITY
14	352
15	573
16	166
26	328
27	2686
28	415
29	1661
32	95
37	101
39	4179
40	938
41	7304
42	2476
43	780
50	309
51	490
52	205
53	972
54	720
55	7543
56	8227
57	1202
63	130
65	274
66	94
67	538
68	356
69	2929
70	9999
71	497
77	188
79	199
81	201
83	2429
84	156
98	1259
99	105
