Mass Spectrum: Acetamide, N-(p-hydroxy-.alpha.-methylphenethyl)-, acetate (ester)
Formula: C13 H17 N O3
CAS: 25333-55-5
Molecular weight: 235
Origin: Dr. Jiri Zamecnik, DCIEM, North York, Canada, GP Library
m/z	RELATIVE INTENSITY
41	560
43	2270
44	9999
57	70
77	590
78	170
86	1630
90	140
91	190
105	100
107	2820
108	610
115	50
117	40
119	40
133	760
134	2410
135	220
147	30
149	440
150	190
176	8300
177	920
178	60
192	20
235	320
236	50
