Mass Spectrum: 2-Acetyl-1,4,5,6-tetrahydropyridine
Formula: C7 H11 N O
CAS: 25343-57-1
Molecular weight: 125
Origin: T.Hofmann ET AL.JAFC, 46,2721(1998)
m/z	RELATIVE INTENSITY
39	440
41	540
42	340
43	3493
44	40
52	360
53	651
54	5185
55	1972
56	260
65	160
67	450
68	550
70	60
79	160
80	961
81	360
82	9999
83	671
85	40
96	270
110	681
111	70
124	2202
125	9629
126	500
127	80
