Mass Spectrum: 2,6-Diisopropylphenyl isothiocyanate
Formula: C13 H17 N S
CAS: 25343-70-8
Molecular weight: 219
Origin: NIST Mass Spectrometry Data Center, 1994
m/z	RELATIVE INTENSITY
14	48
15	874
18	70
27	3676
29	959
38	383
39	3782
40	583
41	4295
42	431
43	2817
44	76
45	913
47	137
50	790
51	2473
52	693
53	790
54	126
55	143
57	200
58	254
59	558
60	180
61	153
62	358
63	1799
64	718
65	1492
66	149
67	296
69	248
71	496
72	654
73	127
74	511
75	808
76	965
77	4154
78	1164
79	746
80	239
81	167
84	251
85	172
87	431
88	442
89	1277
90	511
91	2611
92	325
93	328
94	167
95	499
96	111
100	94
101	663
102	986
103	1171
104	431
105	451
113	162
115	3987
116	1327
117	1492
118	1038
119	196
120	121
121	159
126	282
127	1475
128	6091
129	1663
130	1363
131	485
132	258
133	180
134	176
135	115
136	115
139	163
140	319
141	470
142	1270
143	1082
144	1016
145	398
146	334
147	193
148	342
152	248
153	422
154	1780
155	1055
156	1645
157	502
158	289
159	132
160	237
161	132
162	7780
163	1027
164	507
167	347
168	682
170	6177
171	1974
172	503
173	268
174	331
175	172
176	1079
177	352
184	406
186	4350
187	727
188	1386
189	965
190	637
191	189
202	275
204	9504
205	1520
206	513
218	4022
219	9999
220	1680
221	555
222	67
