Mass Spectrum: 4-Methylthiomorpholine-1,1-dioxide
Formula: C5 H11 N O2 S
CAS: 25343-91-3
Molecular weight: 149
Origin: NIST Mass Spectrometry Data Center, 1994
m/z	RELATIVE INTENSITY
13	22
14	84
15	1613
16	22
17	20
18	80
26	685
27	1953
28	3430
29	769
30	737
32	11
33	33
34	25
38	26
39	209
40	264
41	868
42	9999
43	5575
44	359
45	90
46	67
47	56
48	370
49	75
50	53
51	39
52	100
53	68
54	842
55	657
56	1271
57	1207
58	192
60	20
63	28
64	184
65	199
66	38
67	80
68	157
69	156
70	1394
71	1169
72	97
77	38
79	25
82	2276
83	3758
84	608
85	84
86	44
88	52
107	28
120	96
132	52
148	219
149	1060
150	88
151	54
