Mass Spectrum: 1,3-Dinitro-2-imidazolidinone
Formula: C3 H4 N4 O5
CAS: 2536-18-7
Molecular weight: 176
Origin: LAC, NIDDK, NIH, Bethesda, MD 20892
m/z	RELATIVE INTENSITY
42	1193
44	830
46	9999
48	83
53	36
56	4104
57	130
59	1057
60	21
62	427
64	6
68	7
70	187
71	6
72	7
73	6
75	1003
76	16
77	17
84	76
85	17
88	1053
89	178
99	251
100	21
101	119
102	16
104	59
115	20
116	25
117	17
120	615
121	6
130	101
131	16
133	168
144	7
147	19
149	8
150	22
176	588
177	49
