Mass Spectrum: tert-Nonyl mercaptan
Formula: C9 H20 S
CAS: 25360-10-5
Molecular weight: 160
Origin: Japan AIST/NIMC Database- Spectrum MS-NW-9248
m/z	RELATIVE INTENSITY
15	30
26	30
27	1069
28	139
29	1899
30	40
32	30
33	20
34	70
35	70
36	20
37	10
38	20
39	1049
40	159
41	5319
42	659
43	8509
44	289
45	269
46	30
47	699
48	20
49	50
50	20
51	90
52	40
53	529
54	199
55	7739
56	2129
57	9999
58	449
59	879
60	369
61	2309
62	90
63	129
64	10
65	99
66	30
67	389
68	239
69	4869
70	3089
71	9299
72	519
73	129
74	1859
75	4699
76	289
77	299
78	20
79	90
80	10
81	159
82	159
83	2789
84	1229
85	4159
86	279
87	159
88	1119
89	2999
90	209
91	169
92	10
93	20
95	109
96	60
97	2059
98	389
99	159
100	10
101	80
102	429
103	1019
104	99
105	60
109	70
110	10
111	359
112	60
113	20
115	80
116	269
117	769
118	70
119	40
123	20
124	10
125	139
126	1449
127	3409
128	339
129	159
130	50
131	349
132	30
133	20
144	10
145	80
146	20
147	10
159	30
160	869
161	90
162	40
