Mass Spectrum: 1-(3-Trifluoromethylphenyl)imidazole
Formula: C10 H7 F3 N2
CAS: 25371-97-5
Molecular weight: 212
Origin: NIST Mass Spectrometry Data Center, 1994
m/z	RELATIVE INTENSITY
26	610
27	252
28	144
31	177
37	251
38	616
39	917
40	965
41	1345
42	79
50	1216
51	850
52	635
53	134
56	79
57	676
58	48
61	219
62	565
63	1210
64	415
65	136
66	97
68	148
69	1118
70	64
73	80
74	628
75	2319
76	587
77	122
79	75
80	55
81	297
82	124
83	350
85	44
86	112
87	237
88	410
89	712
90	146
92	84
93	133
94	217
95	2258
96	254
99	477
100	191
101	81
102	67
105	64
106	120
107	357
108	336
109	84
112	128
113	215
114	289
115	174
116	847
117	142
118	99
119	471
120	96
121	62
123	49
125	1171
126	350
127	82
132	209
133	82
134	338
135	791
136	100
137	212
138	585
139	261
140	85
142	299
143	299
145	4419
146	364
152	107
158	3332
159	349
164	149
165	593
166	748
167	87
172	429
173	189
184	574
185	6200
186	658
191	621
192	114
193	954
194	120
212	9999
213	1085
214	54
