Mass Spectrum: 1-(2-Trifluoromethylphenyl)imidazoline-2-thione
Formula: C10 H7 F3 N2 S
CAS: 25372-17-2
Molecular weight: 244
Origin: NIST Mass Spectrometry Data Center, 1994
m/z	RELATIVE INTENSITY
26	220
27	285
28	722
31	187
32	189
37	115
38	330
39	475
40	436
41	373
44	215
45	1012
46	175
50	854
51	530
52	256
57	574
58	193
59	251
61	159
62	284
63	644
64	262
69	919
70	306
71	578
72	2052
73	252
74	516
75	1474
76	495
77	291
81	258
82	111
83	235
84	175
88	350
89	210
90	314
93	111
94	190
95	1113
96	191
97	102
98	102
99	418
100	163
101	143
102	181
104	193
107	264
108	193
112	196
113	150
114	247
115	133
116	475
117	243
118	133
119	370
120	151
121	153
125	757
126	592
127	276
132	124
133	98
134	711
135	291
138	149
139	344
143	108
145	1408
146	576
147	176
148	684
152	430
153	137
154	115
158	291
164	131
165	473
166	1128
167	127
170	102
172	301
173	229
175	9999
176	1147
177	494
178	150
184	295
185	536
191	100
205	134
212	869
213	126
223	359
225	300
243	1201
244	5250
245	743
246	302
