Mass Spectrum: Allylprodine
Formula: C18 H25 N O2
CAS: 25384-17-2
Molecular weight: 287
Origin: Patti Price, Georgia Bureau of Investigation, Decatur, Georgia
m/z	RELATIVE INTENSITY
42	1261
44	530
50	20
51	150
52	50
53	120
54	40
55	180
56	120
57	1331
58	660
59	30
63	40
64	10
65	190
66	30
67	490
68	100
69	10
70	440
71	260
72	40
73	40
74	60
75	30
77	1000
78	210
79	170
80	50
81	70
82	330
83	110
84	110
85	20
86	30
87	20
88	10
89	70
90	40
91	1731
92	180
93	60
94	360
95	180
96	260
97	190
98	140
100	30
102	100
103	250
104	70
105	820
106	70
107	20
108	140
109	120
110	1561
112	70
113	20
115	950
116	190
117	260
120	140
121	10
122	110
124	20
126	30
127	180
128	740
129	910
130	340
131	580
132	80
133	100
135	20
136	150
139	30
141	290
142	200
143	220
144	300
145	70
146	50
151	30
152	90
153	110
154	170
155	180
156	160
157	160
158	270
159	400
160	80
161	10
165	40
166	10
167	30
169	50
170	1961
171	390
172	9999
173	1461
174	110
175	10
179	10
182	10
183	10
184	140
185	160
186	30
188	10
190	50
196	10
198	240
199	40
200	10
202	20
203	10
207	10
210	20
212	420
213	290
214	5084
215	790
216	80
230	360
258	10
286	60
287	20
