Mass Spectrum: 1,5-Naphthyridine
Formula: C8 H6 N2
CAS: 254-79-5
Molecular weight: 130
Origin: Japan AIST/NIMC Database- Spectrum MS-IW-3467
m/z	RELATIVE INTENSITY
25	10
26	129
27	60
28	189
36	10
37	249
38	499
39	1049
40	109
41	10
48	20
49	119
50	929
51	629
52	499
53	80
54	10
61	30
62	70
63	189
64	299
65	769
66	70
73	30
74	209
75	609
76	1489
77	689
78	129
79	1259
80	80
87	10
88	10
89	10
90	30
91	10
92	10
99	30
100	30
101	40
102	429
103	1709
104	1859
105	139
115	40
126	10
127	40
129	2379
130	9999
131	989
132	40
