Mass Spectrum: Cinerin I
Formula: C20 H28 O3
CAS: 25402-06-6
Molecular weight: 316
Origin: H.M.PAISLEY NATIONAL PHYSICAL LAB., TEDDINGTON, MIDDLESEX, UK
m/z	RELATIVE INTENSITY
27	410
28	510
29	840
39	540
40	90
41	1530
43	1450
44	190
51	170
53	500
55	140
56	190
57	460
58	310
65	250
66	110
67	560
68	110
69	680
70	110
71	190
77	690
78	170
79	890
80	180
81	1630
82	190
83	250
85	1390
91	90
92	140
93	1650
94	190
95	370
96	110
97	150
105	480
106	130
107	1340
108	480
109	350
119	120
121	2340
122	380
123	9999
124	1070
125	210
132	330
134	120
135	130
148	590
149	770
150	4100
151	550
153	300
167	180
168	780
316	790
317	210
