Mass Spectrum: 5-Dimethylamino-2-methyl-3-pentyn-2-ol
Formula: C8 H15 N O
CAS: 25400-83-3
Molecular weight: 141
Origin: NIST Mass Spectrometry Data Center, 1994
m/z	RELATIVE INTENSITY
12	29
13	59
14	224
15	3594
16	45
17	32
18	479
19	8
25	23
26	155
27	1281
28	965
29	429
30	847
36	21
37	197
38	515
39	2567
40	488
41	2119
42	7869
43	8120
44	4596
45	481
46	180
47	23
49	45
50	369
51	693
52	306
53	1010
54	257
55	1441
56	324
57	579
58	2868
59	657
60	43
61	52
62	23
63	868
64	152
65	488
66	445
67	1293
68	706
69	338
70	325
71	76
72	454
73	12
75	24
77	449
78	119
79	618
80	849
81	12
82	9999
83	1469
84	256
85	39
86	22
91	47
92	62
93	108
94	214
95	201
96	270
97	217
98	472
99	33
106	46
107	91
108	508
109	152
110	341
111	114
112	316
113	31
122	199
123	150
124	334
125	144
126	684
127	56
140	1742
141	1989
142	199
