Mass Spectrum: Formothion
Formula: C6 H12 N O4 P S2
CAS: 2540-82-1
Molecular weight: 257
Origin: CATALOGUE OF MASS SPECTRA OF PESTICIDES, APRIL, 1975; J. FREUDENTHAL & L. G. GRAMBERG, NAT'L INST. OF PUBLIC HEALTH, THE NETHERLANDS
m/z	RELATIVE INTENSITY
13	562
29	151
30	211
31	389
42	1686
45	1180
46	759
47	2133
48	119
49	209
55	133
56	544
58	934
60	311
62	810
63	1954
64	677
73	168
77	347
79	3355
80	132
81	148
87	3161
88	354
92	147
93	9999
94	761
95	587
96	373
100	307
104	228
109	578
111	405
112	222
115	727
116	650
117	180
124	162
125	8262
126	4707
127	708
140	196
141	263
142	295
143	1283
145	155
156	131
157	863
158	198
170	1715
171	296
172	2279
173	229
174	196
184	159
198	557
199	172
224	768
229	169
257	697
