Mass Spectrum: Pentanoic acid, 4-methyl-, ethyl ester
Formula: C8 H16 O2
CAS: 25415-67-2
Molecular weight: 144
Origin: V.G.Zaikin, TIPS, Russian Acad. Sci.
m/z	RELATIVE INTENSITY
41	4003
42	1201
43	9208
44	400
45	2201
55	4003
56	1601
57	2201
58	300
59	1000
60	4203
61	2402
62	800
69	800
70	2602
71	2001
72	500
73	3002
74	2602
75	700
81	3302
82	300
83	1401
87	400
88	9999
89	500
97	300
99	6005
100	400
101	6706
102	800
115	1000
116	200
117	500
118	30
129	500
130	40
144	20
