Mass Spectrum: Furan, 2-methoxy-
Formula: C5 H6 O2
CAS: 25414-22-6
Molecular weight: 98
Origin: Japan AIST/NIMC Database- Spectrum MS-NW-9298
m/z	RELATIVE INTENSITY
12	10
13	20
14	60
15	399
18	10
24	10
25	109
26	699
27	3409
28	159
29	2439
30	40
31	30
36	40
37	309
38	539
39	1029
40	90
41	229
42	70
43	169
44	20
45	20
49	10
50	20
51	20
52	30
53	439
54	519
55	3779
56	139
57	169
58	10
59	99
65	20
66	40
67	20
68	30
69	229
70	30
71	20
79	10
81	10
82	169
83	9999
84	479
85	70
97	20
98	9839
99	589
100	70
101	10
