Mass Spectrum: 1-Butanamine, N-nitroso-N-propyl-
Formula: C7 H16 N2 O
CAS: 25413-64-3
Molecular weight: 144
Origin: T. BRYCE UNILEVER RESEARCH COLWORTH/WELWYN. BEDFORD U.K.
m/z	RELATIVE INTENSITY
38	137
39	1324
40	314
41	5373
42	8431
43	9999
44	1373
45	137
49	186
53	142
54	338
55	784
56	1569
57	3824
58	1275
59	127
60	108
68	137
69	98
70	6373
71	1461
72	2353
73	206
74	275
84	6863
85	1245
86	529
87	88
88	108
89	324
98	147
99	118
101	1696
102	3059
103	206
112	69
113	29
114	29
115	980
116	74
127	873
128	103
144	2725
145	225
