Mass Spectrum: 1-Pentanamine, N-methyl-
Formula: C6 H15 N
CAS: 25419-06-1
Molecular weight: 101
m/z	RELATIVE INTENSITY
15	90
27	300
28	400
29	200
30	600
31	100
41	400
42	400
43	400
44	9999
45	300
46	10
55	70
56	100
57	100
58	700
59	50
69	30
70	200
71	50
72	100
73	20
84	20
86	100
87	70
98	20
99	40
100	100
101	900
