Mass Spectrum: Phellopterin
Formula: C17 H16 O5
CAS: 2543-94-4
Molecular weight: 300
Origin: Japan AIST/NIMC Database- Spectrum MS-IW-7268
m/z	RELATIVE INTENSITY
15	40
17	30
18	10
26	40
27	369
28	90
29	60
31	40
37	90
38	279
39	919
40	529
41	829
42	309
43	40
44	60
45	10
49	40
50	229
51	359
52	99
53	1339
54	70
55	20
57	10
58	20
59	10
60	10
61	80
62	169
63	259
64	40
65	289
66	289
67	2679
68	1879
69	359
70	20
72	20
73	10
74	60
75	99
76	169
77	389
78	50
79	40
80	70
81	10
83	10
85	20
86	70
87	129
88	70
89	169
90	70
91	60
92	20
93	50
94	80
95	319
96	10
98	10
99	10
101	20
102	10
103	60
104	119
105	389
106	40
108	10
109	10
115	10
116	349
117	30
118	30
119	60
120	10
121	10
123	30
131	10
132	90
133	439
134	50
135	10
143	169
144	30
145	80
146	20
147	60
148	10
149	10
159	10
160	219
161	1189
162	129
163	20
171	10
173	40
174	30
175	109
176	20
187	40
188	159
189	2279
190	259
191	30
201	20
202	40
203	159
204	10
215	10
216	30
217	8019
218	979
219	139
220	10
231	329
232	9999
233	1399
234	199
235	10
300	10
301	10
