Mass Spectrum: o-Anisic acid, TMS derivative
Formula: C11 H16 O3 Si
CAS: 25436-32-2
Molecular weight: 224
Origin: NIST Mass Spectrometry Data Center, 2010
m/z	RELATIVE INTENSITY
15	40
27	20
28	20
29	40
30	10
31	20
37	10
38	40
39	50
41	10
42	20
43	150
44	50
45	370
46	30
47	80
48	10
49	10
50	110
51	210
52	30
53	70
54	10
55	40
56	10
57	20
58	30
59	150
60	30
61	50
62	50
63	280
64	360
65	80
66	20
67	20
68	10
69	20
70	10
71	10
72	50
73	500
74	110
75	440
76	230
77	1812
78	160
79	130
80	10
81	10
82	10
83	20
85	30
89	80
90	60
91	470
92	1111
93	90
94	10
95	10
96	10
97	10
103	20
105	661
106	190
107	50
108	10
109	10
117	10
118	40
119	90
120	180
121	60
122	10
123	10
131	10
133	140
134	1842
135	9999
136	1091
137	230
138	20
145	10
147	20
148	10
149	100
150	40
151	30
152	10
161	20
162	20
163	100
164	30
165	300
166	60
167	10
175	10
177	50
178	20
179	631
180	100
181	30
193	80
194	440
195	110
196	30
205	20
206	100
207	40
208	90
209	2282
210	380
211	110
212	10
223	70
224	781
225	130
226	40
