Mass Spectrum: cis-4a-Methyl-decahydronaphthalene
Formula: C11 H20
CAS: 2547-26-4
Molecular weight: 152
Origin: V.G.Zaikin, Petrochem. Synth. Inst., Moscow
m/z	RELATIVE INTENSITY
53	891
54	591
55	3193
56	390
57	200
65	320
66	450
67	4284
68	1511
69	1702
77	410
79	611
80	210
81	5955
82	3023
83	1321
93	430
94	310
95	7827
96	3493
97	510
109	2712
110	1702
111	220
123	520
136	831
137	9999
138	1111
152	2292
153	300
