Mass Spectrum: trans-4a-Methyl-decahydronaphthalene
Formula: C11 H20
CAS: 2547-27-5
Molecular weight: 152
Origin: V.G.Zaikin, Petrochem. Synth. Inst., Moscow
m/z	RELATIVE INTENSITY
53	991
54	811
55	4194
56	561
57	210
65	310
66	510
67	5605
68	1892
69	2002
70	190
77	480
78	100
79	811
80	290
81	6406
82	3914
83	1692
84	190
93	410
94	510
95	9999
96	5525
97	711
107	120
108	210
109	4804
110	3213
111	400
123	811
124	200
136	520
137	6095
138	691
152	5815
153	821
