Mass Spectrum: 2-Octenal, (E)-
Formula: C8 H14 O
CAS: 2548-87-0
Molecular weight: 126
Origin: Japan AIST/NIMC Database- Spectrum MS-NW-7545
m/z	RELATIVE INTENSITY
14	40
15	309
17	30
18	149
19	40
25	10
26	319
27	4209
28	599
29	7379
30	179
31	279
32	20
33	10
36	10
37	70
38	279
39	4209
40	809
41	9999
42	4189
43	1929
44	309
45	609
46	30
47	149
49	30
50	209
51	419
52	199
53	1109
54	539
55	8459
56	1969
57	5219
58	1309
59	209
60	209
61	40
62	60
63	109
64	20
65	249
66	229
67	2079
68	979
69	3189
70	7069
71	1189
72	169
73	559
74	70
75	129
76	10
77	259
78	109
79	669
80	319
81	549
82	3409
83	6179
84	1799
85	309
86	70
87	60
88	30
89	30
91	139
92	30
93	809
94	90
95	509
96	109
97	1369
98	899
99	179
100	40
101	389
102	30
103	229
104	20
105	50
106	10
107	90
108	419
109	99
110	30
111	289
112	40
113	20
123	20
124	30
125	169
126	109
127	60
128	20
