Mass Spectrum: Aziridine, 2-ethyl-
Formula: C4 H9 N
CAS: 2549-67-9
Molecular weight: 71
m/z	RELATIVE INTENSITY
12	40
13	70
14	330
15	1722
16	70
17	34
18	117
24	20
25	100
26	671
27	2352
28	9999
29	1281
30	5115
31	70
32	50
33	10
34	20
35	10
36	70
37	180
38	540
39	1782
40	1211
41	3183
42	7887
43	3883
44	951
45	30
48	10
49	30
50	60
51	70
52	110
53	70
54	220
55	130
56	5565
57	240
58	40
59	10
62	10
63	10
64	10
65	10
66	10
67	30
68	110
69	110
70	3213
71	1211
72	40
