Mass Spectrum: 1,4-Benzodioxin
Formula: C8 H6 O2
CAS: 255-37-8
Molecular weight: 134
m/z	RELATIVE INTENSITY
50	1802
51	1601
52	1702
63	601
67	601
75	1101
76	2702
77	3703
105	1802
106	400
134	9999
135	801
