Mass Spectrum: Chlorbicyclen
Formula: C9 H6 Cl8
CAS: 2550-75-6
Molecular weight: 394
Origin: NIST Mass Spectrometry Data Center, 1998.
m/z	RELATIVE INTENSITY
15	10
25	10
26	140
27	1010
28	30
29	10
35	100
36	110
37	150
38	170
39	660
40	30
41	50
43	30
47	180
48	80
49	2330
50	640
51	1920
52	190
53	1890
54	120
55	110
59	20
60	280
61	950
62	700
63	730
64	120
65	90
66	30
67	30
68	10
70	10
71	160
72	240
73	1130
74	680
75	960
76	60
77	190
78	80
79	40
80	10
82	120
83	900
84	550
85	1410
86	650
87	1230
88	270
89	590
90	250
91	320
92	130
94	140
95	490
96	580
97	1150
98	530
99	790
100	100
101	120
102	120
103	70
104	30
106	250
107	710
108	900
109	1440
110	550
111	520
112	80
113	300
114	100
115	20
116	20
117	1440
118	220
119	1610
120	490
121	1010
122	190
123	850
124	80
125	490
126	470
127	410
128	70
129	20
130	560
131	430
132	490
133	820
134	270
135	440
136	190
137	140
138	70
139	30
140	30
141	1080
142	100
143	1350
144	230
145	800
146	230
147	510
148	300
149	440
150	110
151	100
152	10
153	50
154	50
155	230
156	110
157	600
158	140
159	380
160	60
161	110
162	20
163	20
164	10
165	670
166	50
167	930
168	190
169	730
170	1170
171	430
172	730
173	140
174	130
175	20
177	60
178	70
179	190
180	230
181	280
182	370
183	970
184	320
185	550
186	110
187	90
188	40
189	10
190	50
191	710
192	240
193	920
194	240
195	460
196	90
197	110
198	20
199	10
200	30
201	240
202	80
203	450
204	1160
205	910
206	1190
207	710
208	440
209	240
210	80
211	30
212	10
213	80
214	290
215	160
216	410
217	720
218	380
219	750
220	260
221	310
222	70
223	60
224	10
225	130
226	200
227	7919
228	840
229	9999
230	900
231	4830
232	400
233	1020
234	10
235	4810
236	330
237	7509
238	740
239	5319
240	920
241	2270
242	670
243	720
244	260
245	170
246	60
247	30
248	160
249	130
250	270
251	470
252	390
253	650
254	370
255	440
256	190
257	150
258	50
259	30
260	10
261	770
262	170
263	1240
264	250
265	890
266	170
267	320
268	70
269	60
270	4600
271	280
272	8579
273	500
274	7009
275	2750
276	3410
277	3910
278	1160
279	2400
280	360
281	790
282	80
283	140
284	20
285	50
286	10
287	290
288	80
289	440
290	120
291	300
292	80
293	120
294	30
295	30
296	10
297	190
298	30
299	350
300	30
301	270
302	30
303	120
304	10
305	30
306	10
309	260
310	50
311	2460
312	280
313	4150
314	400
315	3160
316	290
317	1320
318	120
319	300
320	30
321	40
323	170
324	20
325	320
326	40
327	250
328	40
329	120
330	10
331	30
345	10
347	20
348	10
349	20
351	10
359	1580
360	170
361	3600
362	380
363	3390
364	330
365	1830
366	180
367	590
368	50
369	120
370	10
371	10
394	220
395	20
396	570
397	50
398	620
399	60
400	390
401	30
402	140
403	20
404	40
406	10
