Mass Spectrum: Silane, trichloro(3-chloropropyl)-
Formula: C3 H6 Cl4 Si
CAS: 2550-06-3
Molecular weight: 210
Origin: RADIAN CORP
m/z	RELATIVE INTENSITY
15	40
26	170
27	500
28	50
29	40
35	190
36	80
37	230
38	360
39	1800
40	300
41	1340
42	3720
43	150
47	70
48	90
49	1000
50	40
51	320
52	10
53	90
54	10
55	20
60	10
61	50
62	50
63	2380
64	220
65	950
66	120
67	50
72	10
73	70
75	90
76	60
77	100
78	30
79	20
88	20
89	30
90	30
91	10
98	1140
99	520
100	750
101	350
102	170
103	90
105	20
111	30
112	450
113	120
114	310
115	90
116	60
117	20
118	10
123	90
124	20
125	220
126	70
127	120
128	30
129	210
130	20
131	140
133	9630
134	610
135	9999
136	560
137	3680
138	1330
139	740
140	810
141	190
142	150
143	20
146	20
147	20
148	20
149	10
157	30
159	20
160	10
161	3160
162	270
163	3110
164	240
165	1110
166	70
167	150
174	380
175	240
176	410
177	240
178	150
179	80
180	10
181	10
