Mass Spectrum: Cyclohexanemethanethiol
Formula: C7 H14 S
CAS: 2550-37-0
Molecular weight: 130
Origin: STANDARD OIL CO., WHITING, IND, USA
m/z	RELATIVE INTENSITY
14	30
15	360
26	269
27	2850
28	750
29	1570
30	45
32	45
33	150
34	105
35	105
37	30
38	165
39	2820
40	405
41	6120
42	420
43	600
44	45
45	1020
46	270
47	1330
48	105
49	120
50	135
51	270
52	135
53	930
54	1900
55	9999
56	630
57	120
58	120
59	165
60	120
61	165
62	30
63	75
64	15
65	180
66	330
67	3640
68	1590
69	240
70	15
71	90
72	15
73	120
74	75
75	30
77	165
78	45
79	195
80	60
81	3040
82	1320
83	4980
84	315
85	60
87	60
89	15
90	75
91	60
92	15
93	45
95	300
96	3400
97	1200
98	75
101	30
130	2190
131	150
132	105
