Mass Spectrum: Cyclohexane, (bromomethyl)-
Formula: C7 H13 Br
CAS: 2550-36-9
Molecular weight: 176
Origin: Chuck Anderson, Aldrich Chemical Co.
m/z	RELATIVE INTENSITY
15	18
25	2
26	55
27	624
28	227
29	459
30	13
31	1
32	1
33	2
34	1
36	3
37	22
38	94
39	1602
40	264
41	2798
42	241
43	373
44	15
45	34
46	81
47	35
48	5
49	6
50	90
51	208
52	106
53	726
54	731
55	7606
56	357
57	25
58	1
61	7
62	23
63	49
64	10
65	160
66	82
67	1153
68	347
69	438
70	27
71	1
72	1
73	6
74	9
75	3
76	2
77	105
78	23
79	158
80	29
81	454
82	341
83	3247
84	216
85	8
86	1
87	1
89	3
90	1
91	34
92	5
93	86
94	7
95	264
97	9999
98	705
99	27
100	1
104	1
105	9
106	17
107	44
108	17
109	37
110	1
117	5
118	1
119	41
120	13
121	39
122	13
123	2
131	1
132	6
133	20
134	7
135	20
136	3
137	2
148	1
149	1
150	1
176	243
177	18
178	237
179	19
180	1
