Mass Spectrum: 5-Tridecene, (Z)-
Formula: C13 H26
CAS: 25524-42-9
Molecular weight: 182
Origin: S.A. Rang et al., IR & MS of Unsatd. Hydrocarbons, 1977
m/z	RELATIVE INTENSITY
15	118
16	13
24	13
25	48
26	284
27	652
28	580
29	3846
30	97
31	305
37	32
38	61
39	2002
40	374
41	8654
42	2108
43	7308
44	236
45	187
46	38
49	13
50	82
51	159
52	139
53	971
54	2108
55	9999
56	5000
57	4584
58	444
59	90
60	27
61	6
62	6
63	23
64	8
65	229
66	166
67	1844
68	804
69	5385
70	3741
71	2266
72	132
73	63
74	15
75	6
76	13
77	250
78	215
79	374
80	101
81	1026
82	721
83	3319
84	1791
85	721
86	130
87	38
88	4
91	92
92	15
93	105
94	29
95	735
96	374
97	402
98	818
99	229
103	4
105	13
106	4
107	32
108	15
109	118
110	187
111	915
112	388
113	513
114	46
115	11
119	4
121	11
122	4
123	78
124	61
125	284
126	187
127	53
128	38
129	11
135	11
137	59
138	29
139	109
140	61
141	92
142	17
143	4
149	4
151	11
152	8
153	111
154	97
155	111
156	17
157	13
165	17
166	4
167	25
168	21
169	19
