Mass Spectrum: Methanone, (2-methoxyphenyl)phenyl-
Formula: C14 H12 O2
CAS: 2553-04-0
Molecular weight: 212
Origin: NIST Mass Spectrometry Data Center, 1994
m/z	RELATIVE INTENSITY
14	35
15	494
18	20
26	55
27	274
29	93
30	16
31	23
37	64
38	264
39	428
40	17
43	15
50	1032
51	2568
52	212
53	184
54	12
55	21
57	31
61	63
62	264
63	915
64	790
65	186
66	36
69	31
73	53
74	367
75	323
76	31
77	7085
78	658
79	395
80	33
82	16
84	15
85	22
86	65
87	78
88	46
89	95
90	15
91	440
92	1768
93	176
94	12
98	53
99	38
100	28
101	37
102	28
105	3009
106	273
107	186
108	15
110	16
111	21
113	66
114	51
115	383
116	37
118	60
119	54
120	377
121	2370
122	197
123	22
126	103
127	53
128	35
129	18
133	132
135	9999
136	860
137	101
138	18
139	332
140	92
141	199
142	33
150	97
151	218
152	536
153	241
154	54
155	51
163	17
165	515
166	198
167	927
168	327
169	400
170	61
171	20
177	51
178	19
180	98
181	607
182	110
183	198
184	67
194	1745
195	2934
196	539
197	1097
198	171
199	15
211	1281
212	6139
213	923
214	88
