Mass Spectrum: Cyclohexene, 4-[(1E)-1,5-dimethyl-1,4-hexadien-1-yl]-1-methyl-
Formula: C15 H24
CAS: 25532-79-0
Molecular weight: 204
Origin: NIST Mass Spectrometry Data Center
m/z	RELATIVE INTENSITY
26	10
27	300
28	40
29	400
30	10
38	20
39	881
40	210
41	2252
42	160
43	701
44	20
50	50
51	290
52	150
53	1161
54	120
55	1361
56	220
65	661
66	210
67	2042
68	490
69	971
70	120
73	10
77	1892
78	370
79	2532
80	2893
81	1061
82	631
84	40
88	10
91	2172
92	1862
93	9999
94	1902
95	1331
96	130
97	40
98	10
103	190
104	70
105	1521
106	440
107	2112
108	400
109	2682
110	300
111	30
112	20
119	3543
120	661
121	3423
122	661
123	120
124	20
134	300
135	621
136	941
137	110
138	10
148	330
149	140
150	30
161	450
162	130
163	20
175	130
176	50
189	500
190	70
204	1792
205	280
206	20
