Mass Spectrum: Silane, diethoxydiphenyl-
Formula: C16 H20 O2 Si
CAS: 2553-19-7
Molecular weight: 272
Origin: NIST Mass Spectrometry Data Center, 1994
m/z	RELATIVE INTENSITY
14	7
15	173
26	126
27	903
28	417
29	1860
30	86
32	26
39	199
42	58
43	497
45	3397
46	206
47	147
50	458
51	1615
52	249
53	275
62	215
63	684
64	75
65	149
66	117
71	126
72	166
73	699
74	158
75	177
76	75
77	3491
78	1781
79	485
80	51
87	261
89	186
91	2212
92	231
93	149
94	332
95	298
97	72
98	57
99	218
101	102
102	118
104	4753
105	2864
106	465
107	485
108	344
113	94
115	150
116	239
117	84
118	138
119	53
120	53
121	1295
122	487
123	3583
124	456
125	174
126	77
127	125
128	98
129	159
131	64
132	83
133	166
134	54
135	65
137	222
139	4389
140	587
141	237
147	195
148	136
149	485
150	1916
151	3837
152	1364
153	726
154	1122
155	439
156	79
163	56
165	780
167	2393
168	410
169	133
176	165
177	101
179	862
180	440
181	1113
182	101
183	2281
184	366
185	118
194	9999
195	6268
196	1275
197	1450
198	286
199	931
200	164
211	85
213	117
215	89
225	115
227	1520
228	564
229	150
239	67
257	48
272	796
273	212
274	57
