Mass Spectrum: 2H-Azepin-2-one, hexahydro-1-methyl-
Formula: C7 H13 N O
CAS: 2556-73-2
Molecular weight: 127
Origin: Japan AIST/NIMC Database- Spectrum MS-NW-3028
m/z	RELATIVE INTENSITY
14	20
15	339
18	10
26	99
27	659
28	519
29	289
30	249
31	50
37	10
38	50
39	619
40	139
41	1429
42	2149
43	2629
44	9999
45	279
50	30
51	40
52	30
53	109
54	109
55	2479
56	729
57	529
58	319
59	20
60	20
65	20
66	20
67	179
68	119
69	139
70	1259
71	229
72	109
73	50
74	10
81	40
82	30
83	80
84	709
85	419
86	50
95	20
96	20
97	10
98	319
99	539
100	30
112	179
113	30
126	219
127	4069
128	339
129	20
