Mass Spectrum: Eseridine
Formula: C15 H21 N3 O3
CAS: 25573-43-7
Molecular weight: 291
Origin: A. Brossi, LC, NIDDK, NIH, Bethesda, MD 20892
m/z	RELATIVE INTENSITY
42	1348
43	242
44	441
45	278
46	57
49	11
50	65
51	165
52	117
53	139
54	83
55	196
56	277
58	4089
59	168
60	914
61	31
62	43
63	166
64	67
65	393
66	232
67	175
68	114
69	58
70	81
71	68
72	90
73	186
74	35
75	67
76	103
77	591
78	309
79	238
80	176
81	163
82	132
83	55
84	56
85	42
86	43
87	56
88	35
89	283
90	186
91	519
92	139
93	132
94	210
95	83
96	344
97	94
98	12
99	45
100	13
101	139
102	238
103	315
104	195
105	198
106	202
107	145
108	96
109	78
110	20
111	32
112	9
113	10
114	29
115	338
116	279
117	726
118	395
119	151
120	136
121	76
122	106
123	33
124	55
127	69
128	127
129	109
130	573
131	827
132	1489
133	548
134	203
135	60
136	59
140	31
141	49
142	156
143	238
144	526
145	605
146	1005
147	607
148	316
149	123
150	59
152	11
154	50
155	48
156	120
157	253
158	564
159	753
160	6440
161	4667
162	1537
163	254
164	29
168	13
169	38
170	125
171	65
172	312
173	592
174	9999
175	8867
176	1310
177	428
178	75
183	9
184	44
185	83
186	467
187	318
188	1124
189	304
190	213
191	56
192	10
193	11
198	13
199	51
200	42
201	175
202	125
203	524
204	516
205	90
213	9
215	51
216	93
217	718
218	4416
219	729
220	92
222	25
229	40
230	12
231	793
232	724
233	489
234	573
235	96
245	140
246	44
247	21
258	9
259	11
261	185
262	53
274	17
275	470
276	83
277	12
289	20
291	4434
292	758
293	103
