Mass Spectrum: o-Fluorothiophenol
Formula: C6 H5 F S
CAS: 2557-78-0
Molecular weight: 128
Origin: NIST Mass Spectrometry Data Center, 1994
m/z	RELATIVE INTENSITY
12	31
13	29
15	52
16	4
17	28
18	38
25	49
26	181
27	125
28	196
31	554
32	223
33	363
36	80
37	471
38	496
39	723
40	54
44	142
45	1357
46	60
47	87
48	33
49	210
50	819
51	434
52	57
53	154
54	243
55	54
56	219
57	2117
58	1002
59	95
60	107
61	355
62	400
63	1015
64	663
65	109
68	484
69	2754
70	279
71	207
72	33
73	143
74	515
75	1066
76	227
77	48
80	103
81	606
82	1231
83	3430
84	2769
85	146
87	191
88	51
89	109
92	121
93	391
94	234
95	548
96	496
97	45
99	26
100	136
102	525
103	34
105	46
106	77
108	6274
109	542
110	308
111	33
113	66
126	341
127	1905
128	9999
129	766
130	472
131	31
