Mass Spectrum: 1-Octyl trifluoroacetate
Formula: C10 H17 F3 O2
CAS: 2561-21-9
Molecular weight: 226
Origin: NIST Mass Spectrometry Data Center
m/z	RELATIVE INTENSITY
15	30
26	80
27	1211
28	250
29	2202
30	70
31	10
33	50
37	10
38	50
39	1712
40	400
41	8107
42	3093
43	6346
46	10
48	10
50	110
51	150
52	60
53	681
54	861
55	9799
56	8227
57	5225
58	220
59	50
60	10
61	30
62	10
63	20
64	10
65	110
66	60
67	1041
68	2322
69	9999
70	7807
71	2642
72	140
73	10
77	70
78	120
79	110
80	30
81	180
82	1521
83	6055
84	5605
85	400
86	10
91	20
93	10
95	70
97	1051
98	70
99	851
100	20
101	10
109	10
110	60
111	60
112	510
113	80
115	30
125	20
127	160
137	10
138	30
139	40
140	20
141	30
151	10
152	10
153	10
155	80
157	561
158	60
159	10
165	10
169	10
179	10
208	10
