Mass Spectrum: 3-Pyridinecarboxylic acid, 2-propenyl ester
Formula: C9 H9 N O2
CAS: 25635-12-5
Molecular weight: 163
Origin: Zaikin V.G., TIPS RAS, Moscow, Russia
m/z	RELATIVE INTENSITY
26	80
27	180
29	80
38	80
39	661
40	80
41	981
44	40
49	50
50	510
51	1611
52	250
53	90
57	150
75	30
76	70
77	160
78	3403
79	440
80	40
105	130
106	9999
107	691
108	40
118	70
123	100
124	100
144	100
162	390
163	310
164	30
