Mass Spectrum: 1-Piperidinyloxy, 2,2,6,6-tetramethyl-
Formula: C9 H18 N O
CAS: 2564-83-2
Molecular weight: 156
Origin: Japan AIST/NIMC Database- Spectrum MS-IW-7690
m/z	RELATIVE INTENSITY
15	129
26	40
27	829
28	349
29	1009
30	249
31	20
32	10
34	20
37	10
38	30
39	1309
40	299
41	5359
42	1839
43	1399
44	109
45	30
46	60
47	10
50	30
51	99
52	60
53	559
54	249
55	6419
56	8409
57	2259
58	639
59	50
60	80
62	10
63	30
65	99
66	50
67	859
68	549
69	9999
70	4619
71	599
72	449
73	1359
74	2719
75	99
76	10
77	90
78	20
79	209
80	60
81	2099
82	729
83	2169
84	749
85	149
86	569
87	60
88	179
89	10
91	50
92	10
93	80
94	70
95	269
96	429
97	349
98	579
99	119
100	169
101	10
105	20
106	20
107	80
108	99
109	689
110	139
111	449
112	90
113	119
114	829
115	60
120	10
121	30
122	40
123	1579
124	809
125	209
126	1359
127	119
128	20
136	10
137	10
138	90
139	109
140	60
141	2879
142	919
143	70
154	10
156	4909
157	649
158	40
