Mass Spectrum: L-Phenylalanine, N-benzoyl-
Formula: C16 H15 N O3
CAS: 2566-22-5
Molecular weight: 269
Origin: Q. Pu, LBC, NIDDK, NIH, Bethesda, MD 20892
m/z	RELATIVE INTENSITY
41	165
42	59
43	161
44	141
45	224
46	11
47	6
48	8
49	18
50	333
51	1212
52	196
53	94
54	33
55	128
56	63
57	95
58	23
59	14
60	35
61	16
62	51
63	177
64	85
65	674
66	71
67	54
68	96
69	94
70	35
71	47
73	48
74	88
75	107
76	292
77	4754
78	471
79	151
80	38
81	39
82	43
83	53
84	29
85	31
86	16
87	14
88	7
89	179
90	120
91	2023
92	305
93	62
94	83
95	44
96	29
97	51
98	31
99	18
100	6
101	19
102	97
103	216
104	856
105	9999
106	791
107	91
108	60
109	37
110	22
112	140
113	24
115	27
116	28
117	80
118	180
119	85
120	138
121	82
122	605
123	62
124	46
125	23
126	9
127	6
128	30
129	25
130	54
131	138
132	41
133	107
134	182
135	25
136	154
137	27
138	13
139	24
140	11
141	7
143	8
145	18
146	29
147	2026
148	5973
149	600
150	174
151	29
152	47
153	11
154	9
157	5
161	8
162	6
163	17
164	283
165	88
166	37
167	18
168	102
169	11
171	24
177	5
178	85
179	88
180	24
181	15
182	319
183	180
184	20
185	6
194	7
195	10
196	8
197	419
198	44
199	7
204	7
206	8
207	9
210	21
211	6
222	19
223	126
224	352
225	728
226	116
227	9
251	16
252	15
253	6
256	6
268	6
269	420
270	108
271	17
