Mass Spectrum: Cyclopropaneethanol
Formula: C5 H10 O
CAS: 2566-44-1
Molecular weight: 86
Origin: NIST Mass Spectrometry Data Center
m/z	RELATIVE INTENSITY
11	60
12	30
13	40
14	190
15	410
16	40
17	10
18	40
19	250
26	1091
27	5995
28	2502
29	7227
30	801
31	5815
32	140
37	571
38	1071
39	7767
40	1912
41	5625
42	1301
43	1762
44	3543
45	430
49	140
50	711
51	881
52	340
53	4134
54	901
55	6476
56	2442
57	5705
58	751
61	40
62	80
63	110
65	240
67	9999
68	6496
69	420
71	230
85	50
86	190
