Mass Spectrum: 9,12-Octadecadienoic acid, methyl ester, (E,E)-
Formula: C19 H34 O2
CAS: 2566-97-4
Molecular weight: 294
Origin: R.T.HOLMAN,UNIVERSITY OF MINNESOTA
m/z	RELATIVE INTENSITY
26	220
27	2200
29	3800
30	150
31	280
33	70
37	80
38	130
39	2300
40	410
41	8900
42	1200
43	4200
44	990
45	380
50	100
51	260
52	230
53	1700
54	3600
55	7500
56	800
57	850
58	350
59	2200
60	130
61	60
63	100
64	50
65	720
66	720
67	9999
68	3500
69	3400
70	400
71	370
72	100
73	320
74	1500
75	190
76	70
77	1500
78	480
79	3900
80	2200
81	7700
82	3900
83	1800
84	390
85	390
86	60
87	870
88	140
89	60
90	50
91	1100
92	260
93	1500
94	1000
95	5000
96	3300
97	1100
98	300
99	200
100	70
101	240
102	60
103	80
104	80
105	340
106	170
107	770
108	690
109	2400
110	1000
111	540
112	120
113	120
114	80
115	330
116	70
117	110
118	70
119	230
120	180
121	750
122	580
123	1200
124	1100
125	320
126	100
127	130
128	100
129	230
130	70
131	180
132	70
133	230
134	140
135	680
136	780
137	720
138	610
139	210
140	150
141	210
142	70
143	200
144	60
145	130
146	80
147	180
148	80
149	590
150	1100
151	490
152	360
153	160
154	170
155	130
156	60
157	110
158	60
159	110
160	60
161	100
162	60
163	360
164	630
165	330
166	210
167	140
168	160
169	80
171	80
173	150
174	60
175	70
176	50
177	210
178	440
179	210
180	120
181	140
182	130
183	60
185	60
187	100
188	50
189	60
191	150
192	180
193	120
194	70
195	130
196	130
197	50
199	50
201	60
205	110
206	110
207	70
208	60
209	120
210	120
211	50
213	50
215	50
218	70
219	80
220	340
221	110
222	50
223	120
224	90
225	50
227	50
233	100
234	150
235	60
236	40
237	100
238	70
245	60
251	50
252	50
261	50
262	690
263	950
264	220
265	80
266	50
279	50
290	40
292	80
293	50
294	3004
295	580
296	100
