Mass Spectrum: 4,7,10,13,16,19-Docosahexaenoic acid, methyl ester, (all-Z)-
Formula: C23 H34 O2
CAS: 2566-90-7
Molecular weight: 342
Origin: NIST Mass Spectrometry Data Center
m/z	RELATIVE INTENSITY
15	80
26	10
27	240
28	30
29	340
30	10
31	20
33	10
38	10
39	791
40	140
41	3173
42	200
43	571
44	20
45	120
50	50
51	260
52	190
53	1181
54	440
55	2382
56	140
57	200
59	991
60	40
61	30
62	10
63	90
64	40
65	1381
66	1191
67	5405
68	510
69	801
70	160
71	260
72	30
73	70
74	911
75	90
77	4034
78	2142
79	9999
80	2963
81	1972
82	430
83	250
84	80
85	751
86	50
87	220
88	440
89	90
91	9338
92	3173
93	4914
94	1381
95	1561
96	200
97	200
98	70
99	90
100	20
101	90
102	90
103	591
104	931
105	4804
106	2452
107	1672
108	3183
109	751
110	110
111	90
112	10
113	50
114	20
115	811
116	410
117	3613
118	1081
119	4124
120	1181
121	1001
122	410
123	180
124	30
125	20
126	20
127	230
128	420
129	1051
130	621
131	2562
132	1281
133	2082
134	871
135	651
136	140
137	70
138	20
139	20
140	60
141	260
142	140
143	681
144	320
145	1521
146	641
147	1091
148	631
149	240
150	40
151	40
152	80
153	90
154	60
155	170
156	90
157	530
158	200
159	1131
160	350
161	671
162	220
163	80
164	20
165	80
166	631
167	160
168	40
169	200
170	70
171	410
172	150
173	621
174	240
175	300
176	80
177	60
178	60
179	70
180	110
181	110
182	40
183	180
184	60
185	320
186	140
187	310
188	150
189	80
190	20
191	50
192	50
193	90
194	60
195	50
196	20
197	110
198	30
199	310
200	100
201	300
202	90
203	30
204	20
205	60
206	270
207	70
208	30
209	40
210	10
211	50
212	30
213	150
214	60
215	200
216	40
217	30
218	20
219	60
220	60
221	30
222	10
223	80
224	20
225	40
226	20
227	100
228	30
229	20
230	10
231	30
232	20
233	60
234	40
235	20
237	10
239	40
240	10
241	150
242	30
243	10
244	10
245	30
246	40
247	20
248	10
249	10
251	10
253	20
254	10
255	60
256	10
257	20
258	10
259	30
260	30
261	10
262	10
263	10
267	20
268	10
269	20
271	20
272	10
273	80
274	30
275	10
281	10
282	10
285	20
286	10
287	10
288	20
293	10
299	30
300	10
301	10
311	30
312	10
313	40
314	10
