Mass Spectrum: 5,8,11,14-Eicosatetraenoic acid, methyl ester, (all-Z)-
Formula: C21 H34 O2
CAS: 2566-89-4
Molecular weight: 318
Origin: NIST Mass Spectrometry Data Center
m/z	RELATIVE INTENSITY
15	90
26	20
27	390
28	80
29	851
30	20
31	40
33	10
39	871
40	160
41	3703
42	360
43	1521
44	70
45	130
50	40
51	220
52	180
53	1071
54	841
55	3423
56	290
57	641
58	50
59	1091
60	50
61	30
62	10
63	70
64	30
65	1281
66	1351
67	6306
68	771
69	1291
70	150
71	420
72	40
73	170
74	1531
75	110
77	3663
78	2372
79	9999
80	6736
81	3683
82	701
83	550
84	220
85	621
86	40
87	741
88	310
89	80
91	8488
92	2492
93	6055
94	2272
95	2002
96	821
97	490
98	120
99	210
100	30
101	170
102	100
103	450
104	881
105	4654
106	4364
107	2512
108	571
109	791
110	280
111	130
112	30
113	50
114	30
115	571
116	250
117	1712
118	550
119	3293
120	1922
121	1782
122	440
123	430
124	190
125	90
126	30
127	130
128	220
129	500
130	440
131	1391
132	510
133	2412
134	751
135	1081
136	410
137	220
138	50
139	30
140	100
141	260
142	90
143	190
144	190
145	591
146	470
147	1381
148	540
149	591
150	2672
151	400
152	70
153	40
154	100
155	100
156	30
157	330
158	70
159	390
160	290
161	791
162	340
163	310
164	741
165	150
166	90
167	70
168	30
169	120
170	40
171	130
172	30
173	330
174	150
175	941
176	340
177	681
178	150
179	80
180	921
181	190
182	30
183	290
184	50
185	60
186	20
187	320
188	120
189	300
190	230
191	130
192	40
193	90
194	200
195	50
196	10
197	90
198	20
199	30
200	10
201	250
202	70
203	891
204	180
205	80
206	80
207	320
208	100
209	20
210	10
211	30
212	10
213	20
214	10
215	130
216	30
217	350
218	90
219	90
220	370
221	110
222	20
224	10
225	10
227	20
228	10
229	40
230	20
231	80
232	20
233	140
234	70
235	30
236	10
237	10
238	80
239	20
241	10
242	10
243	20
244	50
245	40
246	10
247	170
248	70
249	20
250	100
251	20
252	10
257	20
258	20
259	10
261	80
262	30
263	10
264	100
265	20
268	10
269	60
270	10
275	40
276	10
277	30
278	10
286	30
287	20
289	20
290	20
318	100
319	20
