Mass Spectrum: 1-Propene, 1,1,3-trichloro-
Formula: C3 H3 Cl3
CAS: 2567-14-8
Molecular weight: 144
Origin: A. A. POLYAKOVA MOSCOW LOMONOSOV STATE UNIV., MOSCOW, USSR
m/z	RELATIVE INTENSITY
26	4240
27	6300
35	4040
37	1370
39	4850
43	1290
49	1740
51	520
73	2660
75	950
83	1740
85	790
101	48
105	180
107	320
108	180
109	9999
110	370
111	5950
112	222
113	460
114	20
119	48
123	51
124	48
125	37
142	65
143	80
144	840
145	72
146	820
147	190
148	290
