Mass Spectrum: 1-Phenyl-1,4-dicyano-1,2,3,4-tetrahydronaphthalene
Formula: C18 H14 N2
CAS: 25679-87-2
Molecular weight: 258
Origin: J.SCRIVENS, ICI PETROCHEM. & PLAST. PLC, WILTON, CLEVELAND, UK
m/z	RELATIVE INTENSITY
77	1000
91	1900
115	1100
127	1100
129	3600
140	1500
153	1400
154	2000
155	1200
180	4400
202	1000
203	2400
204	1700
215	1100
229	2200
230	3000
232	1000
257	1000
258	9999
259	1900
