Mass Spectrum: Propane, 1,1'-[methylenebis(oxy)]bis[2-methyl-
Formula: C9 H20 O2
CAS: 2568-91-4
Molecular weight: 160
m/z	RELATIVE INTENSITY
12	10
13	10
14	50
15	340
16	40
17	10
18	30
19	10
26	100
27	1341
28	320
29	2242
30	90
31	400
32	20
33	30
37	50
38	50
39	921
40	150
41	2502
42	340
43	931
44	781
45	170
46	10
47	20
52	10
53	60
54	20
55	240
56	490
57	9999
58	460
59	90
60	20
61	20
69	30
70	10
71	50
72	80
73	260
74	20
75	20
85	20
86	40
87	3813
88	220
89	30
91	10
101	40
102	10
103	40
104	10
105	120
106	10
112	20
116	10
117	310
118	20
131	340
132	20
145	10
159	60
160	10
