Mass Spectrum: 2-Hydroxy-3-propyl-2-cyclopenten-1-one
Formula: C8 H12 O2
CAS: 25684-04-2
Molecular weight: 140
Origin: Philip Morris R&D
m/z	RELATIVE INTENSITY
38	710
39	2248
40	532
41	3491
42	2367
43	4082
45	1538
51	651
52	59
53	1952
54	1006
55	9999
56	769
57	1420
58	118
65	355
66	177
67	59
68	355
69	2189
70	887
71	651
77	473
79	296
81	237
83	4497
84	473
89	355
91	118
94	59
97	2071
98	1242
99	2130
111	3964
112	5384
113	59
125	6272
140	5266
141	177
