Mass Spectrum: Aminocaproic acid, 3TMS derivative
Formula: C15 H37 N O2 Si3
CAS: 25688-76-0
Molecular weight: 347
m/z	RELATIVE INTENSITY
30	340
44	220
45	480
55	320
59	760
69	360
72	180
73	4180
74	540
75	1040
86	880
96	960
100	480
102	540
117	180
129	260
130	220
131	220
133	280
145	240
146	220
147	1240
148	220
149	160
168	200
170	380
172	180
174	9999
188	240
242	260
332	1520
333	560
334	240
347	180
