Mass Spectrum: Dibutoxymethane
Formula: C9 H20 O2
CAS: 2568-90-3
Molecular weight: 160
m/z	RELATIVE INTENSITY
12	10
13	10
14	50
15	310
16	30
17	10
18	30
19	20
26	150
27	1621
28	621
29	2772
30	140
31	601
32	20
33	20
37	30
38	50
39	831
40	140
41	2562
42	300
43	601
44	561
45	210
46	10
47	20
51	30
52	10
53	70
54	30
55	320
56	771
57	9999
58	520
59	60
60	10
61	20
69	50
70	30
71	110
72	80
73	200
74	20
75	30
85	90
86	100
87	4614
88	250
89	30
91	10
99	20
100	10
101	80
102	10
103	170
104	10
105	40
106	10
112	10
113	10
117	290
118	20
131	140
132	10
133	10
159	130
160	10
