Mass Spectrum: 2-Ethyl-3-methoxypyrazine
Formula: C7 H10 N2 O
CAS: 25680-58-4
Molecular weight: 138
Origin: Japan AIST/NIMC Database- Spectrum MS-NW-6629
m/z	RELATIVE INTENSITY
13	20
14	60
15	649
16	10
25	20
26	569
27	729
28	959
29	649
30	40
31	50
32	20
33	10
36	20
37	159
38	349
39	1129
40	2389
41	1069
42	869
43	99
44	30
45	80
47	20
48	10
49	30
50	109
51	259
52	979
53	979
54	1029
55	219
56	1259
57	90
58	60
59	70
60	10
61	50
62	10
63	40
64	70
65	139
66	329
67	399
68	1579
69	389
70	50
71	20
73	20
74	10
75	30
76	30
77	30
78	139
79	509
80	1279
81	969
82	239
83	99
84	40
85	10
87	10
89	10
91	10
92	60
93	1419
94	249
95	1609
96	279
97	30
98	10
103	10
104	10
105	539
106	439
107	2039
108	1349
109	1469
110	229
111	439
112	30
115	10
118	10
119	1209
120	189
121	109
122	40
123	6649
124	529
125	40
135	30
136	20
137	3039
138	9999
139	899
140	40
