Mass Spectrum: 1,3-Dioxolane, 2-ethyl-
Formula: C5 H10 O2
CAS: 2568-96-9
Molecular weight: 102
Origin: D.H.WILLIAMS CHEMISTRY DEPT., UNIVERSITY OF CAMBRIDGE
m/z	RELATIVE INTENSITY
14	200
15	700
17	250
18	1050
19	450
26	400
27	1400
28	1800
29	1200
31	400
32	400
38	200
39	700
40	350
41	900
42	800
43	1150
44	400
45	4100
46	250
55	200
57	1100
58	350
69	200
71	350
72	700
73	9999
74	400
101	650
102	150
