Mass Spectrum: Dibenzo[b,f]thiepin
Formula: C14 H10 S
CAS: 257-13-6
Molecular weight: 210
m/z	RELATIVE INTENSITY
37	1351
39	3003
42	250
44	1331
45	781
50	781
51	981
61	550
62	1421
69	1111
74	821
75	1131
76	1241
77	250
79	1221
81	1021
82	711
87	651
88	911
89	1091
90	270
91	1021
92	2492
102	330
104	3023
105	1912
113	350
115	691
126	400
134	731
139	1091
150	440
151	951
152	1021
163	1131
164	911
165	5355
166	1251
176	2132
177	1181
178	7827
179	1161
184	621
208	5245
209	9999
210	5535
211	3894
212	1241
