Mass Spectrum: Benzonitrile, 2,4,6-trimethyl-
Formula: C10 H11 N
CAS: 2571-52-0
Molecular weight: 145
Origin: NIST Mass Spectrometry Data Center, 1994
m/z	RELATIVE INTENSITY
14	26
15	380
16	1
17	3
18	31
26	134
27	794
28	229
32	2
37	179
38	370
39	1611
40	213
41	298
42	12
45	11
49	55
50	632
51	1170
52	489
53	300
54	41
55	13
58	97
59	130
61	136
62	341
63	740
64	375
65	596
66	89
67	18
71	124
72	122
73	64
74	153
75	407
76	463
77	1235
78	344
79	87
80	15
85	32
86	59
87	132
88	143
89	493
90	209
91	560
92	72
98	37
99	63
100	64
101	184
102	470
103	1151
104	412
105	121
111	16
113	61
114	94
115	893
116	549
117	493
118	182
119	33
123	10
127	90
128	246
130	9999
131	1033
132	49
140	70
141	31
142	99
143	31
144	1290
145	4561
146	529
147	26
