Mass Spectrum: Cyclopenta(cd)pyrene, 3,4-dihydro-
Formula: C18 H12
CAS: 25732-74-5
Molecular weight: 228
Origin: L.WALLCAVE, EPPLEY INST. CANCER, NEBRASKA MED. UNIV. OMAHA U.
m/z	RELATIVE INTENSITY
74	60
75	80
87	120
88	80
98	60
99	150
100	400
101	360
111	130
112	1040
114	1080
150	50
174	70
198	110
199	90
200	190
201	70
222	180
223	250
224	1090
225	990
226	4500
227	5140
228	9999
229	1790
230	160
