Mass Spectrum: Phosphoramidous difluoride
Formula: F2 H2 N P
CAS: 25757-74-8
Molecular weight: 85
m/z	RELATIVE INTENSITY
31	400
46	200
47	1900
50	200
64	100
65	200
66	600
69	3800
84	2900
85	9999
86	100
