Mass Spectrum: Decanoic acid, 9-oxo-, methyl ester
Formula: C11 H20 O3
CAS: 2575-07-7
Molecular weight: 200
Origin: W.V. BROWN, CSIRO, BLACK MOUNTAIN, CANBERRA CITY, AUSTRALIA
m/z	RELATIVE INTENSITY
39	425
40	112
41	2346
42	447
43	9999
44	223
45	436
51	56
53	190
54	145
55	4078
56	726
57	1844
58	3207
59	1899
60	112
61	78
63	89
65	89
66	56
67	559
68	346
69	2413
70	704
71	1453
72	179
73	279
74	1732
75	112
77	89
79	168
80	112
81	503
82	492
83	4246
84	860
85	279
87	2011
88	190
91	67
92	45
93	179
94	101
95	223
96	145
97	1397
98	704
99	134
100	112
101	514
102	67
107	168
108	145
109	749
110	782
111	4916
112	458
113	112
114	156
115	413
116	101
121	101
122	56
123	380
124	168
125	648
126	246
127	335
128	190
129	503
130	235
131	45
132	56
133	112
135	112
137	78
138	101
139	101
140	223
141	112
142	715
143	2581
144	313
145	45
149	67
150	112
151	112
152	346
153	112
154	78
155	112
156	67
157	168
158	145
166	56
167	45
168	313
169	939
170	112
171	112
184	67
185	279
186	56
199	45
200	112
