Mass Spectrum: 21H,23H-Porphine-2,7,12,17-tetrapropanoic acid, 3,8,13,18-tetramethyl-, tetramethyl ester
Formula: C40 H46 N4 O8
CAS: 25767-20-8
Molecular weight: 710
Origin: A.S.Moskovkin,I.M.Karnaukh, Russian Center on Disaster Medicine
m/z	RELATIVE INTENSITY
131	30
187	30
188	30
192	20
193	50
194	50
195	40
197	30
200	140
201	210
202	100
206	30
207	130
208	610
209	70
214	90
215	490
216	190
218	20
220	40
221	50
222	120
229	30
230	20
238	30
240	20
244	40
245	230
246	20
248	30
251	70
252	150
254	30
259	110
260	60
266	20
268	90
269	20
272	30
275	30
277	20
281	70
282	70
283	20
288	20
289	140
291	60
294	20
296	230
297	280
305	30
312	60
318	260
319	50
325	20
326	30
334	420
336	20
355	380
373	30
377	10
387	30
388	20
389	60
401	50
402	50
403	150
405	100
406	30
413	30
415	80
416	100
417	200
418	140
419	80
429	50
430	60
431	90
432	40
433	30
477	160
478	150
479	50
483	40
489	80
490	170
491	330
492	120
493	30
503	60
504	60
505	90
506	40
551	480
552	180
553	30
555	30
556	40
557	50
558	40
563	340
564	570
565	260
566	120
567	30
577	150
578	90
579	70
593	110
594	80
595	40
618	20
621	20
622	20
623	90
624	2101
625	910
626	210
629	240
630	90
631	240
637	1851
638	810
639	190
643	40
645	60
650	80
651	660
652	640
653	210
654	50
655	30
673	60
678	50
679	540
680	220
681	60
685	40
696	50
697	20
698	30
710	9999
711	4550
712	1010
713	150
714	20
