Mass Spectrum: Pyrazine, 2-methoxy-3-(1-methylethyl)-
Formula: C8 H12 N2 O
CAS: 25773-40-4
Molecular weight: 152
Origin: Japan AIST/NIMC Database- Spectrum MS-IW- 925
m/z	RELATIVE INTENSITY
14	10
15	189
26	90
27	399
28	439
29	149
30	30
31	10
37	30
38	80
39	499
40	649
41	929
42	399
43	459
44	20
45	10
50	40
51	90
52	339
53	349
54	359
55	179
56	429
57	30
58	20
60	10
61	20
63	10
64	20
65	80
66	159
67	259
68	659
69	239
70	30
76	10
77	10
78	259
79	329
80	459
81	529
82	209
83	169
84	10
92	129
93	299
94	489
95	819
96	129
97	30
105	939
106	119
107	389
108	139
109	1059
110	159
111	219
112	10
117	10
118	20
119	409
120	109
121	179
122	109
123	229
124	2629
125	199
126	10
133	40
134	10
135	60
136	30
137	9999
138	1169
139	80
151	739
152	4159
153	449
154	30
