Mass Spectrum: 2-Chloro-5-nitrobenzoyl chloride
Formula: C7 H3 Cl2 N O3
CAS: 25784-91-2
Molecular weight: 219
Origin: NIST Mass Spectrometry Data Center, 1994
m/z	RELATIVE INTENSITY
14	17
16	38
18	10
25	42
26	49
27	24
28	231
29	10
30	967
32	16
35	194
36	215
37	651
38	386
39	61
43	24
44	21
45	17
46	335
47	86
48	72
49	378
50	742
51	153
52	41
53	117
54	19
55	57
56	23
60	145
61	371
62	346
63	687
64	67
65	58
71	42
72	187
73	833
74	3011
75	3572
76	288
77	79
84	704
85	193
86	315
87	152
88	52
89	31
95	14
96	29
97	83
98	148
99	48
100	89
101	34
103	72
104	20
107	32
108	162
109	1262
110	2979
111	565
112	921
113	62
121	17
124	54
126	430
127	41
128	137
133	71
135	55
136	58
138	3661
139	381
140	1255
141	99
144	23
145	149
146	22
147	106
149	27
152	16
154	28
156	24
161	27
168	189
170	54
173	19
182	48
184	9999
185	880
186	3240
187	265
188	25
219	216
220	26
221	156
222	13
223	24
