Mass Spectrum: (2-Benzothiazolyl)-guanidine
Formula: C8 H8 N4 S
CAS: 2582-07-2
Molecular weight: 192
Origin: A.A.Kutin, Moscow, Russia
m/z	RELATIVE INTENSITY
33	19
34	28
35	4
36	36
37	173
38	306
39	662
40	404
41	127
43	4420
44	522
45	939
47	91
48	12
50	375
51	487
52	331
53	660
54	63
55	35
56	30
57	183
58	348
59	46
60	81
61	122
62	235
63	808
64	333
65	262
66	51
67	72
69	1776
70	531
71	173
72	59
73	133
74	135
75	158
76	125
77	127
78	582
79	145
81	271
82	575
83	76
84	125
85	136
86	18
88	304
90	418
91	285
92	72
93	158
94	124
96	4619
98	151
99	33
100	7
101	8
102	30
103	39
105	876
106	378
108	1151
109	202
110	82
111	15
112	8
113	3
115	14
116	50
118	571
120	117
121	184
122	896
123	2907
124	248
125	144
126	15
127	3
128	5
129	7
130	15
131	26
133	64
134	91
135	66
136	20
137	6
138	9
139	1
140	1
141	1
143	22
144	5
145	5
148	677
149	1514
150	5172
151	470
152	234
154	30
155	1
156	4
157	1
159	1
160	1
161	4
163	26
164	18
165	1
168	1
170	5
171	10
175	9393
176	1161
177	469
178	74
179	6
181	1
184	18
185	3
186	10
187	7
189	66
192	9999
193	913
194	447
195	41
196	4
