Mass Spectrum: Diazene, dimethyl-, 1-oxide
Formula: C2 H6 N2 O
CAS: 25843-45-2
Molecular weight: 74
Origin: RADIAN CORP
m/z	RELATIVE INTENSITY
15	270
27	540
28	2800
29	400
30	7310
31	110
42	2360
43	1380
44	1170
45	4750
46	870
57	9999
58	440
59	3780
73	120
74	3450
