Mass Spectrum: 3-Methyl,2-butenoic acid, isopropyl ester
Formula: C8 H14 O2
CAS: 25859-51-2
Molecular weight: 142
Origin: V.G.Zaikin, TIPS RAS, Moscow, Russia
m/z	RELATIVE INTENSITY
25	70
26	490
27	3383
28	380
29	2312
30	70
31	110
36	70
37	290
38	550
39	3653
40	691
41	2152
42	791
43	3213
44	881
45	250
49	120
50	470
51	581
52	510
53	1021
54	611
55	2923
56	390
57	280
58	110
59	911
60	60
67	210
68	30
69	120
72	90
78	60
79	410
82	2612
83	9999
84	731
85	1551
86	90
97	40
99	70
100	4754
101	611
113	70
127	450
142	270
