Mass Spectrum: 3-Heptyne
Formula: C7 H12
CAS: 2586-89-2
Molecular weight: 96
Origin: Japan AIST/NIMC Database- Spectrum MS-NW-4602
m/z	RELATIVE INTENSITY
14	20
15	169
25	10
26	279
27	2329
28	99
29	1389
30	30
36	10
37	179
38	439
39	4309
40	1149
41	8359
42	1049
43	309
44	50
45	20
48	10
49	80
50	629
51	1169
52	729
53	4879
54	2459
55	2649
56	499
57	50
58	10
60	20
61	119
62	259
63	519
64	109
65	2129
66	1109
67	9999
68	2919
69	239
70	20
71	20
73	30
74	99
75	40
76	20
77	919
78	179
79	3239
80	349
81	9259
82	639
83	80
84	10
85	20
86	20
87	10
89	10
91	169
92	30
93	119
94	40
95	689
96	6959
97	559
98	20
