Mass Spectrum: 1,3,5-Tribenzoylbenzene
Formula: C27 H18 O3
CAS: 25871-69-6
Molecular weight: 390
Origin: NIST Mass Spectrometry Data Center, 1994
m/z	RELATIVE INTENSITY
50	176
51	984
75	189
77	5203
78	352
105	9999
106	774
150	79
151	116
152	153
180	68
207	106
226	73
228	101
229	74
257	194
267	84
285	1754
286	383
287	58
311	54
313	2636
314	631
315	92
361	128
362	90
390	3364
391	965
392	162
