Mass Spectrum: 3.beta.,16.alpha.,17.alpha.-Tris(trimethylsiloxy)androst-5-ene
Formula: C28 H54 O3 Si3
CAS: 25876-85-1
Molecular weight: 522
Origin: STER ANDR TMSI SE30 01 2830 E M.HORN
m/z	RELATIVE INTENSITY
73	2500
74	200
75	1100
81	900
91	300
93	500
95	600
103	900
105	600
107	1000
108	300
109	400
117	1300
118	300
119	900
120	400
121	500
129	4800
130	800
131	2000
132	700
133	1000
134	200
135	200
141	200
142	400
143	2000
144	1100
145	1900
146	400
147	1700
148	300
149	300
155	600
156	1000
157	2100
158	1800
159	1500
160	300
161	200
168	1000
169	1700
170	700
171	1200
172	400
173	500
181	700
182	600
183	1200
184	600
185	1300
186	300
187	400
191	4100
192	800
193	400
195	800
196	1200
197	2400
198	1100
199	700
200	200
203	300
204	1000
205	1500
206	400
207	300
209	700
210	800
211	2600
212	1100
213	5600
214	1100
217	500
218	500
219	300
221	500
222	800
223	900
224	800
225	600
226	1000
227	300
232	300
233	400
234	500
235	600
236	300
237	5100
238	1500
239	9999
240	2100
247	200
248	200
249	200
251	300
252	6100
253	3600
254	700
274	200
301	800
302	500
303	2000
304	600
327	3500
328	1500
329	6500
330	1900
331	400
342	4500
343	1500
344	400
393	300
417	1500
418	600
419	400
432	6300
433	2400
434	800
507	300
522	1300
523	600
524	200
