Mass Spectrum: O,O-Diethyl S-eththionylmethyl phosphorothioate
Formula: C7 H17 O4 P S2
CAS: 2588-05-8
Molecular weight: 260
Origin: J. SHAW, BORRISTON RESEARCH, ROCKVILLE, MD, USA
m/z	RELATIVE INTENSITY
12	30
13	30
14	180
15	740
16	270
17	1581
18	5725
19	240
20	50
25	40
26	720
27	5375
28	1651
29	9999
30	410
31	420
32	160
33	100
34	130
35	310
36	20
37	10
38	10
39	100
41	490
42	150
43	780
44	250
45	2952
46	2192
47	2572
48	310
49	210
50	230
51	70
52	10
53	10
54	10
55	90
56	40
57	200
58	140
59	480
60	400
61	760
62	160
63	810
64	120
65	1411
66	40
67	20
68	10
69	40
70	30
71	40
72	40
73	170
74	380
75	2242
76	160
77	750
78	720
79	300
81	5475
82	440
83	210
84	20
85	20
87	10
88	10
89	20
91	1811
92	70
93	450
94	50
95	90
96	120
97	830
99	910
100	10
101	10
105	30
106	40
107	140
109	8928
110	290
111	1131
112	50
113	170
114	240
115	300
116	10
117	10
121	40
122	10
123	60
125	290
126	120
127	1631
128	70
129	100
130	10
135	10
137	2042
139	2222
140	120
141	130
142	70
143	90
149	40
153	570
155	1561
156	80
157	80
159	20
169	30
170	130
171	100
172	10
175	10
181	10
183	2522
184	160
185	120
186	10
187	20
197	40
199	20
201	150
202	10
203	10
214	10
215	50
230	10
243	10
244	10
261	30
