Mass Spectrum: Urea, N,N-dibutyl-N'-phenyl-
Formula: C15 H24 N2 O
CAS: 2589-21-1
Molecular weight: 248
m/z	RELATIVE INTENSITY
27	225
28	1400
29	9999
39	250
41	1150
43	225
44	725
51	150
55	200
57	5549
58	325
59	150
64	250
65	250
66	50
72	100
77	450
84	75
86	2525
87	225
91	250
92	225
93	550
100	775
119	675
120	225
128	150
129	225
156	1775
157	200
205	325
248	1325
249	250
