Mass Spectrum: 1-Piperidinecarboxaldehyde
Formula: C6 H11 N O
CAS: 2591-86-8
Molecular weight: 113
Origin: Japan AIST/NIMC Database- Spectrum MS-NW-8315
m/z	RELATIVE INTENSITY
14	30
15	499
16	10
17	30
18	289
26	279
27	1879
28	1429
29	4389
30	2449
31	50
32	40
36	10
37	30
38	90
39	1469
40	279
41	2829
42	4909
43	2329
44	2329
45	149
46	349
49	10
50	70
51	139
52	119
53	409
54	739
55	1769
56	6519
57	2579
58	849
59	589
60	40
65	50
66	20
67	549
68	699
69	559
70	1969
71	1369
72	1859
73	80
78	10
80	129
81	20
82	259
83	70
84	5259
85	1219
86	70
94	20
95	10
96	569
97	40
98	3499
99	209
100	10
111	20
112	3269
113	9999
114	1029
115	60
