Mass Spectrum: 4-(Anisylideneamino)-cinnamic acid
Formula: C17 H15 N O3
CAS: 25959-50-6
Molecular weight: 281
Origin: Japan AIST/NIMC Database- Spectrum MS-NW-6080
m/z	RELATIVE INTENSITY
12	50
13	40
14	50
15	109
16	80
17	10
18	30
24	10
26	99
27	109
28	70
29	10
30	10
31	10
37	30
38	90
39	199
40	20
41	70
42	20
43	109
44	109
45	129
46	10
47	30
49	10
50	259
51	339
52	90
53	40
54	30
55	40
56	20
57	60
58	20
59	10
61	20
62	70
63	249
64	139
65	629
66	50
67	10
68	10
69	30
70	20
71	30
73	10
74	80
75	239
76	259
77	689
78	189
79	90
80	20
81	20
82	20
83	40
84	20
85	30
86	20
87	30
88	60
89	149
90	139
91	719
92	169
93	90
94	40
95	80
96	50
97	30
98	20
99	20
100	20
101	489
102	379
103	259
104	60
105	90
106	40
107	70
108	189
109	50
110	50
111	40
112	20
113	30
114	20
115	60
116	50
117	149
118	139
119	119
120	30
121	119
122	30
123	20
125	20
126	90
127	50
128	149
129	149
130	40
131	40
132	50
133	119
134	129
135	60
136	30
137	20
138	20
139	70
140	219
141	60
142	10
143	10
144	10
145	30
146	129
147	219
148	30
149	30
150	20
151	30
152	50
153	30
154	20
155	10
156	109
157	20
159	10
161	40
162	40
163	249
164	60
165	119
166	80
167	99
168	30
169	20
172	30
173	10
174	139
175	30
176	40
177	40
178	50
179	30
180	30
181	30
182	10
183	10
186	20
187	10
188	10
189	20
190	90
191	229
192	199
193	129
194	60
195	30
196	30
197	20
198	10
201	10
202	30
203	40
204	50
205	30
206	30
207	10
208	20
209	40
210	70
211	50
212	20
213	10
214	10
218	10
219	80
220	239
221	99
222	50
223	20
224	70
225	50
226	20
227	20
230	10
232	20
233	10
234	199
235	169
236	509
237	839
238	199
239	50
240	10
247	10
248	50
249	60
250	50
251	30
252	40
253	20
254	20
255	20
261	20
262	179
263	259
264	169
265	149
266	80
267	20
276	10
277	10
278	30
279	119
280	4749
281	9999
282	1999
283	289
284	30
