Mass Spectrum: .alpha.-Bromo-.gamma.-valerolactone
Formula: C5 H7 Br O2
CAS: 25966-39-6
Molecular weight: 178
Origin: Japan AIST/NIMC Database- Spectrum MS-NW-5842
m/z	RELATIVE INTENSITY
13	20
14	50
15	179
16	10
18	10
25	40
26	399
27	1979
28	179
29	1129
30	30
32	10
36	10
37	50
38	80
39	829
40	50
41	279
42	90
43	1099
44	60
45	30
49	30
50	80
51	80
52	30
53	359
54	109
55	9999
56	469
57	20
66	10
67	50
68	40
69	20
70	10
71	10
79	60
80	60
81	70
82	70
83	70
84	50
85	70
92	20
93	30
94	10
95	20
98	30
99	20
105	50
106	139
107	339
108	139
109	299
110	10
117	10
119	219
120	20
121	219
122	20
133	99
134	99
135	189
136	99
137	119
163	80
165	80
177	30
178	10
179	20
180	10
