Mass Spectrum: Formamide, N-(2-chlorophenyl)-
Formula: C7 H6 Cl N O
CAS: 2596-93-2
Molecular weight: 155
Origin: Japan AIST/NIMC Database- Spectrum MS-IW-4965
m/z	RELATIVE INTENSITY
26	40
27	60
28	349
29	279
30	10
31	10
32	30
35	10
36	50
37	249
38	429
39	829
40	119
41	319
42	90
43	10
44	40
45	109
46	10
47	30
48	10
49	119
50	319
51	269
52	529
53	40
54	50
60	40
61	209
62	399
63	1269
64	1469
65	2469
66	279
67	70
72	80
73	659
74	249
75	579
76	119
77	80
78	20
84	50
85	60
86	50
87	50
88	90
89	60
90	479
91	1529
92	3199
93	349
94	10
96	10
97	40
98	40
99	1129
100	1199
101	469
102	419
103	40
110	30
111	109
112	30
113	30
118	10
119	70
120	9999
121	849
122	50
124	10
125	70
126	269
127	8059
128	689
129	2599
130	199
137	30
138	20
139	10
153	40
154	20
155	4549
156	409
157	1459
158	129
