Mass Spectrum: Cyclobutane, ethenyl-
Formula: C6 H10
CAS: 2597-49-1
Molecular weight: 82
Origin: D.HENNEBERG, MAX-PLANCK INSTITUTE, MULHEIM, WEST GERMANY
m/z	RELATIVE INTENSITY
26	101
27	1174
28	239
35	8
37	74
38	198
39	2753
40	420
41	3327
42	254
43	88
45	86
49	45
50	441
51	710
52	365
53	1027
54	7432
55	504
56	40
59	7
60	5
62	13
63	113
65	371
66	176
67	9999
68	421
69	7
73	20
74	75
75	56
76	14
77	581
78	259
79	658
80	128
81	982
82	3644
83	215
