Mass Spectrum: 1-Hydroxychlordene
Formula: C10 H6 Cl6 O
CAS: 2597-11-7
Molecular weight: 352
Origin: NIST Mass Spectrometry Data Center, 1998.
m/z	RELATIVE INTENSITY
15	10
26	100
27	740
29	530
30	40
31	170
35	60
36	70
37	130
38	220
39	1580
40	130
41	80
42	140
43	130
44	20
47	120
48	20
49	200
50	460
51	690
52	240
53	1990
54	1000
55	1120
56	170
57	90
58	10
59	10
60	180
61	460
62	450
63	680
64	150
65	560
66	100
67	130
68	280
69	50
70	10
71	120
72	200
73	850
74	690
75	610
76	80
77	150
78	70
79	100
80	130
81	9999
82	9889
83	770
84	450
85	690
86	570
87	440
88	120
89	500
90	110
91	760
92	180
93	210
94	140
95	330
96	420
97	750
98	520
99	470
100	100
101	150
102	170
103	60
104	120
105	80
106	430
107	580
108	670
109	880
110	480
111	430
112	100
113	600
114	260
115	210
116	390
117	810
118	300
119	610
120	450
121	560
122	250
123	590
124	280
125	210
126	60
127	50
128	50
129	40
130	390
131	320
132	450
133	530
134	200
135	280
136	240
137	100
138	70
139	30
140	30
141	780
142	300
143	890
144	180
145	430
146	130
147	880
148	570
149	870
150	250
151	220
152	40
153	50
154	40
155	170
156	70
157	340
158	130
159	300
160	230
161	100
162	70
163	20
164	20
165	440
166	50
167	520
168	90
169	300
170	200
171	160
172	130
173	50
174	30
175	20
176	100
177	80
178	100
179	150
180	120
181	400
182	510
183	2190
184	520
185	1310
186	220
187	210
188	60
189	10
190	50
191	310
192	90
193	390
194	260
195	230
196	160
197	80
198	30
199	80
200	50
201	190
202	60
203	220
204	160
205	160
206	140
207	80
208	50
209	30
210	90
211	110
212	260
213	120
214	460
215	200
216	570
217	4170
218	980
219	3950
220	720
221	1260
222	230
223	160
224	30
225	60
226	40
227	150
228	100
229	150
230	140
231	90
232	90
233	40
234	30
235	880
236	600
237	1390
238	930
239	970
240	620
241	370
242	220
243	100
244	50
245	240
246	440
247	310
248	490
249	670
250	300
251	940
252	210
253	1150
254	190
255	820
256	120
257	340
258	40
259	70
261	80
262	10
263	120
264	120
265	100
266	150
267	50
268	70
269	20
270	220
271	20
272	400
273	20
274	330
275	30
276	150
277	30
278	40
279	20
280	230
281	640
282	370
283	780
284	240
285	390
286	80
287	110
288	80
289	50
290	140
291	50
292	80
293	30
294	30
295	10
299	10
301	20
302	10
303	10
316	300
317	990
318	600
319	1610
320	490
321	1040
322	200
323	330
324	50
325	60
