Mass Spectrum: 8-Quinolinol, acetate
Formula: C11 H9 N O2
CAS: 2598-29-0
Molecular weight: 187
Origin: Japan AIST/NIMC Database- Spectrum MS-NW- 249
m/z	RELATIVE INTENSITY
14	80
15	459
26	50
27	80
28	60
37	99
38	229
39	849
40	80
41	40
42	80
43	1179
44	30
49	30
50	309
51	319
52	119
53	40
61	149
62	469
63	1249
64	359
65	119
66	30
74	129
75	149
76	129
77	119
78	80
85	30
86	60
87	139
88	209
89	1979
90	1269
91	149
101	60
102	70
114	80
115	119
116	1099
117	4809
118	499
127	40
128	70
129	30
144	139
145	9999
146	1059
147	60
187	109
188	50
