Mass Spectrum: Phenothrin
Formula: C23 H26 O3
CAS: 26002-80-2
Molecular weight: 350
Origin: NIST Mass Spectrometry Data Center, 1990.
m/z	RELATIVE INTENSITY
14	13
15	24
17	10
18	28
25	6
27	324
28	348
29	257
30	13
31	18
32	27
37	7
38	55
39	493
40	134
41	1284
42	113
43	1406
44	66
45	12
50	121
51	492
52	113
53	416
54	7
55	696
56	50
57	285
58	13
59	29
61	5
62	29
63	176
64	105
65	357
66	90
67	511
68	65
69	384
70	32
71	49
73	8
74	24
75	39
76	107
77	1030
78	262
79	601
80	8
81	2392
82	201
83	208
84	21
85	58
86	6
87	11
88	6
89	602
90	359
91	516
92	87
93	381
94	108
95	429
96	60
97	69
98	12
99	8
101	12
102	18
103	35
105	148
106	53
107	381
108	133
109	190
110	27
111	41
113	9
115	420
116	76
117	11
118	10
119	20
121	446
123	9999
124	1066
125	141
126	38
127	225
128	310
129	277
130	34
131	27
135	12
136	11
137	13
139	219
140	48
141	166
142	48
143	15
144	26
145	8
146	6
147	5
149	108
150	24
151	113
152	273
153	522
154	302
155	279
156	63
157	30
158	14
165	374
166	101
167	226
168	557
169	130
170	30
171	22
181	417
183	5541
184	1196
185	131
186	11
195	12
196	16
197	47
198	41
199	16
200	20
209	8
221	11
223	24
224	11
235	21
236	10
237	9
240	7
248	7
249	35
250	106
251	97
252	17
253	7
261	9
262	6
263	15
264	9
265	11
289	16
291	7
294	43
295	21
305	9
306	11
307	55
308	18
333	5
335	32
350	867
351	219
352	30
