Mass Spectrum: Carbamic acid, phenyl-, methyl ester
Formula: C8 H9 N O2
CAS: 2603-10-3
Molecular weight: 151
m/z	RELATIVE INTENSITY
15	1111
26	230
27	287
28	172
29	172
30	134
38	249
39	728
40	153
41	115
43	134
44	172
50	192
51	460
52	230
59	958
62	115
63	345
64	479
65	2030
66	230
77	1149
78	268
79	441
80	153
90	115
91	555
92	2069
93	479
94	441
105	115
106	4310
107	460
108	115
119	2816
120	824
121	115
135	287
150	192
151	9999
152	900
153	115
