Mass Spectrum: Hept-3-yn-2-one
Formula: C7 H10 O
CAS: 26059-43-8
Molecular weight: 110
Origin: A.Pleshkova, Nesmeyanov Inst.Org.Elem.Cpds, Moscow
m/z	RELATIVE INTENSITY
15	1301
16	20
26	601
27	2702
28	400
29	1401
30	30
37	701
38	1301
39	3904
40	500
41	3904
42	701
43	4904
44	170
49	300
50	1101
51	1201
52	500
53	3503
54	200
61	400
62	500
63	601
65	1702
66	1101
67	3103
68	300
77	300
79	500
82	300
95	9999
96	901
97	10
109	400
110	100
