Mass Spectrum: 2H-1-Benzopyran-2-one, 7-(ethylamino)-4,6-dimethyl-
Formula: C13 H15 N O2
CAS: 26078-25-1
Molecular weight: 217
Origin: Japan AIST/NIMC Database- Spectrum MS-NW-9512
m/z	RELATIVE INTENSITY
27	70
28	129
29	50
30	20
32	10
38	10
39	169
40	30
41	70
42	40
43	30
44	40
50	40
51	139
52	60
53	60
54	30
55	20
57	30
58	60
59	10
62	20
63	90
64	40
65	189
66	40
67	99
68	99
69	30
70	10
71	60
72	90
73	10
74	20
75	30
76	40
77	219
78	60
79	90
80	30
81	10
82	10
85	239
86	949
87	219
88	10
89	80
90	40
91	249
92	40
93	179
94	219
95	30
100	10
101	30
102	50
103	109
104	50
105	80
106	20
107	10
108	209
109	30
114	10
115	329
116	109
117	279
118	80
119	60
120	20
121	10
127	30
128	40
129	30
130	139
131	139
132	90
133	50
134	20
135	10
141	10
142	20
143	50
144	189
145	359
146	269
147	40
148	10
150	30
155	10
156	10
157	20
158	60
159	60
160	399
161	90
162	10
170	10
171	10
172	119
173	129
174	2719
175	359
176	30
178	10
186	10
187	30
188	529
189	799
190	99
191	10
200	149
201	80
202	9999
203	1379
204	129
205	10
214	10
215	80
216	719
217	9299
218	1509
219	149
220	10
