Mass Spectrum: Propanoyl chloride, 2,2-dichloro-
Formula: C3 H3 Cl3 O
CAS: 26073-26-7
Molecular weight: 160
m/z	RELATIVE INTENSITY
25	170
26	591
27	981
28	100
29	130
35	280
36	550
37	140
38	220
43	190
44	130
47	160
48	80
49	110
60	200
61	2813
62	751
63	2252
64	280
65	450
77	110
82	110
83	280
85	180
89	100
90	100
91	320
93	100
97	9999
98	290
99	6536
100	160
101	1021
125	100
