Mass Spectrum: 2- Bromopropionic acid, decyl ester
Formula: C13 H25 Br O2
CAS: 26072-74-2
Molecular weight: 292
Origin: Zaikin V.G., TIPS RAS, Moscow, Russia
m/z	RELATIVE INTENSITY
25	30
26	310
27	2212
28	20
29	2582
30	60
31	140
35	40
36	270
37	30
38	130
39	1081
40	280
41	6226
42	2682
43	9729
44	460
45	160
50	30
51	60
52	50
53	500
54	991
55	8808
56	8498
57	9999
58	440
65	60
66	90
67	1171
68	2242
69	6366
70	7457
71	4044
72	250
73	370
74	1561
75	470
77	60
79	130
80	170
81	530
82	2793
83	7647
84	4484
85	3433
86	250
87	30
95	250
96	981
97	5255
98	2783
99	480
100	60
101	30
106	60
107	2933
108	200
109	2953
110	460
111	2963
112	4734
113	450
125	90
134	90
135	1581
136	140
137	1551
138	210
139	360
140	3853
141	470
150	30
152	200
153	3193
154	300
155	3093
156	100
157	120
165	50
167	30
179	40
185	631
186	70
193	80
195	60
219	40
221	40
