Mass Spectrum: Iprobenfos
Formula: C13 H21 O3 P S
CAS: 26087-47-8
Molecular weight: 288
Origin: Richard Turcotte. Direction des laboratoires d'expertises et d'analyses alimentaires, Quebec, Canada.
m/z	RELATIVE INTENSITY
41	1141
42	400
43	1311
44	20
45	831
46	30
47	80
50	60
51	180
52	50
53	20
58	30
59	380
60	30
61	20
62	40
63	190
64	50
65	961
66	50
69	40
71	20
74	20
75	30
76	20
77	360
78	130
79	220
81	60
82	120
83	40
89	270
90	120
91	9999
92	871
93	50
97	120
105	60
106	30
107	921
108	100
109	60
113	90
114	50
115	220
117	110
121	530
122	1441
123	1591
124	370
125	80
131	40
132	90
133	70
139	20
149	20
151	30
155	130
165	40
166	40
171	40
186	30
187	200
188	40
203	851
204	5335
205	470
206	280
207	30
231	70
245	150
246	681
247	90
248	40
288	530
289	80
290	40
