Mass Spectrum: 2,6-Dimethyl-2-trans-6-octadiene
Formula: C10 H18
CAS: 2609-23-6
Molecular weight: 138
Origin: F. JUTTNER, INST. CHEM., UNIV. TUBINGEN, TUBINGEN, W. GERMAN
m/z	RELATIVE INTENSITY
27	700
29	500
39	800
41	6600
42	300
43	200
51	200
52	100
53	500
54	100
55	500
56	100
57	100
65	100
67	700
68	400
69	9999
70	1500
77	100
79	100
81	300
82	200
91	100
94	300
95	2500
96	200
109	100
123	800
124	100
138	300
