Mass Spectrum: 2H-Pyran, tetrahydro-3-methyl-
Formula: C6 H12 O
CAS: 26093-63-0
Molecular weight: 100
Origin: Japan AIST/NIMC Database- Spectrum MS-NW-8500
m/z	RELATIVE INTENSITY
14	10
15	169
16	10
17	10
18	50
19	10
26	159
27	1449
28	479
29	1649
30	80
31	389
32	10
36	10
37	50
38	129
39	1849
40	439
41	3239
42	9999
43	1609
44	389
45	4529
46	109
47	10
50	70
51	109
52	40
53	369
54	349
55	5569
56	389
57	609
58	309
59	70
60	10
61	10
62	10
63	20
65	40
66	20
67	319
68	3909
69	499
70	1359
71	309
72	139
73	109
74	10
79	30
81	219
82	60
83	50
84	20
85	169
86	20
87	20
99	579
100	2479
101	239
102	20
