Mass Spectrum: 2H-Pyran-2-one, tetrahydro-6,6-dimethyl-
Formula: C7 H12 O2
CAS: 2610-95-9
Molecular weight: 128
m/z	RELATIVE INTENSITY
37	511
38	1022
39	7466
41	9021
42	6888
43	9999
45	933
50	311
51	400
52	178
53	600
54	222
55	1711
56	5777
57	444
59	222
60	200
67	311
68	200
69	400
70	356
84	133
85	444
113	58
128	133
