Mass Spectrum: Heptane, 2,4,6-trimethyl-
Formula: C10 H22
CAS: 2613-61-8
Molecular weight: 142
Origin: NIST Mass Spectrometry Data Center, 1990.
m/z	RELATIVE INTENSITY
15	98
27	1330
28	441
29	1196
39	1797
40	521
41	5479
42	1652
43	9999
44	373
51	107
52	69
53	412
54	130
55	1315
56	2551
57	7604
58	335
65	82
67	185
69	1450
70	874
71	1716
72	94
79	59
83	270
84	2530
85	7984
86	538
98	537
99	1280
100	89
127	109
142	272
