Mass Spectrum: 1H-Indene, 2,3-dihydro-1,1,3-trimethyl-
Formula: C12 H16
CAS: 2613-76-5
Molecular weight: 160
m/z	RELATIVE INTENSITY
15	20
18	10
26	10
27	100
29	40
37	10
38	20
39	240
40	20
41	200
42	10
43	40
44	10
50	70
51	270
52	50
53	80
54	10
55	20
56	10
57	30
58	40
61	10
62	40
63	170
64	330
65	300
66	20
67	110
68	10
69	20
70	50
71	210
72	30
73	20
74	40
75	60
76	60
77	330
78	100
79	80
80	10
81	10
85	10
86	10
87	20
88	10
89	80
90	10
91	921
92	80
93	10
98	10
99	10
100	10
101	30
102	100
103	220
104	100
105	450
106	60
107	10
110	10
111	10
113	10
114	10
115	731
116	190
117	1061
118	120
119	110
120	20
125	10
126	40
127	270
128	791
129	671
130	561
131	120
132	40
133	10
138	30
139	10
140	110
141	40
142	220
143	80
144	250
145	9999
146	1191
147	70
148	10
152	10
153	10
157	10
158	10
159	30
160	1872
161	40
162	10
