Mass Spectrum: Cyclopentane, 1-ethyl-3-methyl-, trans-
Formula: C8 H16
CAS: 2613-65-2
Molecular weight: 112
m/z	RELATIVE INTENSITY
26	270
27	3533
28	961
29	2853
30	70
37	130
38	160
39	2973
40	561
41	6976
42	3673
43	1451
44	50
45	20
46	20
49	20
50	130
51	300
52	140
53	811
54	500
55	9999
56	4894
57	1381
58	70
63	70
65	150
66	90
67	1431
68	340
69	1511
70	2953
71	420
72	20
77	130
78	20
79	130
80	30
81	561
82	3583
83	9118
84	3123
85	200
91	30
92	10
93	20
95	110
96	50
97	601
98	50
110	60
111	80
112	871
113	80
