Mass Spectrum: Pyrrolidine, 2-ethyl-1-methyl-
Formula: C7 H15 N
CAS: 26158-82-7
Molecular weight: 113
m/z	RELATIVE INTENSITY
55	400
57	250
70	851
82	1001
83	100
84	9999
85	801
94	50
95	50
98	120
109	140
110	250
111	150
112	240
113	200
