Mass Spectrum: Naproxen methyl ester
Formula: C15 H16 O3
CAS: 26159-35-3
Molecular weight: 244
Origin: J. D. HENION, CORNELL UNIVERSITY, ITHACA, NY, USA
m/z	RELATIVE INTENSITY
59	210
63	210
76	140
89	100
113	110
115	1110
116	130
126	150
127	230
128	230
129	150
139	340
141	1370
142	560
143	110
151	120
152	370
153	830
154	710
155	370
156	110
157	100
158	120
169	460
170	1390
171	230
183	160
185	9999
186	1330
187	110
201	100
244	2570
245	370
