Mass Spectrum: Cholan-24-oic acid, 3,6,7-tris(acetyloxy)-, methyl ester, (3.alpha.,5.beta.,6.alpha.,7.alpha.)-
Formula: C31 H48 O8
CAS: 2616-70-8
Molecular weight: 548
Origin: P.A. SZCZEPANIK, ARGONNE NATIONAL LABORATORY, USA
m/z	RELATIVE INTENSITY
100	110
101	150
102	110
103	310
104	200
105	4380
106	990
107	4010
108	1210
109	2880
110	610
111	710
112	450
113	290
114	70
115	2140
116	430
117	1560
119	2880
120	960
121	3090
122	1050
123	1570
124	550
125	680
126	220
127	330
128	760
129	1390
130	2940
131	980
132	2820
133	1040
135	2610
137	1280
138	290
139	300
140	120
141	1320
142	810
143	2720
144	1440
145	3340
146	2250
147	2090
148	610
149	1240
150	360
151	300
152	310
153	420
154	690
155	1340
156	890
157	3370
158	1790
159	7140
160	1610
161	2110
162	440
163	800
164	160
165	530
166	240
167	470
168	270
169	1490
170	590
171	2290
172	1080
173	1110
174	430
175	1090
176	460
177	680
178	270
179	360
180	210
181	490
182	280
183	1390
184	1320
185	2270
186	590
187	890
188	360
189	560
190	240
191	250
192	100
193	310
194	170
195	750
196	350
197	1740
198	840
199	1860
200	450
201	740
202	360
203	270
204	60
205	120
207	380
208	440
209	870
210	290
211	3390
212	1440
213	1530
214	690
215	1120
216	330
217	410
218	140
219	150
221	280
222	190
223	340
225	970
226	1860
227	1290
228	450
229	1210
230	1100
231	590
232	190
233	100
234	60
235	180
237	330
239	1260
240	470
241	410
242	580
243	600
244	220
246	240
249	640
250	190
251	460
253	5210
254	1230
255	400
256	150
257	200
258	160
259	200
260	140
261	220
263	180
264	90
265	190
267	170
268	100
269	240
271	530
272	330
273	270
274	190
275	110
277	290
280	120
281	710
282	250
283	150
286	350
288	90
290	390
291	180
292	230
294	290
295	130
299	350
300	160
301	120
303	220
304	90
305	80
306	60
308	80
311	200
313	2200
314	1160
315	280
316	80
317	80
321	380
323	60
327	340
328	130
329	130
332	170
333	60
335	120
337	520
339	350
340	190
341	150
343	100
344	40
345	50
348	50
351	90
353	1960
354	790
356	180
358	110
359	80
363	50
365	30
368	3100
369	1520
371	1060
373	200
374	50
379	50
382	70
386	9999
392	20
397	340
398	150
400	110
401	40
403	40
413	180
415	60
426	30
428	970
431	40
446	210
488	20
