Mass Spectrum: Benzeneacetic acid, .alpha.-methoxy-, (S)-
Formula: C9 H10 O3
CAS: 26164-26-1
Molecular weight: 166
Origin: NIST Mass Spectrometry Data Center, 1994
m/z	RELATIVE INTENSITY
15	283
38	329
39	932
45	283
50	887
51	1963
52	465
62	435
63	950
64	369
65	411
76	232
77	6288
78	899
79	996
89	734
90	620
91	3496
92	359
105	1819
106	230
107	520
121	9999
122	861
