Mass Spectrum: (S)-(+)-2-Pentanol
Formula: C5 H12 O
CAS: 26184-62-3
Molecular weight: 88
Origin: NIST Mass Spectrometry Data Center
m/z	RELATIVE INTENSITY
14	50
15	450
16	20
19	260
26	180
27	1311
28	340
29	1041
31	611
32	30
35	10
37	50
38	120
39	761
40	100
41	751
42	360
43	1822
44	1001
45	9999
46	200
47	30
50	20
51	40
52	10
53	60
55	1732
56	80
57	140
58	40
67	10
69	30
70	180
71	60
73	741
74	10
87	40
