Mass Spectrum: Phenoxaselenin
Formula: C12 H8 O Se
CAS: 262-22-6
Molecular weight: 248
m/z	RELATIVE INTENSITY
50	881
64	1131
113	380
114	250
116	631
139	3503
168	9999
169	1631
215	130
216	130
217	250
218	130
219	250
220	130
221	130
243	250
244	1001
245	1001
246	2252
247	380
248	5635
249	631
250	1001
251	250
