Mass Spectrum: Piperonylamine
Formula: C8 H9 N O2
CAS: 2620-50-0
Molecular weight: 151
Origin: Japan AIST/NIMC Database- Spectrum MS-NW-5670
m/z	RELATIVE INTENSITY
14	60
15	70
16	40
25	10
26	80
27	189
28	1299
29	269
30	2129
31	80
32	80
33	70
36	20
37	189
38	369
39	1089
40	219
41	209
42	149
43	80
44	109
45	119
46	299
47	30
48	10
49	70
50	499
51	1109
52	289
53	359
54	309
55	109
56	20
57	10
59	10
60	60
61	199
62	489
63	1079
64	479
65	2999
66	989
67	319
68	60
69	20
70	10
71	10
73	99
74	579
75	199
76	329
77	1969
78	329
79	339
80	159
81	50
82	20
83	20
85	10
86	10
87	10
88	30
89	50
90	159
91	169
92	389
93	3559
94	409
95	1019
96	80
97	20
98	10
100	10
101	20
102	20
103	30
104	149
105	669
106	119
107	40
108	50
118	99
119	40
120	359
121	4299
122	899
123	779
124	80
125	10
133	60
134	249
135	4059
136	429
137	40
146	229
147	159
148	399
149	289
150	9399
151	9999
152	989
153	90
