Mass Spectrum: N-.alpha.-Acetylglycinamide
Formula: C4 H8 N2 O2
CAS: 2620-63-5
Molecular weight: 116
Origin: Japan AIST/NIMC Database- Spectrum MS-IW- 32
m/z	RELATIVE INTENSITY
13	10
14	119
15	719
16	80
17	20
18	99
26	30
27	99
28	1169
29	339
30	8169
31	989
32	129
38	10
39	20
40	60
41	119
42	659
43	6879
44	1369
45	289
46	30
51	10
52	10
53	10
54	70
55	80
56	369
57	169
58	499
59	50
71	30
72	4199
73	9999
74	519
75	50
83	10
87	10
98	20
99	40
100	90
101	40
116	40
117	119
118	20
