Mass Spectrum: Carbamic acid, methylphenyl-, ethyl ester
Formula: C10 H13 N O2
CAS: 2621-79-6
Molecular weight: 179
Origin: Chuck Anderson, Aldrich Chemical Co.
m/z	RELATIVE INTENSITY
15	188
26	129
27	1277
28	372
29	5955
30	489
36	28
37	107
38	386
39	1681
40	149
41	151
42	597
43	132
44	138
45	47
50	544
51	2095
52	392
53	143
54	75
55	50
56	49
58	99
61	32
62	113
63	574
64	519
65	735
66	1157
67	89
74	144
75	111
76	167
77	6469
78	1314
79	3492
80	268
81	40
86	59
90	167
91	643
92	190
93	238
94	606
95	44
103	137
104	1231
105	873
106	9999
107	3271
108	252
118	197
119	284
120	4962
121	411
122	54
134	1350
135	156
150	158
151	863
152	74
179	7278
180	799
181	78
