Mass Spectrum: 1H-Indole, 2,3-dihydro-1,2-dimethyl-
Formula: C10 H13 N
CAS: 26216-93-3
Molecular weight: 147
m/z	RELATIVE INTENSITY
51	503
65	604
77	839
78	235
89	336
90	470
91	973
101	336
102	537
103	201
104	302
115	470
116	235
117	2953
118	503
130	1443
131	772
132	9999
133	1174
146	805
147	3792
148	503
