Mass Spectrum: 4-Tridecanol
Formula: C13 H28 O
CAS: 26215-92-9
Molecular weight: 200
Origin: NIST Mass Spectrometry Data Center, 1990.
m/z	RELATIVE INTENSITY
27	1548
28	851
29	2471
31	740
39	904
41	4469
42	1051
43	4679
44	661
45	334
53	334
55	9999
56	1131
57	3351
58	578
67	498
69	3424
70	748
71	1286
72	1221
73	7898
74	357
81	451
83	5720
84	602
85	292
86	377
95	194
97	2519
98	303
99	154
111	297
155	213
157	1643
158	201
182	325
