Mass Spectrum: Ethofumesate
Formula: C13 H18 O5 S
CAS: 26225-79-6
Molecular weight: 286
Origin: CATALOGUE OF MASS SPECTRA OF PESTICIDES, APRIL, 1975; J. FREUDENTHAL & L. G. GRAMBERG, NAT'L INST. OF PUBLIC HEALTH, THE NETHERLANDS
m/z	RELATIVE INTENSITY
27	419
28	220
29	871
39	295
40	189
41	405
43	1927
45	216
53	397
54	368
55	543
64	155
65	349
66	127
67	239
77	965
78	306
79	1192
80	191
81	140
82	196
91	785
92	181
94	198
95	102
99	138
103	395
104	167
105	1511
106	283
107	435
108	234
109	227
111	164
115	578
118	131
121	334
122	440
123	462
126	255
133	2576
134	729
135	277
136	152
137	3764
138	262
143	280
145	133
147	286
149	533
150	393
151	677
152	106
161	7522
162	1128
163	532
164	134
165	150
166	427
170	138
172	127
179	3758
180	436
195	126
207	9999
208	1421
209	189
221	109
241	711
242	105
267	545
268	133
269	339
271	147
286	2784
287	560
288	142
