Mass Spectrum: Phosphine, tricyclohexyl-
Formula: C18 H33 P
CAS: 2622-14-2
Molecular weight: 280
Origin: Japan AIST/NIMC Database- Spectrum MS-IW-4761
m/z	RELATIVE INTENSITY
26	10
27	109
28	109
29	319
35	80
39	229
40	20
41	1919
42	80
43	149
45	30
47	60
48	20
49	109
51	10
52	10
53	309
54	199
55	3399
56	159
57	90
58	30
59	139
60	20
61	249
62	30
63	30
65	30
66	50
67	649
68	60
69	99
71	159
72	30
73	459
74	129
75	90
76	40
77	149
78	50
79	479
80	159
81	2049
82	1059
83	3439
84	229
85	159
86	60
87	419
88	269
89	70
90	30
93	20
94	10
95	60
97	40
99	80
100	70
101	119
102	70
103	20
104	50
109	20
111	20
113	179
114	289
115	2379
116	3239
117	9999
118	689
119	30
127	40
128	90
129	109
130	169
131	70
132	619
133	549
134	30
141	90
142	149
143	979
144	149
145	20
148	229
149	159
155	139
156	369
157	349
158	40
159	199
160	20
164	20
165	30
169	189
170	99
171	30
172	20
173	40
183	869
184	99
185	20
196	60
197	719
198	7979
199	2819
200	299
201	10
213	60
214	369
215	309
216	30
223	30
224	20
225	879
226	149
229	20
230	99
231	109
237	189
238	40
239	80
251	99
252	20
265	249
266	40
279	409
280	1709
281	319
282	30
