Mass Spectrum: 1H-Benzimidazole, 1,2-diphenyl-
Formula: C19 H14 N2
CAS: 2622-67-5
Molecular weight: 270
m/z	RELATIVE INTENSITY
50	200
51	1101
63	250
77	1501
135	1001
136	200
139	400
140	300
166	400
267	300
268	1201
269	9999
270	8908
271	1702
272	100
