Mass Spectrum: Periciazine
Formula: C21 H23 N3 O S
CAS: 2622-26-6
Molecular weight: 365
Origin: AAFS Toxicology Section MS DB Committee, U. Alberta, Canada
m/z	RELATIVE INTENSITY
40	50
41	820
42	2141
43	1561
44	2992
45	450
46	40
50	130
51	290
52	90
53	270
54	270
55	830
56	1541
57	690
58	200
59	80
60	180
61	40
62	60
63	150
64	70
65	180
67	200
68	320
69	800
70	980
71	2201
72	270
73	200
74	60
75	100
76	100
77	600
78	170
79	150
80	90
81	190
82	410
83	330
84	340
85	150
86	140
87	110
88	50
89	180
90	110
91	350
92	50
93	90
94	90
95	170
96	450
97	290
98	260
99	220
100	1101
101	170
102	130
103	130
104	90
105	380
107	60
108	130
109	100
110	110
111	70
112	400
113	260
114	9999
115	1030
116	130
117	290
118	160
119	60
121	70
122	80
123	40
124	120
125	90
126	380
127	130
128	710
129	140
130	60
131	40
133	90
135	40
136	50
138	60
139	100
140	250
141	230
142	2031
143	190
144	50
145	210
147	50
149	190
151	190
153	140
160	70
163	40
164	150
165	130
166	50
169	40
170	40
173	60
176	70
177	280
178	140
179	420
180	80
182	50
189	60
190	180
191	190
192	140
193	40
194	40
196	290
197	40
203	120
204	160
205	970
206	180
208	90
210	70
216	40
218	130
219	50
220	90
221	260
222	1741
224	500
225	140
229	70
231	60
234	90
236	430
237	210
239	60
248	150
249	290
250	260
251	190
252	40
263	1161
264	550
266	40
365	2222
366	550
367	160
