Mass Spectrum: Trifluomeprazine
Formula: C19 H21 F3 N2 S
CAS: 2622-37-9
Molecular weight: 366
Origin: Finnigan MAT: Toxicological Library (LIBR-TX)
m/z	RELATIVE INTENSITY
42	191
44	182
54	87
58	9999
59	377
69	94
84	205
86	93
100	289
248	196
266	198
280	103
320	100
321	100
366	505
367	99
