Mass Spectrum: Carfenazine
Formula: C24 H31 N3 O2 S
CAS: 2622-30-2
Molecular weight: 425
Origin: MI-0093
m/z	RELATIVE INTENSITY
38	390
39	2943
40	4794
41	4894
42	1692
43	891
51	290
52	390
53	2793
54	3393
55	5495
56	2692
57	390
58	290
65	290
66	190
67	490
68	641
69	1591
70	5095
71	3293
72	891
73	591
74	691
75	290
76	190
77	641
78	190
80	290
81	691
82	891
83	1391
84	1892
85	1591
86	490
87	190
88	540
89	390
95	390
96	891
97	2292
98	2392
99	1591
100	1942
101	290
105	1241
106	390
107	440
108	340
109	390
110	390
111	1391
112	741
113	2993
114	791
115	591
116	190
121	390
122	240
123	641
124	490
125	1541
126	741
127	891
128	691
129	490
133	390
134	490
135	490
136	240
137	340
138	290
139	1641
140	490
141	1241
142	490
143	6196
144	741
145	290
146	190
149	641
150	240
151	290
152	490
153	1341
154	490
155	290
156	591
157	3193
158	641
159	290
160	290
161	190
162	140
167	490
168	240
169	591
170	290
171	2492
172	390
174	10
175	160
176	170
177	230
178	280
179	530
180	430
181	170
182	230
183	380
184	130
185	150
186	70
187	10
193	290
194	160
195	240
196	591
197	3493
198	1491
199	591
200	440
201	290
202	190
208	290
209	290
210	490
211	490
212	991
213	390
214	190
223	390
224	490
225	490
226	591
227	240
228	90
234	140
235	190
236	1541
237	490
238	490
239	390
240	390
241	190
242	90
252	290
253	190
254	1091
255	1992
256	490
257	290
258	90
266	490
267	290
268	9999
269	4194
270	1441
271	440
280	440
281	791
282	991
283	340
284	190
293	190
294	791
295	991
296	340
297	190
308	591
309	340
310	190
311	140
312	90
324	390
325	240
326	190
338	591
339	240
340	190
351	440
352	290
353	190
354	140
366	290
367	240
368	290
369	190
380	140
381	390
394	3193
395	1541
396	591
397	190
407	1041
408	490
409	340
410	190
423	490
424	390
425	5895
426	2142
427	691
428	190
