Mass Spectrum: Desacetylanguidine
Formula: C17 H24 O6
CAS: 2623-22-5
Molecular weight: 324
Origin: MYCOTOXINS MASS SPECTRAL DATA BANK, L.R. DUSOLD ET AL, FDA, USA
m/z	RELATIVE INTENSITY
38	101
39	1652
41	2975
42	192
43	9999
45	101
50	101
51	466
52	192
53	3887
54	877
55	5940
56	649
57	740
58	238
59	147
60	284
61	147
62	101
63	192
64	101
65	1059
66	238
67	1424
68	238
69	831
70	147
71	420
72	101
73	284
74	147
75	101
76	101
77	2382
78	603
79	2792
80	512
81	2154
82	512
83	1013
84	831
85	329
86	101
87	101
89	147
90	101
91	5848
92	1287
93	3020
94	877
95	2701
96	1013
97	877
98	147
103	375
104	192
105	4845
106	3841
107	2427
108	603
109	2336
110	557
111	831
112	147
113	785
114	101
115	649
116	284
117	968
118	192
119	1424
120	375
121	2017
122	2382
123	2884
124	7718
125	2519
126	284
127	238
128	557
129	968
130	375
131	1196
132	284
133	877
134	192
135	512
136	192
137	694
138	101
139	375
140	192
141	557
142	557
143	1059
144	512
145	1333
146	329
147	877
148	147
149	512
150	147
151	238
152	147
153	192
154	147
155	238
156	238
157	1013
158	420
159	3112
160	603
161	1013
162	284
163	740
164	375
165	238
166	147
167	147
168	56
169	1105
170	192
171	557
172	512
173	922
174	329
175	1150
176	375
177	1743
178	284
179	147
180	101
181	147
182	101
183	101
185	284
186	147
187	2291
188	466
189	922
190	192
191	557
192	329
193	192
197	466
198	56
199	192
200	466
201	192
202	375
203	740
205	4708
206	740
207	101
213	101
215	238
216	56
217	147
218	284
219	101
221	56
223	284
229	56
233	147
235	101
236	192
246	56
247	375
248	56
249	101
251	238
253	10
264	1470
265	557
266	10
281	101
306	10
