Mass Spectrum: 2-Pentene, 4,4-dimethyl-
Formula: C7 H14
CAS: 26232-98-4
Molecular weight: 98
Origin: CARL DJERASSI DEPT OF CHEM STANFORD UNIV STANFORD CALIF 94305
m/z	RELATIVE INTENSITY
41	5800
42	500
43	1900
44	100
50	200
51	500
52	200
53	800
54	100
55	9999
56	1000
57	600
62	100
65	400
66	200
67	1000
68	200
69	900
70	500
77	100
79	100
81	200
82	100
83	9000
84	700
98	2400
99	200
