Mass Spectrum: Quinoline, 5,8-dimethyl-
Formula: C11 H11 N
CAS: 2623-50-9
Molecular weight: 157
m/z	RELATIVE INTENSITY
62	278
63	714
64	317
65	794
74	397
75	397
76	317
77	1190
78	635
89	317
101	238
102	397
103	317
114	238
115	476
116	238
117	397
127	476
128	714
129	317
130	555
141	516
142	3412
143	397
154	1032
155	476
156	5158
157	9999
158	1111
