Mass Spectrum: Diacetamate
Formula: C10 H11 N O3
CAS: 2623-33-8
Molecular weight: 193
Origin: Japan AIST/NIMC Database- Spectrum MS-NW-4224
m/z	RELATIVE INTENSITY
13	10
14	90
15	529
16	30
17	20
18	70
26	80
27	129
28	60
29	50
30	10
31	30
37	30
38	90
39	179
40	30
41	50
42	199
43	3339
44	99
45	10
49	10
50	90
51	169
52	489
53	559
54	109
55	50
61	30
62	60
63	169
64	90
65	159
66	30
67	10
68	20
74	30
75	20
76	30
77	70
78	70
79	119
80	779
81	459
82	60
89	10
90	20
91	60
92	40
93	30
94	20
102	50
103	40
104	90
105	90
106	20
107	80
108	1059
109	9999
110	809
111	50
120	30
121	10
122	60
128	20
129	119
130	10
132	70
133	40
134	40
135	80
149	10
150	159
151	4999
152	489
153	40
178	30
193	789
194	80
195	10
