Mass Spectrum: 7-Dehydrocholesterin, TMS derivative
Formula: C30 H52 O Si
CAS: 2625-44-7
Molecular weight: 456
Origin: BROOKS/HORNING, INST. LIPID RES., BAYLOR U.C., HOUSTON TEXAS
m/z	RELATIVE INTENSITY
75	1000
83	500
97	500
119	1550
129	650
131	2200
143	900
144	2000
145	1300
157	700
158	1000
159	1000
169	600
171	700
185	700
199	1250
211	1000
227	700
253	1000
325	8000
326	2400
351	9999
352	2900
364	2900
366	1000
441	300
456	3700
457	1500
458	500
