Mass Spectrum: Benzene, (3-isothiocyanatopropyl)-
Formula: C10 H11 N S
CAS: 2627-27-2
Molecular weight: 177
Origin: NIST Mass Spectrometry Data Center, 1994
m/z	RELATIVE INTENSITY
4	11
14	42
15	101
26	213
27	1331
28	641
29	52
30	59
32	222
37	74
38	329
39	2806
40	343
41	1500
42	96
44	202
45	443
46	47
47	41
50	891
51	2217
52	586
53	227
54	53
58	337
59	490
60	313
61	124
62	364
63	1254
64	348
65	3393
66	226
67	41
68	41
70	97
72	1618
73	302
74	347
75	283
76	269
77	2021
78	959
79	1054
80	81
84	56
85	109
86	554
87	111
88	56
89	694
90	56
91	9999
92	2309
93	146
98	70
99	71
100	71
101	51
102	203
103	961
104	430
105	869
106	173
110	32
115	948
117	8899
118	3076
119	242
121	71
134	267
135	56
136	46
143	102
144	451
145	60
147	59
148	80
149	73
176	1357
177	6040
178	782
179	334
180	35
