Mass Spectrum: Disiloxane, 1,3-diethenyl-1,1,3,3-tetramethyl-
Formula: C8 H18 O Si2
CAS: 2627-95-4
Molecular weight: 186
Origin: Japan AIST/NIMC Database- Spectrum MS-NW-6660
m/z	RELATIVE INTENSITY
15	40
26	10
27	80
28	119
29	90
30	10
31	169
32	40
36	20
39	40
41	30
42	70
43	529
44	189
45	619
46	40
47	60
49	10
50	10
51	219
52	469
53	129
54	20
55	179
56	40
57	219
58	169
59	2289
60	179
61	169
62	10
63	20
64	259
65	849
66	139
67	90
68	20
69	159
70	60
71	359
72	319
73	1939
74	169
75	199
76	10
77	30
78	819
79	80
80	10
81	20
82	10
83	219
84	40
85	689
86	90
87	169
88	50
89	80
90	10
91	20
93	20
95	40
96	10
97	119
98	20
99	189
100	20
101	60
102	60
103	1079
104	149
105	209
106	30
107	20
108	10
109	30
110	10
111	80
112	20
113	40
114	10
115	90
116	30
117	7279
118	1039
119	1299
120	159
121	90
123	10
125	10
127	50
128	40
129	709
130	129
131	729
132	159
133	1039
134	169
135	90
136	10
137	10
139	10
141	70
142	50
143	2319
144	699
145	899
146	149
147	80
148	10
155	109
156	30
157	109
158	50
159	1359
160	239
161	139
162	20
167	10
168	10
169	199
170	50
171	9999
172	1849
173	889
174	109
175	20
184	10
186	50
187	10
