Mass Spectrum: Phenol, 4-ethenyl-, acetate
Formula: C10 H10 O2
CAS: 2628-16-2
Molecular weight: 162
Origin: NIST Mass Spectrometry Data Center, 1994
m/z	RELATIVE INTENSITY
4	31
5	39
9	20
12	44
13	78
14	258
15	1326
16	68
18	35
25	63
26	357
27	531
28	63
29	227
30	25
31	31
36	28
37	118
38	485
39	1695
40	175
41	489
42	1745
43	9999
44	232
45	75
50	502
51	655
52	192
53	170
55	74
56	19
60	18
61	205
62	586
63	1410
64	387
65	1872
66	234
67	25
68	17
73	29
74	181
75	135
76	115
77	176
78	58
79	26
86	62
87	38
89	557
90	197
91	2003
92	253
93	36
94	174
95	25
102	92
103	41
105	41
119	567
120	1731
121	158
162	106
