Mass Spectrum: 3,5-Diiodosalicylaldehyde
Formula: C7 H4 I2 O2
CAS: 2631-77-8
Molecular weight: 374
Origin: NIST Mass Spectrometry Data Center, 1994
m/z	RELATIVE INTENSITY
27	7
29	69
36	12
37	76
38	80
39	37
41	9
42	14
49	28
50	57
51	14
53	138
54	8
60	35
61	182
62	351
63	504
64	308
65	22
66	26
69	8
72	6
73	51
74	119
75	33
76	10
77	8
89	10
90	58
91	185
92	337
93	24
109	21
119	53
120	53
123	32
127	227
128	44
152	12
163	12
164	24
165	22
173	13
176	10
179	17
187	107
188	8
189	68
190	36
191	151
192	10
201	105
202	10
218	255
219	92
229	175
230	16
246	354
247	49
248	12
254	27
316	8
317	65
328	182
329	22
344	19
345	61
346	90
356	237
357	17
373	2019
374	9999
375	720
376	73
