Mass Spectrum: Ethanone, 2-bromo-1-(4-methoxyphenyl)-
Formula: C9 H9 Br O2
CAS: 2632-13-5
Molecular weight: 228
Origin: Japan AIST/NIMC Database- Spectrum MS-NW-9643
m/z	RELATIVE INTENSITY
14	20
15	50
18	10
26	40
27	159
28	60
29	109
30	40
31	849
32	10
36	10
37	20
38	109
39	119
40	10
41	40
42	60
43	179
44	50
45	549
46	189
49	20
50	229
51	209
52	80
53	50
55	20
56	20
57	20
61	30
62	90
63	359
64	469
65	99
66	30
67	10
71	10
73	10
74	80
75	60
76	139
77	1619
78	259
79	109
80	70
81	20
82	70
89	60
90	20
91	99
92	789
93	60
94	10
104	40
105	20
106	50
107	1169
108	99
117	20
118	20
119	20
120	20
121	329
122	30
132	30
133	20
135	9999
136	879
137	70
150	249
151	20
152	10
158	10
171	10
173	10
184	109
185	10
186	40
228	259
229	30
230	259
231	30
