Mass Spectrum: Mesurol sulfoxide
Formula: C11 H15 N O3 S
CAS: 2635-10-1
Molecular weight: 241
Origin: S.M. Lee, CA Export Lab. Services, CA, USA
m/z	RELATIVE INTENSITY
51	420
52	190
53	330
54	70
55	210
56	300
57	1001
58	1151
59	150
60	40
61	60
62	110
63	250
64	120
65	581
66	150
67	270
68	110
69	270
70	60
71	70
72	30
73	40
74	90
75	140
76	110
77	1301
78	320
79	911
80	120
81	150
82	80
83	100
84	100
85	130
86	40
87	50
88	20
89	140
90	130
91	1772
92	300
93	120
94	110
95	100
96	70
97	200
98	40
99	70
100	30
101	40
102	50
103	250
104	80
105	140
107	6806
108	3383
109	1471
110	140
111	170
112	50
113	80
114	20
115	60
117	20
118	40
119	130
120	140
121	891
122	210
123	1511
124	200
125	150
126	80
127	30
129	20
133	70
134	160
135	380
136	110
137	601
138	250
139	210
140	220
141	971
142	90
143	70
147	20
148	20
149	30
150	100
151	941
152	510
153	3073
154	320
155	320
156	20
163	20
164	30
165	50
167	1001
168	4654
169	9999
170	1141
171	571
172	50
177	20
178	30
180	40
181	30
182	20
184	4834
185	561
186	300
187	30
197	20
199	20
200	50
201	30
207	20
208	40
209	20
212	20
225	490
226	240
227	70
228	20
240	80
241	2863
242	340
243	180
