Mass Spectrum: Cyanophos
Formula: C9 H10 N O3 P S
CAS: 2636-26-2
Molecular weight: 243
Origin: NIST Mass Spectrometry Data Center, 1998.
m/z	RELATIVE INTENSITY
14	20
15	360
26	30
27	60
28	30
29	160
30	30
31	180
32	30
33	20
37	220
38	200
39	480
40	30
41	30
42	10
45	260
46	80
47	2290
48	70
49	120
50	320
51	380
52	110
53	60
54	10
55	10
57	20
58	10
60	10
61	100
62	810
63	2140
64	1060
65	140
66	30
68	10
69	50
70	20
71	10
73	30
74	130
75	540
76	350
77	210
78	10
79	2660
80	170
81	40
82	30
83	10
84	10
86	10
87	40
88	80
89	100
90	930
91	130
92	10
93	1500
94	180
95	290
96	260
97	40
98	10
99	40
100	30
102	820
103	110
104	40
105	30
106	20
107	60
108	10
109	9999
110	240
111	140
112	80
113	10
114	10
115	100
116	890
117	120
118	60
119	600
120	80
121	110
122	180
123	30
124	10
125	5799
126	180
127	290
128	10
129	20
130	10
132	80
133	150
134	560
135	280
136	60
137	20
141	10
142	10
146	10
147	70
148	290
149	240
150	160
151	20
152	30
162	10
164	50
165	90
166	50
178	10
180	720
181	80
182	20
196	230
197	80
198	30
199	10
210	40
211	50
212	280
213	190
214	30
215	10
227	20
228	160
229	20
230	10
243	5449
244	610
245	310
246	30
