Mass Spectrum: N-(2-Chloroethyl)benzamide
Formula: C9 H10 Cl N O
CAS: 26385-07-9
Molecular weight: 183
Origin: Japan AIST/NIMC Database- Spectrum MS-NW-8077
m/z	RELATIVE INTENSITY
15	30
26	10
27	179
28	80
30	40
35	20
36	249
37	20
38	99
39	80
40	10
41	20
42	30
43	40
44	20
49	40
50	349
51	1109
52	90
53	20
58	30
61	10
62	20
63	109
64	20
65	50
66	10
67	40
73	20
74	99
75	99
76	219
77	3709
78	299
79	20
89	50
90	80
91	90
92	10
102	10
103	30
104	119
105	9999
106	779
107	40
116	30
117	859
118	109
119	10
120	10
121	189
122	40
134	929
135	90
146	60
147	679
148	559
149	50
182	209
183	2039
184	279
185	669
186	70
