Mass Spectrum: Profluralin
Formula: C14 H16 F3 N3 O4
CAS: 26399-36-0
Molecular weight: 347
Origin: NIST Mass Spectrometry Data Center, 1995
m/z	RELATIVE INTENSITY
10	7
14	17
15	54
16	10
17	6
18	17
20	6
27	1442
28	348
29	1978
30	375
31	36
32	7
37	15
39	995
40	132
41	1415
42	194
43	1091
44	68
45	13
46	13
50	55
51	96
52	93
53	441
54	13
55	9999
56	516
57	245
58	22
59	9
61	9
62	33
63	77
64	84
65	53
66	15
67	30
68	65
69	626
70	67
71	35
72	15
73	8
74	53
75	160
76	71
77	61
78	34
79	12
80	20
81	61
82	58
83	42
84	15
85	7
87	23
88	58
89	73
90	30
91	26
92	16
93	27
94	34
95	56
96	24
97	10
98	14
99	27
100	21
101	37
102	54
103	49
104	22
105	98
106	22
107	44
108	43
109	37
110	7
111	8
112	22
113	48
114	45
115	73
116	31
117	35
118	32
119	36
120	49
121	29
122	11
123	68
124	15
125	107
126	118
127	67
128	40
129	28
130	39
131	113
132	68
133	64
134	35
135	22
136	10
137	21
138	51
139	57
140	78
141	44
143	171
144	112
145	222
146	64
147	42
148	28
149	10
150	9
151	63
152	58
153	100
154	29
155	17
156	18
157	34
158	113
159	154
160	103
161	33
162	12
163	15
164	31
165	29
166	53
167	28
168	13
169	27
170	29
171	61
172	108
173	60
174	61
175	21
176	25
177	12
178	22
179	9
180	9
181	7
182	13
183	27
184	60
185	101
186	124
187	105
188	43
189	39
190	26
191	8
192	16
193	9
195	11
196	20
197	55
198	101
199	102
200	46
201	51
202	80
203	18
204	8
205	7
206	37
210	15
211	53
212	72
213	64
214	52
215	43
216	19
217	32
218	23
219	20
220	6
222	6
223	10
224	59
225	41
226	86
227	36
228	32
229	16
230	19
231	20
232	88
233	17
234	29
235	11
236	9
237	19
238	20
239	26
240	25
241	38
242	27
243	23
244	27
245	11
246	8
248	216
249	27
252	27
253	29
254	56
255	22
256	9
257	17
258	72
259	28
260	26
264	456
265	59
266	14
267	11
268	7
270	9
271	18
272	58
273	10
274	82
275	10
276	45
277	11
282	8
283	38
284	37
285	13
286	15
287	10
288	29
289	10
290	40
291	6
300	13
302	236
303	35
304	12
306	147
307	15
313	14
314	7
315	12
318	2988
319	443
320	57
328	58
330	1568
331	279
332	35
347	442
348	83
349	10
