Mass Spectrum: Propanoyl fluoride, 2,3,3,3-tetrafluoro-2-[1,1,2,3,3,3-hexafluoro-2-(heptafluoropropoxy)propoxy]-
Formula: C9 F18 O3
CAS: 2641-34-1
Molecular weight: 498
Origin: ASES Database, Dalian Institute, P.R. China
m/z	RELATIVE INTENSITY
31	1471
47	1201
50	680
59	400
69	9999
97	2672
100	2081
119	6565
131	390
147	2191
150	790
169	9068
213	600
313	1101
335	1691
