Mass Spectrum: Heptadecane, 4-methyl-
Formula: C18 H38
CAS: 26429-11-8
Molecular weight: 254
m/z	RELATIVE INTENSITY
41	4999
42	1190
43	9999
44	381
53	333
54	333
55	3714
56	1524
57	6666
58	333
67	381
68	238
69	1428
70	4047
71	7237
72	476
79	48
81	143
82	190
83	952
84	571
85	3333
86	143
95	48
96	95
97	571
98	238
99	1000
100	48
110	48
111	381
112	143
113	714
114	48
125	143
126	95
127	714
139	48
140	48
141	571
154	95
155	381
169	238
182	476
183	381
196	24
197	48
210	1428
211	2476
212	381
224	95
225	333
226	48
239	333
240	48
254	286
