Mass Spectrum: 2,2-Bis(p-chlorophenyl)ethanol
Formula: C14 H12 Cl2 O
CAS: 2642-82-2
Molecular weight: 266
Origin: NIST Mass Spectrometry Data Center, 1998.
m/z	RELATIVE INTENSITY
26	10
27	30
28	10
29	80
30	10
31	460
32	10
35	10
36	20
37	20
38	50
39	220
40	10
41	20
43	20
47	10
49	30
50	310
51	360
52	40
53	20
55	20
56	10
60	10
61	60
62	210
63	590
64	60
65	160
66	10
67	10
68	30
69	90
72	10
73	230
74	250
75	590
76	150
77	220
78	30
79	10
82	710
84	20
85	80
86	160
87	260
88	190
89	440
90	90
91	210
92	20
93	20
94	10
96	10
97	60
98	80
99	360
100	190
101	260
102	110
103	40
104	10
105	10
106	10
107	10
108	10
109	20
110	50
111	200
112	60
113	230
114	160
115	190
116	20
118	20
119	10
120	10
121	10
122	20
123	70
124	20
125	310
126	120
127	140
128	30
134	10
135	20
136	70
137	160
138	170
139	430
140	60
141	40
147	20
148	20
149	160
150	80
151	120
152	80
153	20
154	20
155	10
156	10
160	30
161	80
162	200
163	1580
164	1520
165	8319
166	1460
167	120
168	10
172	10
173	100
174	30
175	50
176	130
177	60
178	140
179	30
180	10
183	10
185	10
186	30
187	10
188	10
194	10
196	10
197	40
198	70
199	2640
200	1080
201	1280
202	380
203	140
204	20
211	10
212	50
213	20
214	20
215	10
230	10
231	240
232	40
233	170
234	10
235	9999
236	1860
237	7079
238	1180
239	1270
240	190
241	10
248	10
250	10
266	770
267	120
268	490
269	80
270	90
271	10
