Mass Spectrum: 1-Chloro-2,2-Bis(p-chlorophenyl)ethane
Formula: C14 H11 Cl3
CAS: 2642-80-0
Molecular weight: 284
m/z	RELATIVE INTENSITY
35	200
36	500
37	100
38	300
39	700
49	500
50	1300
51	1700
52	200
62	400
63	1200
64	100
69	100
73	500
74	800
75	2700
76	1000
77	1200
78	100
81	600
82	2900
83	100
85	200
86	300
87	600
88	1400
89	900
93	200
97	100
98	200
99	800
100	1000
101	1800
102	1400
103	900
106	300
107	100
110	100
111	400
112	200
113	300
114	300
115	200
123	200
125	300
126	200
127	200
136	300
137	1000
138	500
139	500
140	200
149	200
150	200
151	300
152	300
161	100
162	200
163	1100
164	1200
165	7700
166	1000
173	100
174	100
175	100
176	600
177	300
178	800
179	300
199	1700
200	700
201	700
202	300
212	200
213	100
214	100
235	9999
236	1200
237	5400
238	900
239	1000
240	100
284	600
285	100
286	600
287	100
