Mass Spectrum: Pentanoic acid, TMS derivative
Formula: C8 H18 O2 Si
CAS: 26429-16-3
Molecular weight: 174
Origin: NIST Mass Spectrometry Data Center
m/z	RELATIVE INTENSITY
15	30
26	30
27	320
28	120
29	581
30	20
31	40
38	10
39	250
40	30
41	470
42	160
43	550
44	180
45	1401
46	100
47	701
48	30
49	30
50	10
51	30
52	10
53	100
54	30
55	591
56	220
57	380
58	380
59	390
60	150
61	631
62	40
63	20
67	50
68	10
69	50
70	30
71	50
72	270
73	6496
74	771
75	9999
76	731
77	390
78	10
81	10
83	80
84	40
85	100
86	160
87	60
88	50
89	50
90	20
91	20
93	10
97	10
99	50
100	10
101	100
102	20
103	30
105	10
111	10
113	10
115	140
116	130
117	2022
118	200
119	80
129	520
130	120
131	50
132	631
133	70
134	30
141	170
142	20
143	30
145	280
146	40
147	10
157	10
159	5375
160	691
161	240
162	20
174	30
