Mass Spectrum: Ethanone, 1-(3,4-dichlorophenyl)-
Formula: C8 H6 Cl2 O
CAS: 2642-63-9
Molecular weight: 188
m/z	RELATIVE INTENSITY
14	50
15	180
27	20
28	10
29	20
31	10
35	20
36	20
37	130
38	90
39	80
40	20
41	10
42	70
43	2432
44	120
45	20
47	20
48	10
49	190
50	410
51	170
52	20
53	30
54	20
55	150
56	50
57	10
58	10
60	50
61	160
62	190
63	180
64	20
65	10
67	10
68	60
69	30
71	20
72	70
73	200
74	130
75	1051
76	1071
77	90
78	40
79	30
81	50
82	30
84	20
85	330
86	250
87	180
88	160
89	30
90	110
91	20
92	20
93	10
94	10
95	20
96	20
97	30
98	70
99	40
100	90
101	20
102	90
103	110
104	80
105	80
106	20
107	30
108	80
109	1241
110	460
111	651
112	170
113	90
114	10
115	10
117	20
118	60
119	50
120	10
121	30
122	10
123	100
124	30
125	80
126	10
127	20
134	30
135	10
136	30
137	50
138	150
139	90
140	80
141	30
142	20
144	40
145	3593
146	360
147	2412
148	230
149	430
150	40
151	10
156	20
157	20
158	10
160	80
162	50
163	20
164	10
165	10
171	10
172	330
173	9999
174	991
175	6566
176	561
177	1091
178	110
179	20
187	10
188	3603
189	340
190	2422
191	220
192	440
193	40
194	10
