Mass Spectrum: p-([2-Chloroethyl]ethylamino)benzaldehyde
Formula: C11 H14 Cl N O
CAS: 2643-07-4
Molecular weight: 211
Origin: NIST Mass Spectrometry Data Center, 1994
m/z	RELATIVE INTENSITY
26	229
27	1670
28	551
29	1666
30	114
31	1
35	8
36	20
37	74
38	161
39	483
40	84
41	182
42	201
43	27
44	53
45	8
47	17
49	161
50	599
51	1417
52	206
53	115
54	59
55	58
56	66
57	11
59	27
60	8
61	38
62	162
63	996
64	310
65	544
66	81
67	44
68	14
69	12
74	144
75	211
76	480
77	2116
78	586
79	724
80	90
86	12
87	33
88	59
89	208
90	197
91	585
92	179
93	62
94	38
99	12
101	23
102	83
103	181
104	670
105	737
106	1406
107	105
108	11
109	7
114	12
115	55
116	93
117	388
118	474
119	217
120	186
121	22
128	12
129	11
130	84
131	11
132	1432
133	639
134	3202
135	271
136	29
138	8
143	11
144	32
146	244
147	110
148	114
149	20
154	17
158	13
159	11
160	85
161	11
162	9999
163	1120
164	64
167	30
168	22
169	11
170	6
174	19
175	33
176	184
177	22
180	17
181	18
182	42
184	18
196	578
197	87
198	200
199	31
209	18
211	1250
212	200
213	396
214	51
