Mass Spectrum: 1-Piperidinecarboxamide, N-phenyl-
Formula: C12 H16 N2 O
CAS: 2645-36-5
Molecular weight: 204
Origin: Japan AIST/NIMC Database- Spectrum MS-IW-2284
m/z	RELATIVE INTENSITY
15	50
26	20
27	239
28	449
29	329
30	339
37	30
38	90
39	419
40	70
41	2409
42	619
43	389
44	229
45	20
50	80
51	309
52	90
53	90
54	129
55	509
56	1009
57	279
58	10
59	30
61	40
62	30
63	139
64	299
65	499
66	189
67	159
68	60
69	6269
70	709
71	20
73	10
74	40
75	20
76	30
77	709
78	70
79	20
80	30
81	10
82	119
83	169
84	1629
85	369
86	20
87	30
88	20
90	30
91	509
92	319
93	669
94	70
99	10
100	30
101	10
102	40
104	30
105	10
106	99
107	10
110	20
111	30
112	9999
113	769
114	40
117	10
118	20
119	1049
120	199
121	20
126	10
127	50
129	10
132	70
133	10
135	40
136	30
144	139
145	20
146	10
147	50
158	30
159	219
160	779
161	109
162	20
175	60
176	10
186	10
187	50
203	819
204	5709
205	809
206	60
