Mass Spectrum: 2-Hexene, 3,5,5-trimethyl-
Formula: C9 H18
CAS: 26456-76-8
Molecular weight: 126
Origin: D.HENNEBERG, MAX-PLANCK INSTITUTE, MULHEIM, WEST GERMANY
m/z	RELATIVE INTENSITY
24	10
26	45
27	775
28	96
29	2006
30	53
35	9
36	2
37	35
38	37
39	837
40	154
41	3992
42	672
43	318
44	6
45	4
46	13
48	1
49	6
50	31
51	98
52	42
53	329
54	100
55	1973
56	396
57	9999
58	408
62	21
63	16
65	51
66	20
67	185
68	133
69	1524
70	4228
71	292
72	9
76	1
77	59
78	7
79	51
80	8
81	47
82	4
83	65
91	19
93	8
95	35
96	8
97	3
109	9
110	1
111	450
112	40
126	614
127	57
