Mass Spectrum: 1,3-Propanediol, 2,2-dimethyl-, dinitrate
Formula: C5 H10 N2 O6
CAS: 26482-65-5
Molecular weight: 194
Origin: MINISTRY OF TECH. E.R.D.E., WALTHAM ABBEY, UK
m/z	RELATIVE INTENSITY
15	140
27	1040
28	560
29	1400
30	1320
31	380
39	1110
40	390
41	1760
42	800
43	5250
44	400
45	120
46	9999
55	420
56	890
57	980
58	620
71	490
72	1020
73	120
76	780
85	40
86	40
118	20
132	10
193	10
