Mass Spectrum: 2-Pyridinamine, N-nitro-
Formula: C5 H5 N3 O2
CAS: 26482-54-2
Molecular weight: 139
m/z	RELATIVE INTENSITY
30	601
39	5205
40	1501
66	5205
67	1802
93	9999
94	1501
139	1802
140	100
