Mass Spectrum: 4-Tetradecanone
Formula: C14 H28 O
CAS: 26496-20-8
Molecular weight: 212
Origin: V.G.Zaikin, TIPS, Russian Acad. Sci.
m/z	RELATIVE INTENSITY
41	3903
42	1000
43	7907
44	600
53	300
54	500
55	3002
56	700
57	400
58	800
59	1401
68	300
69	800
70	600
71	9999
72	1201
73	2402
74	300
82	200
83	1101
84	600
85	1901
86	1601
87	200
98	300
99	1101
100	200
113	400
114	200
127	300
141	300
155	200
169	2402
170	400
212	280
213	40
