Mass Spectrum: Methyl 4-tert-butylbenzoate
Formula: C12 H16 O2
CAS: 26537-19-9
Molecular weight: 192
Origin: Chuck Anderson, Aldrich Chemical Co.
m/z	RELATIVE INTENSITY
14	8
15	472
16	1
26	20
27	185
28	44
29	307
30	20
31	56
32	5
33	1
38	33
39	425
40	40
41	905
42	35
43	25
44	17
45	35
50	177
51	385
52	66
53	94
55	184
56	16
57	253
58	273
59	1121
60	21
61	8
62	48
63	177
64	52
65	310
66	25
67	13
71	130
72	307
73	119
74	92
75	119
76	157
77	631
78	173
79	90
80	5
81	145
82	59
86	10
87	35
88	5
89	216
90	175
91	1418
92	69
93	668
94	40
101	57
102	176
103	425
104	27
105	1432
106	105
107	18
113	3
115	1067
116	187
117	999
118	776
119	219
120	3
121	385
122	27
127	14
128	42
129	44
131	139
132	6
133	139
134	4
135	145
136	23
137	15
145	560
146	260
147	42
148	17
149	2297
150	182
151	22
159	31
160	16
161	1053
162	96
163	30
176	129
177	9999
178	1013
179	94
191	26
192	1689
193	207
194	16
