Mass Spectrum: 9,12-Octadecadienal
Formula: C18 H32 O
CAS: 26537-70-2
Molecular weight: 264
Origin: R.T.HOLMAN,UNIVERSITY OF MINNESOTA
m/z	RELATIVE INTENSITY
26	200
27	3800
28	800
29	5600
30	100
31	300
32	30
38	100
39	2800
40	400
41	9999
42	1900
43	3900
44	1800
45	200
47	100
50	100
51	300
52	200
53	1400
54	3700
55	5300
56	800
57	1100
58	100
59	100
63	100
64	200
65	500
66	500
67	7000
68	2400
69	1900
70	400
71	400
77	1000
78	300
79	2200
80	1200
81	3800
82	1800
83	700
84	300
85	100
86	100
91	600
92	200
93	800
94	400
95	2100
96	1200
97	500
98	700
99	100
105	200
106	100
107	300
108	200
109	800
110	700
111	200
112	200
119	100
120	100
121	200
122	100
123	300
124	300
125	100
133	100
134	100
135	100
136	100
137	200
138	200
147	100
148	100
149	100
151	100
152	100
264	400
265	100
