Mass Spectrum: Acetaldehyde, (3,3-dimethylcyclohexylidene)-, (E)-
Formula: C10 H16 O
CAS: 26532-25-2
Molecular weight: 152
Origin: NIST Mass Spectrometry Data Center, 1998.
m/z	RELATIVE INTENSITY
14	10
15	80
26	80
27	1330
28	270
29	1330
30	30
31	60
37	40
38	190
39	3480
40	690
41	6489
42	430
43	1450
44	70
45	100
46	30
50	310
51	940
52	440
53	2380
54	430
55	2350
56	860
57	510
58	40
59	290
60	50
61	70
62	90
63	310
64	70
65	1100
66	620
67	3380
68	1090
69	5169
70	540
71	140
72	30
73	20
74	50
75	40
76	40
77	1750
78	590
79	2660
80	540
81	4690
82	930
83	1190
84	2080
85	160
86	20
87	10
89	60
90	30
91	1890
92	390
93	2190
94	560
95	4430
96	1930
97	340
102	50
103	220
104	60
105	430
106	200
107	820
108	2680
109	9999
110	930
111	350
112	20
115	110
116	30
117	140
118	30
119	1180
120	130
121	350
122	90
123	800
124	630
125	50
131	10
133	40
134	140
135	70
136	50
137	3950
138	390
139	20
150	10
151	260
152	5269
153	580
154	40
