Mass Spectrum: Grandisol
Formula: C10 H18 O
CAS: 26532-22-9
Molecular weight: 154
Origin: P.A.HEDIN U.S. DEP. OF AGRI., STATE COLLEGE, MISS., USA
m/z	RELATIVE INTENSITY
27	1800
39	1900
40	1200
41	4200
42	800
43	1000
51	500
53	2300
55	1900
56	2000
67	4800
68	9999
69	2500
77	800
79	1000
81	1700
82	500
83	600
85	600
91	500
93	1500
94	500
95	800
107	1100
108	1100
109	2700
110	600
111	1300
121	1000
123	500
136	300
139	600
154	200
