Mass Spectrum: Ethanol, 2-(3,3-dimethylcyclohexylidene)-, (Z)-
Formula: C10 H18 O
CAS: 26532-23-0
Molecular weight: 154
Origin: NIST Mass Spectrometry Data Center, 1998.
m/z	RELATIVE INTENSITY
15	60
17	10
18	10
19	10
26	50
27	1120
28	260
29	1350
30	50
31	460
37	20
38	100
39	2620
40	570
41	6849
42	590
43	1880
44	310
45	150
46	10
50	180
51	670
52	350
53	1890
54	560
55	3540
56	1250
57	1100
58	100
59	310
60	20
61	20
62	60
63	190
64	50
65	840
66	420
67	3030
68	2340
69	9999
70	1530
71	650
72	80
73	20
74	20
75	20
76	20
77	1740
78	370
79	3200
80	1350
81	3010
82	720
83	1430
84	840
85	280
86	50
87	10
89	40
90	10
91	1730
92	570
93	6089
94	990
95	3260
96	430
97	530
98	190
99	30
102	20
103	110
104	40
105	450
106	120
107	1970
108	720
109	1600
110	1750
111	1830
112	160
113	20
115	50
116	10
117	40
119	100
120	60
121	5579
122	570
123	1170
124	120
125	40
126	20
135	50
136	5499
137	730
138	50
139	260
140	20
152	30
153	10
154	730
155	80
