Mass Spectrum: Phenol, 3,5-dimethyl-, methylcarbamate
Formula: C10 H13 N O2
CAS: 2655-14-3
Molecular weight: 179
m/z	RELATIVE INTENSITY
15	200
27	200
39	400
40	200
41	200
43	100
44	100
51	300
53	400
55	200
57	200
58	500
63	200
65	300
77	1200
78	400
79	600
91	700
107	3300
121	1200
122	9999
123	1200
179	1200
