Mass Spectrum: 1H-1,2,4-Triazole, 3-bromo-5-methyl-
Formula: C3 H4 Br N3
CAS: 26557-90-4
Molecular weight: 161
m/z	RELATIVE INTENSITY
42	5999
56	9999
120	1000
122	1000
161	2400
163	2400
