Mass Spectrum: Benzene, 1,4-didecyl-
Formula: C26 H46
CAS: 2655-95-0
Molecular weight: 358
Origin: C.E.A., C.E.N., GRENOBLE, FRANCE
m/z	RELATIVE INTENSITY
26	50
27	10
28	134
29	480
30	10
39	90
40	15
41	750
42	90
43	1640
44	50
50	10
51	20
52	10
53	30
54	20
55	525
56	70
57	730
58	40
65	20
67	50
68	10
69	210
70	40
71	290
72	20
74	4
75	2
76	4
77	50
78	70
79	80
80	30
81	30
82	10
83	130
84	20
85	145
86	10
89	8
90	7
91	1230
92	1535
93	60
94	20
95	15
96	5
97	50
98	8
99	10
101	4
102	10
103	80
104	1010
105	9999
106	1370
107	90
108	15
109	5
111	6
113	10
115	60
116	40
117	585
118	170
119	565
120	60
121	10
122	3
125	5
127	8
128	20
129	40
130	8
131	170
132	40
133	210
134	40
135	8
141	10
142	5
143	10
144	5
145	50
146	10
147	170
148	30
149	4
150	2
151	2
159	20
160	10
161	70
162	10
167	5
173	10
175	40
177	2
178	2
179	2
187	5
188	3
189	20
190	5
202	5
216	50
217	40
218	10
219	10
222	2
228	10
229	5
230	400
231	350
232	60
233	10
234	2
243	30
244	20
245	10
246	2
256	10
258	30
259	10
260	2
270	5
271	2
272	40
273	10
274	2
286	10
287	2
301	1
314	4
315	20
320	1
344	1
350	3
356	15
358	1230
359	340
360	50
361	4
