Mass Spectrum: Benzene, 1-chloro-3-ethoxy-
Formula: C8 H9 Cl O
CAS: 2655-83-6
Molecular weight: 156
m/z	RELATIVE INTENSITY
15	160
25	40
26	360
27	1772
29	1912
30	60
31	50
35	20
36	60
37	290
38	731
39	1241
40	681
41	681
42	60
43	190
44	40
45	20
46	20
47	40
49	160
50	661
51	370
52	40
53	260
54	20
55	110
61	280
62	500
63	1571
64	1241
65	2062
66	220
67	50
68	20
69	40
71	20
72	70
73	721
74	360
75	1121
76	200
77	280
78	60
79	50
81	40
82	20
83	20
84	50
85	130
86	20
87	60
89	80
91	250
92	370
93	320
94	100
95	20
97	40
98	20
100	701
101	290
102	230
103	20
108	40
109	20
110	160
111	470
112	60
113	160
114	20
120	20
121	50
122	20
127	120
128	9999
129	691
130	3213
131	220
141	80
143	30
155	20
156	2813
157	250
158	881
159	80
