Mass Spectrum: 1,3,6,10-Dodecatetraene, 3,7,11-trimethyl-, (Z,E)-
Formula: C15 H24
CAS: 26560-14-5
Molecular weight: 204
Origin: Mark Whitten, Florida Museum of Natural History, U. of Florida
m/z	RELATIVE INTENSITY
41	9999
42	500
43	1821
44	67
50	117
51	596
52	312
53	2041
55	4216
56	735
57	393
58	37
62	29
63	171
65	910
66	309
67	1210
69	4285
70	429
71	33
75	27
77	2660
78	553
79	3413
80	855
81	1462
82	245
83	140
84	88
89	58
91	3479
92	1140
93	8364
94	1009
95	429
96	55
97	86
102	39
103	218
104	126
105	2068
106	434
107	3367
108	393
109	469
110	63
111	63
112	31
115	182
116	62
117	221
119	6143
120	1039
121	608
122	178
123	436
124	61
127	15
128	44
129	34
130	18
131	47
132	32
133	408
134	235
135	295
136	142
141	18
145	23
147	167
148	148
149	39
161	413
162	89
175	34
176	21
189	196
190	27
204	93
