Mass Spectrum: Aziridine, 2,2-dimethyl-
Formula: C4 H9 N
CAS: 2658-24-4
Molecular weight: 71
m/z	RELATIVE INTENSITY
15	1802
26	1001
27	3503
28	9308
29	1802
30	9999
31	400
37	701
38	1301
39	6105
40	1501
41	5705
42	6706
43	1301
44	500
54	1001
55	500
56	8207
57	500
70	3003
71	3503
72	500
