Mass Spectrum: Pyrazole, 3-nitro-
Formula: C3 H3 N3 O2
CAS: 26621-44-3
Molecular weight: 113
Origin: W. LUIJTEN, GORLAEUS LAB., LEIDEN UNIV., NETHERL> ;
m/z	RELATIVE INTENSITY
37	200
38	600
39	600
40	3200
41	600
42	200
43	200
44	200
46	800
50	100
51	300
52	400
53	200
54	300
55	100
66	800
67	100
68	300
83	2600
84	100
96	200
97	400
113	9999
114	600
