Mass Spectrum: cis,syn,cis-Perhydrophenanthrene
Formula: C14 H24
CAS: 26634-41-3
Molecular weight: 192
m/z	RELATIVE INTENSITY
53	1101
54	2101
55	4704
56	470
57	840
67	9008
68	1901
69	1301
77	1201
79	2702
80	950
81	8407
82	3202
83	1101
91	950
93	1501
94	2402
95	2602
96	9999
97	5805
107	830
108	720
109	1601
110	2001
111	370
121	3002
122	630
123	530
135	8207
136	1101
149	790
150	900
163	950
164	470
192	6806
193	1050
194	71
