Mass Spectrum: Dodecyl p-hydroxybenzoate
Formula: C19 H30 O3
CAS: 2664-60-0
Molecular weight: 306
Origin: NIST Mass Spectrometry Data Center
m/z	RELATIVE INTENSITY
14	50
16	40
18	30
27	360
28	110
29	831
30	20
39	671
41	1481
42	290
43	1201
44	60
45	30
50	30
51	40
53	150
54	140
55	1001
56	380
57	390
62	30
63	130
64	160
65	891
66	80
67	250
68	200
69	540
70	290
71	80
73	10
75	20
77	90
79	40
81	90
82	140
83	270
84	110
85	40
91	30
92	220
93	871
94	110
95	270
96	60
97	200
98	70
110	30
111	70
112	30
119	20
121	5075
122	430
123	50
135	30
136	50
138	9999
139	4504
140	450
141	70
151	40
168	50
250	20
289	50
306	190
307	30
