Mass Spectrum: 2-Butene, 1,4-dimethoxy-
Formula: C6 H12 O2
CAS: 26649-86-5
Molecular weight: 116
Origin: NIST Mass Spectrometry Data Center
m/z	RELATIVE INTENSITY
14	20
15	320
16	10
25	10
26	140
27	881
28	480
29	1702
30	180
31	280
32	10
33	120
37	70
38	230
39	2722
40	330
41	5705
42	500
43	1101
45	4794
46	110
47	220
48	10
49	20
50	230
51	360
52	190
53	2172
54	1201
55	3113
56	691
57	240
58	1131
59	130
60	10
65	20
66	10
67	20
68	310
69	5145
70	330
71	6346
72	320
73	30
75	801
76	30
81	10
83	190
84	9999
85	1461
86	90
99	40
100	40
101	30
114	10
115	40
116	10
