Mass Spectrum: Cholest-7-en-3-ol, (3.beta.,5.alpha.)-, TMS derivative
Formula: C30 H54 O Si
CAS: 2665-03-4
Molecular weight: 458
Origin: NIST Mass Spectrometry Data Center
m/z	RELATIVE INTENSITY
27	190
29	480
39	210
40	60
41	2482
42	240
43	3723
44	90
45	380
46	20
47	210
50	30
51	40
53	310
54	80
55	3974
56	801
57	3313
58	200
59	410
60	100
61	420
62	30
63	50
65	180
66	110
67	1912
68	300
69	3093
70	711
71	1682
72	150
73	5675
74	691
75	9999
76	811
77	1081
78	220
79	2813
80	350
81	4304
82	651
83	2272
84	340
85	360
87	40
88	50
89	360
90	60
91	4144
92	851
93	3283
94	931
95	5045
96	671
97	1001
98	70
99	100
100	20
101	530
102	70
103	450
104	240
105	5365
106	1732
107	5835
108	1151
109	2302
110	320
111	540
112	90
113	110
115	561
116	540
117	2022
118	761
119	3773
120	1501
121	2572
122	1021
123	1291
124	210
125	200
126	40
127	210
128	510
129	2102
130	731
131	2903
132	861
133	3523
134	1521
135	2122
136	771
137	601
138	250
139	80
140	40
141	400
142	410
143	1762
144	1131
145	3633
146	901
147	3673
148	1011
149	1251
150	170
152	671
153	120
154	100
155	561
156	260
157	1531
158	661
159	2993
160	941
161	2492
162	490
163	410
164	80
165	641
166	130
167	180
168	170
169	711
170	290
171	1221
172	470
173	1461
174	400
175	500
176	120
177	200
178	50
179	140
180	60
181	290
182	300
183	651
184	380
185	1071
186	490
187	971
188	240
189	350
190	130
191	130
192	40
193	200
194	90
195	240
196	671
197	470
198	180
199	1071
200	561
201	1131
202	300
203	170
204	40
205	150
206	170
208	50
209	260
210	100
211	250
212	130
213	4394
214	1041
215	581
216	180
217	150
218	20
219	140
220	80
221	80
222	70
223	60
224	30
225	80
226	90
227	581
228	851
229	2702
230	490
231	140
232	100
233	170
234	70
235	210
236	60
237	40
238	50
239	200
240	70
241	290
242	120
243	150
244	110
245	250
246	110
247	520
248	110
249	60
250	210
251	60
252	50
253	190
254	150
255	9268
256	1942
257	370
258	60
259	240
260	420
261	230
262	90
263	40
269	50
270	20
271	100
272	60
273	50
274	260
275	140
276	50
277	20
281	40
283	70
284	40
285	70
286	40
287	90
288	30
289	90
290	250
291	110
292	50
297	30
298	30
299	50
300	40
301	30
302	30
303	601
304	350
305	110
306	70
310	20
311	90
312	50
313	190
314	180
315	130
316	60
317	60
318	250
319	130
320	50
321	20
325	120
326	90
327	130
328	80
329	210
330	100
331	60
332	50
339	60
340	60
342	40
343	110
344	80
345	911
346	290
347	90
349	10
351	90
352	30
353	2092
354	571
355	80
366	90
367	210
368	851
369	250
370	90
371	20
373	40
374	20
387	20
400	10
401	370
402	120
403	30
430	20
441	90
443	2372
444	931
445	220
446	70
447	20
456	140
458	9198
459	3423
460	901
461	180
462	40
