Mass Spectrum: 2-Oxazolidinone,4,4-dimethyl-
Formula: C5 H9 N O2
CAS: 26654-39-7
Molecular weight: 115
Origin: James Little,Eastman Chem.Co.,Kingsport,TN
m/z	RELATIVE INTENSITY
27	1351
29	2182
30	300
39	1091
40	400
41	1692
42	5595
43	821
44	500
53	60
54	260
55	170
56	7687
57	1591
58	230
69	60
70	80
71	50
72	140
84	210
85	90
86	470
99	60
100	9999
101	581
102	60
115	140
116	140
