Mass Spectrum: [1,1'-Biphenyl]-4-ol, 3,5-bis(1,1-dimethylethyl)-
Formula: C20 H26 O
CAS: 2668-47-5
Molecular weight: 282
Origin: V.G.Zaikin, TIPS, Russian Acad. Sci.
m/z	RELATIVE INTENSITY
57	4383
58	350
77	570
91	670
105	340
128	520
165	1481
167	810
178	1000
179	870
181	450
189	390
191	620
192	450
193	390
195	430
207	850
239	480
251	460
267	9999
268	2332
282	7957
283	1750
284	180
285	10
