Mass Spectrum: 3,4-Dichlorobenzamide
Formula: C7 H5 Cl2 N O
CAS: 2670-38-4
Molecular weight: 189
Origin: NIST Mass Spectrometry Data Center
m/z	RELATIVE INTENSITY
12	30
14	40
15	40
16	400
17	140
18	60
25	30
26	70
27	70
28	420
29	70
32	60
35	200
36	140
37	641
38	330
39	130
40	20
41	40
44	2282
47	150
48	70
49	390
50	1021
51	220
52	130
53	120
54	180
55	190
56	70
60	150
61	330
62	270
63	300
64	60
65	30
71	60
72	250
73	871
74	2592
75	2212
76	220
77	50
80	200
81	150
83	60
84	691
85	360
86	300
87	160
90	80
91	40
94	30
95	60
96	50
97	80
98	50
99	270
100	90
101	90
102	30
103	40
107	70
109	2362
110	871
111	1111
112	290
113	130
119	60
121	40
124	30
125	50
126	30
133	80
135	50
136	60
137	60
138	130
139	20
140	30
145	4334
146	500
147	2813
148	300
149	470
150	40
160	40
162	20
171	210
173	9999
174	1121
175	6636
176	520
177	1101
178	90
189	5505
190	500
191	3633
192	320
193	540
194	50
