Mass Spectrum: Hexadecane, 7-methyl-
Formula: C17 H36
CAS: 26730-20-1
Molecular weight: 240
Origin: W.L.MEAD BRITISH PETROLEUM CO. LTD., SUNBURY-ON-THAMES, UK
m/z	RELATIVE INTENSITY
39	270
40	70
41	2120
42	640
43	5310
44	170
53	120
54	110
55	1480
56	1230
57	9999
58	420
67	150
68	110
69	770
70	1050
71	7370
72	380
82	260
83	750
84	640
85	2830
86	170
96	90
97	420
98	310
99	1020
100	90
111	250
112	1840
113	1100
114	90
125	150
126	300
127	200
140	60
141	110
154	1070
155	740
156	90
168	100
169	100
182	40
183	60
196	50
197	50
210	50
211	110
225	200
226	40
240	90
