Mass Spectrum: Propanamide, N,2-dimethyl-
Formula: C5 H11 N O
CAS: 2675-88-9
Molecular weight: 101
Origin: A.E.WILLIAMS ICI DYESTUFFS DIVISION. BLACKLEY
m/z	RELATIVE INTENSITY
15	964
16	45
17	293
18	249
26	349
27	2546
28	872
29	446
30	950
31	667
32	872
37	73
38	99
39	575
40	177
41	1990
42	1511
43	9586
44	936
45	76
52	56
53	88
54	204
55	1077
56	163
57	102
58	9999
59	990
60	308
68	326
69	161
70	530
71	1833
72	187
73	3287
74	172
86	1735
87	88
100	410
101	3744
102	390
