Mass Spectrum: Chloroneb
Formula: C8 H8 Cl2 O2
CAS: 2675-77-6
Molecular weight: 206
Origin: ACCUSTANDARD Chemicals / NIST MS Data Center.
m/z	RELATIVE INTENSITY
12	16
13	36
14	169
15	1458
24	9
25	61
26	21
28	255
29	305
30	66
31	46
35	37
36	55
37	165
38	116
39	172
40	15
41	20
42	10
43	39
44	12
47	64
48	58
49	247
50	519
51	133
52	10
53	1962
54	63
55	19
60	514
61	638
62	1007
63	805
64	50
65	169
66	17
67	32
68	13
69	22
71	40
72	178
73	321
74	370
75	391
76	60
77	412
78	73
79	31
80	16
83	48
84	204
85	858
86	130
87	480
88	348
89	162
90	119
91	36
92	10
93	86
94	9
95	37
96	247
97	1223
98	328
99	915
100	225
101	154
102	49
103	91
104	24
105	97
106	18
107	43
108	110
109	181
110	84
111	315
112	18
113	2609
114	205
115	828
116	75
118	18
119	65
120	370
121	59
122	249
123	42
124	53
125	51
126	313
127	83
128	154
129	25
130	20
131	75
132	263
133	155
134	178
135	88
136	38
137	18
141	3119
142	295
143	1066
144	108
145	61
146	19
147	131
148	540
149	118
150	329
151	28
152	56
155	35
156	112
157	20
158	49
160	172
161	29
163	1350
164	160
165	850
166	72
167	140
168	13
169	13
171	19
173	12
175	57
176	14
177	54
178	9
179	16
191	9999
192	1172
193	6432
194	512
195	1102
196	78
197	7
203	24
206	5298
207	658
208	3630
209	301
210	611
211	51
