Mass Spectrum: Tetradecanoic acid, 10,13-dimethyl-, methyl ester
Formula: C17 H34 O2
CAS: 267650-23-7
Molecular weight: 270
Origin: N.M. Carballeira, Dep. Chem., Univ. Puerto Rico, Puerto Rico
m/z	RELATIVE INTENSITY
55	3700
57	5700
74	9999
87	6200
101	700
129	1300
143	2700
157	400
171	400
185	300
199	700
213	200
227	600
255	400
270	700
271	131
