Mass Spectrum: 1-Pentene, 1,1,5-trichloro-
Formula: C5 H7 Cl3
CAS: 2677-33-0
Molecular weight: 172
m/z	RELATIVE INTENSITY
15	70
25	40
26	220
27	891
28	350
29	130
31	170
32	110
35	60
36	100
37	440
38	631
39	2993
40	430
41	921
42	60
43	140
45	200
47	260
48	270
49	1021
50	691
51	851
52	80
53	240
54	40
55	410
56	30
57	40
58	30
59	70
60	330
61	651
62	540
63	1101
64	260
65	9999
66	791
67	140
68	180
69	130
70	30
71	60
72	290
73	1862
74	250
75	1521
76	651
77	400
78	210
79	30
80	30
81	20
82	120
83	791
84	200
85	1101
86	130
87	661
88	60
89	200
91	50
93	140
94	30
95	120
96	1551
97	250
98	1011
99	1431
100	811
101	9088
102	701
103	2853
104	180
105	50
107	220
108	60
109	4694
110	260
111	3013
112	160
113	480
114	30
117	50
119	120
120	130
121	290
122	110
123	410
124	70
125	210
126	20
127	60
129	30
130	120
131	50
132	120
133	60
134	50
135	140
136	4754
137	631
138	3123
139	370
140	530
141	80
143	60
144	200
145	70
146	200
147	40
148	70
155	160
156	90
157	140
158	70
159	50
160	30
164	20
166	30
172	1041
173	70
174	1011
175	80
176	330
177	40
178	40
