Mass Spectrum: Naphtho[2,3-b]thiophene
Formula: C12 H8 S
CAS: 268-77-9
Molecular weight: 184
Origin: A.A.Kutin, Moscow, Russia
m/z	RELATIVE INTENSITY
34	3
37	43
38	86
39	207
40	10
41	4
43	1
44	14
45	273
46	8
47	13
48	3
49	26
50	238
51	192
52	27
53	10
54	2
55	8
57	50
58	70
59	11
61	139
62	307
63	486
64	48
65	68
66	76
67	12
69	370
71	28
72	7
73	50
74	333
75	247
76	111
77	79
78	86
79	890
81	65
82	106
83	17
84	29
85	98
86	240
87	293
88	125
89	292
90	51
91	423
92	1267
93	325
94	34
95	38
96	6
97	30
98	181
99	108
100	43
101	55
102	31
103	5
104	4
105	39
106	60
107	17
108	40
109	39
110	73
111	66
112	33
113	377
114	242
115	132
116	18
117	78
118	15
119	42
120	14
121	27
122	43
123	19
124	10
125	40
126	129
127	45
128	7
129	12
130	15
131	9
132	51
133	23
134	97
135	13
137	189
138	337
139	2575
140	543
141	56
142	4
143	11
145	65
146	11
147	4
149	25
150	212
151	270
152	1003
153	130
154	9
156	29
157	35
158	205
159	25
160	10
161	1
169	14
170	2
171	1
172	0
180	4
182	191
184	9999
185	1494
186	564
187	64
188	6
