Mass Spectrum: 2-Propenamide, N,N-dimethyl-
Formula: C5 H9 N O
CAS: 2680-03-7
Molecular weight: 99
Origin: Japan AIST/NIMC Database- Spectrum MS-NW-1024
m/z	RELATIVE INTENSITY
13	20
14	70
15	1209
16	10
18	30
25	70
26	469
27	3309
28	749
29	60
30	159
31	30
32	40
37	30
38	50
39	90
40	129
41	469
42	2179
43	479
44	4039
45	919
46	80
51	10
52	20
53	169
54	70
55	9999
56	679
57	70
58	1439
59	40
66	20
68	50
69	40
70	149
71	99
72	2029
73	99
82	20
83	20
84	20
97	60
98	6879
99	4209
100	249
101	20
