Mass Spectrum: 1-Chloro-4-decyne
Formula: C10 H17 Cl
CAS: 26817-65-2
Molecular weight: 172
Origin: NIST Mass Spectrometry Data Center, 1990.
m/z	RELATIVE INTENSITY
26	304
27	2446
28	107
29	2118
38	358
39	3444
40	752
41	4995
42	568
43	657
49	310
50	758
51	2393
52	2039
53	3343
54	2810
55	3454
56	600
57	798
61	118
62	218
63	938
64	272
65	2604
66	1136
67	9999
68	1839
69	547
74	128
75	666
77	4315
78	1052
79	5492
80	1236
81	9446
82	1427
83	115
88	4914
89	661
90	1614
91	2050
92	294
93	1312
95	6731
96	568
101	266
102	657
103	559
104	249
105	462
107	913
108	535
109	4165
110	421
115	225
116	259
117	216
121	139
129	138
137	554
143	648
144	232
145	208
157	162
