Mass Spectrum: 2-Allyl-2-methyl-1,3-cyclopentanedione
Formula: C9 H12 O2
CAS: 26828-48-8
Molecular weight: 152
Origin: Japan AIST/NIMC Database- Spectrum MS-NW-7465
m/z	RELATIVE INTENSITY
12	10
13	10
14	99
15	409
16	20
17	10
18	30
25	50
26	1159
27	5479
28	6539
29	979
30	30
31	139
32	139
33	60
34	50
36	10
37	209
38	649
39	6419
40	1989
41	9999
42	1079
43	2209
44	179
45	70
46	20
47	60
48	30
49	50
50	399
51	719
52	439
53	3199
54	749
55	4349
56	6129
57	729
58	60
59	20
60	80
61	119
62	179
63	329
64	80
65	949
66	709
67	7949
68	6969
69	3389
70	309
71	70
72	10
73	30
74	149
75	40
76	20
77	619
78	189
79	1309
80	419
81	2529
82	819
83	949
84	409
85	269
86	20
87	20
88	10
89	30
90	20
91	899
92	719
93	1409
94	339
95	5939
96	2089
97	6519
98	749
99	80
100	20
101	30
102	30
103	40
104	20
105	219
106	149
107	359
108	449
109	9139
110	4089
111	789
112	229
113	40
114	10
115	99
116	70
117	40
118	20
119	189
120	30
121	70
122	60
123	1009
124	4259
125	1229
126	109
127	20
128	10
129	10
130	20
131	30
132	40
133	70
134	99
135	80
136	20
137	1409
138	139
139	20
145	10
146	10
147	20
148	10
149	30
150	90
151	139
152	3679
153	399
154	50
