Mass Spectrum: Naphtho[1,2-d]thiazole, 2-methyl-
Formula: C12 H9 N S
CAS: 2682-45-3
Molecular weight: 199
Origin: RADIAN CORP
m/z	RELATIVE INTENSITY
26	30
27	70
37	30
38	70
39	150
42	30
45	270
50	190
51	180
52	30
57	30
58	50
59	60
61	130
62	290
63	500
64	100
65	50
66	160
69	490
70	50
71	30
73	50
74	270
75	260
76	130
77	120
79	960
81	90
82	150
85	130
86	220
87	310
88	390
89	140
93	340
94	40
95	40
98	110
99	130
100	310
101	80
102	40
105	60
106	90
108	90
110	30
111	20
113	920
114	1910
115	610
116	50
117	110
119	80
125	50
126	180
127	230
128	120
132	90
139	100
140	170
141	50
145	20
152	50
153	470
154	750
155	100
156	50
157	120
158	2210
159	700
160	150
164	10
166	520
167	730
168	80
170	40
171	290
172	110
196	40
197	40
198	2480
199	9999
200	1490
201	520
202	50
