Mass Spectrum: 2,4-Dichloro-6-nitroaniline
Formula: C6 H4 Cl2 N2 O2
CAS: 2683-43-4
Molecular weight: 206
Origin: NIST Mass Spectrometry Data Center, 1994
m/z	RELATIVE INTENSITY
4	12
16	121
26	77
28	719
30	1911
32	75
35	164
36	217
37	732
38	701
39	288
40	84
41	163
45	317
46	534
47	235
48	166
49	604
50	569
51	636
52	2029
53	312
60	455
61	1757
62	2829
63	2243
64	533
65	918
66	67
71	188
72	604
73	1673
74	788
75	1150
76	1021
77	237
78	420
80	74
83	297
84	238
85	549
86	456
87	503
88	1449
89	1272
90	1715
91	137
95	132
96	423
97	3288
98	801
99	1261
100	347
101	251
102	70
103	159
104	95
106	61
107	354
108	135
109	316
110	336
111	151
112	544
113	194
114	215
120	52
121	208
122	117
123	52
124	9147
125	2177
126	3157
127	607
131	59
132	226
133	1951
134	281
135	1384
136	166
137	453
138	42
139	171
140	107
141	68
145	57
146	84
148	1800
149	181
150	1122
151	89
152	184
158	125
160	8334
161	835
162	5016
163	442
164	918
165	77
172	59
176	1279
177	137
178	742
179	59
180	125
189	274
190	143
191	237
192	78
206	9999
207	860
208	6835
209	525
210	1157
211	78
