Mass Spectrum: Penfluridol
Formula: C28 H27 Cl F5 N O
CAS: 26864-56-2
Molecular weight: 523
Origin: Drug Lab
m/z	RELATIVE INTENSITY
41	160
42	1742
43	210
44	240
45	10
51	10
53	30
54	60
55	150
56	601
57	280
58	80
60	90
63	10
67	10
68	120
69	90
70	230
71	50
72	30
73	10
74	10
75	50
77	20
80	20
81	20
82	130
83	140
84	240
85	30
86	90
87	10
89	20
91	10
94	40
95	40
96	120
97	40
98	150
99	50
101	140
103	80
107	30
109	1131
110	90
111	10
112	40
115	50
116	10
119	10
120	40
121	120
122	80
123	90
124	10
125	50
126	10
127	50
128	70
129	130
130	20
131	30
132	10
133	150
134	50
135	70
136	30
138	20
139	10
141	10
143	30
144	60
145	50
146	80
147	310
148	50
149	130
150	30
151	80
152	20
153	10
156	10
157	30
158	30
159	50
160	30
161	40
162	30
163	50
164	80
165	50
166	40
167	60
168	10
169	60
170	110
171	30
172	30
173	10
174	10
175	40
176	30
177	120
178	50
179	350
180	60
181	160
182	70
183	1141
184	180
185	60
186	10
187	90
188	100
189	110
190	20
191	40
192	10
193	370
194	60
195	170
196	90
197	110
198	180
199	60
201	2252
202	450
203	1451
204	220
205	350
206	70
207	621
208	80
209	190
210	40
211	30
212	20
213	40
214	120
215	120
216	90
217	70
218	10
219	20
220	30
221	20
222	40
223	10
224	20
225	20
226	120
227	70
228	20
229	30
230	10
231	10
232	30
233	80
234	30
235	70
236	30
237	30
238	30
239	110
240	30
241	10
242	70
243	20
244	50
245	40
246	20
247	20
248	10
250	20
251	90
252	30
253	40
254	10
255	10
257	200
258	70
259	30
260	150
261	2032
262	390
263	681
264	160
265	20
266	20
272	871
273	170
274	2652
275	400
276	881
277	130
278	160
279	1031
280	180
281	350
282	50
286	220
287	50
288	20
289	30
290	40
292	9999
293	1511
294	3433
295	490
296	40
300	60
301	20
302	30
304	10
305	230
306	40
307	80
308	10
318	40
320	20
386	30
388	10
488	30
489	10
