Mass Spectrum: 2-Aminodiphenyl ether
Formula: C12 H11 N O
CAS: 2688-84-8
Molecular weight: 185
Origin: NIST Mass Spectrometry Data Center
m/z	RELATIVE INTENSITY
15	40
17	10
18	40
26	190
27	941
28	901
29	70
30	90
37	190
38	681
39	2372
40	260
41	340
42	150
43	10
50	1151
51	3163
52	1922
53	2132
54	480
55	80
61	80
62	280
63	811
64	631
65	1581
66	751
67	60
68	10
70	10
73	40
74	220
75	200
76	260
77	1601
78	761
79	1702
80	6216
81	410
82	30
83	20
87	20
88	20
89	110
90	90
91	370
92	190
93	110
94	70
95	10
101	30
102	80
103	80
104	80
105	60
106	30
108	3463
109	330
110	20
113	20
114	30
115	210
116	70
117	110
118	20
120	190
121	20
126	30
127	250
128	500
129	540
130	370
131	60
132	10
133	20
139	160
140	90
141	80
142	30
143	10
144	20
154	290
156	1411
157	290
158	40
159	20
164	10
166	230
167	300
168	1511
169	220
170	911
171	90
182	50
183	280
184	1571
185	9999
186	1221
187	100
