Mass Spectrum: Phenol, 3,5-bis(1-methylethyl)-
Formula: C12 H18 O
CAS: 26886-05-5
Molecular weight: 178
Origin: L.E. Slivon, Battelle Columbus Laboratories, Columbus, Ohio 43201
m/z	RELATIVE INTENSITY
40	168
41	1309
42	114
43	1326
44	110
45	46
47	21
48	25
49	84
50	101
51	387
52	131
53	337
54	80
55	316
56	21
57	67
58	38
59	59
60	25
61	4
62	72
63	328
64	131
65	661
66	244
67	164
68	46
69	105
70	8
71	13
72	88
73	194
74	215
75	88
76	72
77	1458
78	299
79	543
80	101
81	88
82	17
83	17
84	55
85	13
86	38
87	63
88	25
89	202
90	88
91	2005
92	211
93	589
94	189
95	467
96	72
97	8
98	13
99	13
101	29
102	143
103	1145
104	202
105	585
106	126
107	3063
108	387
109	80
111	4
113	46
114	38
115	729
116	177
117	442
118	118
119	522
120	181
121	4636
122	463
123	152
126	50
127	164
128	303
129	181
130	147
131	253
132	219
133	455
134	290
135	4957
136	610
137	55
139	46
141	13
143	29
144	55
145	143
146	97
147	383
148	143
149	345
150	269
151	67
152	34
157	34
159	34
161	164
162	88
163	9999
164	1221
165	105
166	13
167	8
168	21
169	4
170	46
171	4
176	38
177	76
178	4331
179	623
180	63
