Mass Spectrum: 3-Cyclopentylcyclopentene
Formula: C10 H16
CAS: 2690-17-7
Molecular weight: 136
Origin: NIST Mass Spectrometry Data Center, 1990.
m/z	RELATIVE INTENSITY
26	73
27	603
28	304
29	201
39	2145
40	493
41	3052
42	295
50	169
51	496
52	241
53	613
54	149
55	171
62	74
63	203
65	1320
66	4412
67	9999
68	4068
69	1074
70	64
77	1097
78	327
79	1409
80	335
81	141
82	58
91	756
92	122
93	576
94	642
95	2192
96	172
105	64
107	303
108	156
121	287
136	1765
137	198
