Mass Spectrum: Octane, 1,1'-thiobis-
Formula: C16 H34 S
CAS: 2690-08-6
Molecular weight: 258
Origin: Japan AIST/NIMC Database- Spectrum MS-NW-2737
m/z	RELATIVE INTENSITY
14	10
15	10
26	30
27	619
28	109
29	1489
30	30
32	50
34	20
35	30
38	10
39	369
40	70
41	2809
42	759
43	3439
44	109
45	169
46	109
47	329
48	40
49	30
51	10
52	10
53	149
54	199
55	3179
56	2179
57	2599
58	129
59	80
60	449
61	1959
62	99
63	99
65	20
66	20
67	329
68	739
69	4949
70	2589
71	1489
72	80
73	90
74	50
75	179
76	40
77	30
79	30
80	10
81	149
82	719
83	2069
84	1929
85	179
86	10
87	559
88	99
89	439
90	40
91	20
95	30
96	10
97	249
98	50
99	10
101	259
102	40
103	129
104	10
105	30
109	10
110	50
111	249
112	2859
113	269
114	10
115	50
116	20
117	50
120	20
129	10
131	70
132	10
143	30
144	379
145	9999
146	1409
147	709
148	70
149	10
159	1099
160	149
161	60
173	279
174	30
175	10
178	30
187	90
188	10
201	339
202	50
203	20
215	80
216	10
229	109
230	20
243	40
244	10
257	239
258	2109
259	409
260	139
261	20
