Mass Spectrum: 2-Benzyl-4,4,6-trimethyl-5,6-dihydro-1,3(4H)oxazine
Formula: C14 H19 N O
CAS: 26939-22-0
Molecular weight: 217
Origin: NIST Mass Spectrometry Data Center, 1994
m/z	RELATIVE INTENSITY
15	278
18	300
19	288
27	368
28	539
29	416
30	233
38	225
39	2052
40	359
41	2710
42	1816
43	1565
44	479
45	3164
46	118
50	394
51	1300
52	267
53	306
54	118
55	1269
56	1449
57	6073
58	5376
59	31
62	135
63	799
64	319
65	2634
66	263
67	236
68	80
69	104
70	379
71	31
72	456
75	74
76	172
77	2002
78	267
79	332
82	196
83	1954
84	6106
85	693
86	155
88	234
89	1026
90	905
91	9999
92	4447
93	361
98	82
99	146
100	196
101	1836
102	869
103	101
104	110
105	866
106	250
115	90
116	182
117	144
118	687
119	279
126	111
134	128
136	788
137	110
144	1902
145	203
167	241
168	220
202	207
216	859
217	1547
218	212
