Mass Spectrum: Benzoic acid, 2,3,6-trichloro-, methyl ester
Formula: C8 H5 Cl3 O2
CAS: 2694-06-6
Molecular weight: 238
Origin: MASS SPEC DATA COMPILATION OF PEST & IND CHEM, T.CAIRNS,FDA,USA
m/z	RELATIVE INTENSITY
47	270
49	680
50	400
51	200
54	670
55	310
59	1360
60	240
61	420
62	460
63	220
71	780
72	1290
73	2230
74	4800
75	670
83	300
84	2160
85	510
86	770
87	300
89	250
90	350
97	510
99	200
103	420
104	390
105	220
107	270
108	2470
109	3570
110	1130
111	1410
118	630
119	300
120	440
121	230
125	200
143	3110
144	2110
145	2150
146	1560
147	610
148	230
153	470
155	210
160	300
179	4120
180	380
181	3290
182	350
183	1340
188	200
206	230
207	9860
208	1380
209	9999
210	1020
211	3780
212	380
213	420
238	2670
239	230
240	2000
241	240
242	770
