Mass Spectrum: 8-Bromo-1-octene
Formula: C8 H15 Br
CAS: 2695-48-9
Molecular weight: 190
Origin: Japan AIST/NIMC Database- Spectrum MS-NW-7332
m/z	RELATIVE INTENSITY
15	30
26	109
27	1539
28	289
29	1109
30	20
37	20
38	109
39	2239
40	399
41	7169
42	1459
43	1019
44	40
45	10
50	90
51	189
52	109
53	769
54	1159
55	6659
56	1449
57	239
58	10
62	20
63	40
65	119
66	70
67	1579
68	1439
69	9999
70	729
71	60
72	10
77	60
78	20
79	99
80	50
81	699
82	729
83	1819
84	219
85	20
91	20
93	99
95	139
96	10
97	80
105	10
106	30
107	559
108	50
109	559
110	50
111	299
112	30
119	40
120	189
121	139
122	189
123	109
125	20
133	20
134	189
135	419
136	189
137	399
138	20
147	10
148	4009
149	309
150	3879
151	299
152	10
161	50
162	269
163	60
164	249
165	20
190	30
192	40
