Mass Spectrum: 1-Hexene, 6-bromo-
Formula: C6 H11 Br
CAS: 2695-47-8
Molecular weight: 162
Origin: NIST Mass Spectrometry Data Center, 1990.
m/z	RELATIVE INTENSITY
14	73
15	279
16	28
18	79
26	648
27	3842
28	1511
29	1812
32	59
37	208
38	638
39	5943
40	1114
41	8877
42	1507
43	252
50	485
51	694
52	353
53	1326
54	2664
55	9999
56	889
63	107
65	237
67	3699
68	240
69	745
77	138
78	62
79	288
80	89
81	467
82	2693
83	6376
84	413
93	221
95	276
106	91
107	227
108	64
109	151
119	80
120	267
121	239
122	281
123	187
134	259
136	274
162	194
164	172
