Mass Spectrum: 2-Pyrazoline, 1-isobutyl-3-methyl-
Formula: C8 H16 N2
CAS: 26964-53-4
Molecular weight: 140
Origin: ATLAS OF MASS SPECTRA OF ORGANIC COMPOUNDS, V. A. KOPTYUG, ED.
m/z	RELATIVE INTENSITY
26	40
27	320
28	600
29	310
30	30
39	220
41	430
42	1160
43	130
53	50
54	110
55	140
56	310
57	60
58	30
68	160
69	680
70	50
82	30
83	310
84	70
95	70
96	80
97	9999
98	470
99	20
125	60
139	30
140	770
141	80
