Mass Spectrum: Nitrosyl chloride
Formula: Cl N O
CAS: 2696-92-6
Molecular weight: 65
Origin: L.FORNSTEDT INST. OF PHYS. CHEM., UPPSALA UNIV., SWEDEN
m/z	RELATIVE INTENSITY
14	280
16	190
30	9999
35	2170
37	700
46	20
49	160
51	60
