Mass Spectrum: 2-Pyrazoline, 1-isopropyl-5-methyl-
Formula: C7 H14 N2
CAS: 26964-54-5
Molecular weight: 126
Origin: ATLAS OF MASS SPECTRA OF ORGANIC COMPOUNDS, V. A. KOPTYUG, ED.
m/z	RELATIVE INTENSITY
26	80
27	830
29	230
30	90
38	40
39	530
40	150
41	1040
42	3190
43	680
44	660
52	40
53	70
54	170
55	110
56	260
57	40
58	50
67	50
68	340
69	7660
70	420
81	50
82	80
83	360
84	90
111	9999
112	550
125	90
126	2660
127	210
