Mass Spectrum: Benzo[c]thiophene
Formula: C8 H6 S
CAS: 270-82-6
Molecular weight: 134
Origin: R.F.X. Klein, Dep. Chem., Georgetown Univ., Washington, D.C., USA
m/z	RELATIVE INTENSITY
45	371
50	195
51	180
54	29
57	31
58	94
61	113
62	264
63	645
64	76
66	52
67	512
69	530
70	38
71	49
73	23
74	135
75	112
76	41
77	53
81	114
82	197
84	130
85	45
86	80
87	73
89	1301
90	1042
91	66
93	190
95	82
102	238
108	527
132	55
133	439
134	9999
135	983
136	482
137	28
