Mass Spectrum: Methyl 3,5-dinitrobenzoate
Formula: C8 H6 N2 O6
CAS: 2702-58-1
Molecular weight: 226
Origin: NIST Mass Spectrometry Data Center, 1994
m/z	RELATIVE INTENSITY
12	40
15	1864
17	19
18	91
26	32
27	54
29	548
30	2907
31	183
37	299
38	361
39	276
40	3
41	24
42	23
43	18
44	34
46	477
48	17
49	105
50	440
51	297
52	146
53	259
54	25
55	27
59	983
60	65
61	300
62	718
63	1304
64	202
65	69
66	100
67	31
68	21
69	129
70	18
73	567
74	4318
75	8051
76	852
77	204
78	134
79	171
80	38
82	19
86	50
87	71
88	88
89	109
90	127
91	342
92	139
93	53
94	27
101	216
102	843
103	1096
104	188
105	103
106	182
107	237
108	33
109	19
116	18
118	365
119	556
120	543
121	144
122	184
123	19
133	1235
134	845
135	293
136	133
137	95
138	18
148	540
149	3524
150	397
151	69
152	39
162	27
163	32
164	52
165	186
166	520
167	87
179	146
180	450
181	1710
182	160
183	24
191	17
195	9999
196	6956
197	674
198	101
209	60
210	146
226	794
227	83
