Mass Spectrum: 5-Nonen-2-one
Formula: C9 H16 O
CAS: 27039-84-5
Molecular weight: 140
Origin: CARL DJERASSI DEPT OF CHEM STANFORD UNIV STANFORD CALIF 94305
m/z	RELATIVE INTENSITY
39	1200
40	200
41	2100
42	100
43	9999
44	200
51	100
53	400
54	500
55	2800
56	200
58	500
65	100
67	2700
68	100
69	400
71	1000
72	300
73	200
77	100
79	100
81	400
82	3100
83	400
84	200
85	300
97	1200
98	100
111	400
122	100
125	200
140	500
