Mass Spectrum: 2-Bromo-5-methoxytoluene
Formula: C8 H9 Br O
CAS: 27060-75-9
Molecular weight: 200
Origin: NIST Mass Spectrometry Data Center
m/z	RELATIVE INTENSITY
15	90
26	20
27	70
29	50
30	10
37	100
38	290
39	621
40	20
41	60
42	10
43	40
44	10
45	10
49	90
50	951
51	2122
52	1021
53	210
54	20
55	50
60	40
61	270
62	691
63	1481
64	260
65	530
66	100
67	40
73	80
74	440
75	320
76	340
77	3063
78	4014
79	340
80	30
81	30
82	10
84	20
85	100
86	200
87	140
88	50
89	1131
90	771
91	2983
92	320
93	340
94	20
95	10
100	60
101	60
103	20
104	20
105	681
106	691
107	80
116	30
117	140
118	40
119	210
120	210
121	2542
122	220
123	10
128	10
129	20
130	10
131	60
133	30
141	10
142	10
143	40
144	10
145	30
155	20
156	60
157	3123
158	260
159	2993
160	190
169	180
170	140
171	200
172	130
173	20
183	20
185	2813
186	240
187	2712
188	210
189	10
200	9999
201	991
202	9639
203	851
204	50
