Mass Spectrum: 2-Pyridineethanamine
Formula: C7 H10 N2
CAS: 2706-56-1
Molecular weight: 122
Origin: Japan AIST/NIMC Database- Spectrum MS-NW-5768
m/z	RELATIVE INTENSITY
26	90
27	209
28	489
29	60
30	2819
31	50
32	10
37	60
38	139
39	599
40	159
41	169
42	179
43	139
44	90
45	10
46	10
49	20
50	189
51	449
52	389
53	199
54	80
55	10
56	10
57	10
60	10
61	30
62	50
63	139
64	99
65	579
66	949
67	269
68	20
69	10
70	10
73	10
74	10
75	20
76	30
77	80
78	549
79	799
80	539
81	30
83	10
90	10
91	50
92	609
93	9999
94	1139
95	60
103	10
104	309
105	939
106	689
107	99
118	60
119	109
120	30
121	579
122	179
123	20
