Mass Spectrum: Benzofuran
Formula: C8 H6 O
CAS: 271-89-6
Molecular weight: 118
Origin: Japan AIST/NIMC Database- Spectrum MS-NW-3084
m/z	RELATIVE INTENSITY
25	10
26	50
27	50
28	40
29	60
31	10
36	20
37	159
38	269
39	559
40	99
41	10
42	10
43	169
44	70
45	269
48	10
49	60
50	239
51	299
52	20
53	50
55	10
57	10
59	279
60	30
61	209
62	529
63	1339
64	479
65	30
66	10
73	20
74	60
75	50
76	10
77	10
78	10
84	20
85	70
86	119
87	119
88	60
89	2939
90	3399
91	259
92	20
117	30
118	9999
119	899
120	50
121	10
