Mass Spectrum: 1H-Pyrrolo[2,3-b]pyridine
Formula: C7 H6 N2
CAS: 271-63-6
Molecular weight: 118
Origin: NIST Mass Spectrometry Data Center, 1992
m/z	RELATIVE INTENSITY
12	9
13	10
14	13
15	14
16	1
24	11
25	37
26	150
27	224
28	1179
29	21
30	6
36	67
37	614
38	886
39	945
40	242
41	444
42	32
45	55
46	137
48	20
49	112
50	388
51	393
52	363
53	183
54	35
55	10
57	3
59	529
60	84
61	401
62	818
63	2301
64	2140
65	591
66	122
67	451
68	28
72	4
73	27
74	98
75	118
76	97
77	67
78	251
79	50
86	34
87	70
88	118
89	155
90	989
91	5651
92	714
93	33
94	3
103	8
117	1398
118	9999
119	815
120	32
