Mass Spectrum: 1,2-Benzisoxazole
Formula: C7 H5 N O
CAS: 271-95-4
Molecular weight: 119
Origin: Japan AIST/NIMC Database- Spectrum MS-NW-3052
m/z	RELATIVE INTENSITY
12	10
14	10
15	10
18	20
24	10
25	50
26	149
27	139
28	259
29	60
30	20
31	159
32	30
36	80
37	749
38	1379
39	979
40	129
41	379
42	50
43	50
44	199
45	449
46	40
47	10
48	30
49	159
50	419
51	279
52	709
53	289
54	20
55	40
59	20
60	90
61	479
62	889
63	3469
64	4609
65	849
66	119
67	40
68	10
69	10
70	10
72	10
73	50
74	119
75	109
76	219
77	30
78	10
79	10
84	10
85	20
86	60
87	80
88	80
89	50
90	289
91	7789
92	1269
93	169
94	70
99	10
102	10
104	60
105	10
118	40
119	9999
120	839
121	529
122	509
123	40
