Mass Spectrum: 2,1-Benzisoxazole
Formula: C7 H5 N O
CAS: 271-58-9
Molecular weight: 119
Origin: M.H. PALMER, UNIV. EDINBURGH, EDINBURGH, SCOTLAND
m/z	RELATIVE INTENSITY
29	700
30	200
36	200
37	1000
38	1500
39	1800
40	400
41	700
43	100
49	200
50	600
51	700
52	1100
53	300
61	600
62	700
63	3000
64	5000
65	900
66	300
74	300
75	500
76	300
77	200
90	700
91	2400
92	7700
93	1000
118	300
119	9999
