Mass Spectrum: Ethyne, fluoro-
Formula: C2 H F
CAS: 2713-09-9
Molecular weight: 44
Origin: E.Kloster-Jensen ET AL. Helv. Chim. Acta,53,251(1970)
m/z	RELATIVE INTENSITY
12	70
13	80
22	70
24	190
25	751
31	1571
43	1001
44	9999
45	240
