Mass Spectrum: Diphosphine, tetrakis(trifluoromethyl)-
Formula: C4 F12 P2
CAS: 2714-60-5
Molecular weight: 338
Origin: A.Pleshkova, Nesmeyanov Inst.Org.Elem.Cpds, Moscow
m/z	RELATIVE INTENSITY
31	881
32	10
50	210
62	500
63	10
69	9999
70	120
81	380
93	150
100	1431
101	20
119	2292
120	30
131	1051
132	20
150	250
169	400
170	10
231	170
269	210
270	10
319	1221
320	50
338	2232
339	100
