Mass Spectrum: Bicyclo[2.2.2]octanone
Formula: C8 H12 O
CAS: 2716-23-6
Molecular weight: 124
Origin: CARL DJERASSI DEPT OF CHEM STANFORD UNIV STANFORD CALIF 94305
m/z	RELATIVE INTENSITY
40	200
41	1800
42	100
44	200
50	100
51	200
52	100
53	700
54	2900
55	1600
56	100
63	100
65	100
66	200
67	2700
68	1100
69	100
70	200
77	200
78	500
79	800
80	9999
81	2100
82	500
83	100
91	200
92	100
95	400
96	100
124	3000
125	200
