Mass Spectrum: 1-Chloro-9-phenylnonane
Formula: C15 H23 Cl
CAS: 27175-81-1
Molecular weight: 238
Origin: NIST Mass Spectrometry Data Center, 1994
m/z	RELATIVE INTENSITY
15	18
17	21
18	19
26	61
27	1283
29	1282
30	37
36	30
38	68
39	1293
40	187
41	2988
42	393
43	820
44	31
49	176
50	111
51	498
52	147
53	298
54	132
55	1276
56	177
57	394
58	14
61	19
62	68
63	362
64	86
65	1391
66	105
67	178
68	94
69	775
70	71
71	37
75	61
76	56
77	597
78	714
79	469
80	72
81	61
82	32
83	35
89	230
91	9999
92	9758
93	760
94	53
95	16
102	66
103	277
104	714
105	902
106	166
107	28
111	22
115	170
116	46
117	251
118	76
119	198
120	71
125	27
127	18
128	30
131	31
133	499
134	163
135	15
147	70
148	20
195	19
238	746
239	125
240	259
241	39
