Mass Spectrum: Diisodecyl adipate
Formula: C26 H50 O4
CAS: 27178-16-1
Molecular weight: 426
Origin: Japan AIST/NIMC Database- Spectrum MS-IW-6350
m/z	RELATIVE INTENSITY
27	99
28	70
29	349
31	10
39	99
40	20
41	1139
42	289
43	2539
44	80
45	20
53	70
54	90
55	2649
56	1039
57	3619
58	179
59	109
60	10
61	10
65	10
66	10
67	249
68	279
69	2449
70	1839
71	4029
72	209
73	99
74	10
77	10
79	40
80	20
81	269
82	449
83	2009
84	1819
85	3849
86	289
87	109
91	20
93	20
94	10
95	209
96	349
97	1329
98	989
99	1069
100	299
101	869
102	99
103	30
107	10
108	10
109	129
110	259
111	1989
112	1319
113	189
114	40
115	169
116	10
119	20
123	60
124	80
125	329
126	249
127	239
128	109
129	9999
130	679
131	99
135	10
137	20
138	259
139	169
140	2269
141	2659
142	299
143	40
144	10
145	30
146	30
147	2149
148	139
149	30
151	10
152	20
153	10
154	109
155	109
156	80
157	50
158	10
160	10
161	10
165	10
166	20
167	10
168	10
169	20
170	40
171	30
172	10
174	10
175	20
180	10
181	10
183	80
184	80
185	119
186	10
189	10
193	10
194	10
197	90
198	80
199	60
200	10
201	50
202	10
203	30
211	129
212	40
213	249
214	40
215	20
216	10
217	20
225	129
226	159
227	549
228	139
229	40
231	30
239	90
240	359
241	99
242	70
243	20
245	10
251	20
253	99
255	639
256	109
257	10
259	10
267	50
268	50
269	8999
270	1599
271	219
272	20
273	559
274	99
275	10
282	10
283	349
284	80
285	30
287	9539
288	1709
289	219
290	20
299	10
300	90
301	429
302	80
303	10
313	90
314	159
315	40
327	149
328	70
329	10
341	479
342	199
343	40
355	259
356	189
357	50
358	10
369	219
370	159
371	60
383	219
384	70
385	10
397	229
398	70
399	10
411	179
412	99
413	40
425	30
426	629
427	339
428	70
429	10
