Mass Spectrum: 2-Cyclohexen-1-one, 3-(3-hydroxybutyl)-2,4,4-trimethyl-
Formula: C13 H22 O2
CAS: 27185-79-1
Molecular weight: 210
Origin: Philip Morris R&D
m/z	RELATIVE INTENSITY
38	1363
39	2374
40	2449
41	5762
42	1075
43	9999
44	2734
45	2752
51	496
52	191
53	1716
54	486
55	4809
56	1514
57	2762
58	1223
59	486
60	874
61	313
65	450
66	230
67	2417
68	457
69	2467
70	849
71	1460
73	950
77	896
78	288
79	1277
80	281
81	1629
82	784
83	1266
84	669
85	712
91	1230
92	255
93	1572
94	586
95	2244
96	1021
97	2151
98	1039
99	773
105	655
107	1644
108	759
109	3219
110	1759
111	1838
112	446
113	216
119	615
120	234
121	1521
122	568
123	1018
124	712
125	504
126	158
129	306
133	579
135	2011
136	906
137	3867
138	917
139	1129
149	763
150	320
151	349
152	2960
153	1626
154	2572
155	234
163	960
164	230
165	2097
166	446
177	604
185	140
192	212
195	1090
210	777
