Mass Spectrum: 2-Cyclohexen-1-one, 2,4,4-trimethyl-3-(3-oxo-1-butenyl)-
Formula: C13 H18 O2
CAS: 27185-77-9
Molecular weight: 206
Origin: Philip Morris R&D
m/z	RELATIVE INTENSITY
39	940
40	1159
41	1392
42	295
43	5663
44	415
45	240
51	350
52	149
53	559
55	1441
56	266
57	632
58	222
60	151
63	245
65	710
66	178
67	506
69	587
70	131
71	321
77	984
78	238
79	843
80	157
81	436
82	172
83	217
91	1472
92	272
93	1352
94	167
95	337
96	277
97	206
98	206
103	201
105	1193
106	298
107	1125
108	984
109	754
110	146
111	102
115	180
117	206
119	1352
120	269
121	3987
122	2611
123	548
131	290
133	567
134	136
135	2130
136	1454
137	295
145	538
147	428
148	616
150	2397
151	441
163	9999
164	3052
165	449
177	381
178	277
191	1277
192	157
206	7775
207	1274
