Mass Spectrum: 2-Nitrophenyl isothiocyanate
Formula: C7 H4 N2 O2 S
CAS: 2719-30-4
Molecular weight: 180
Origin: NIST Mass Spectrometry Data Center, 1994
m/z	RELATIVE INTENSITY
14	63
16	91
25	64
26	360
27	465
28	469
29	63
30	2224
31	63
32	641
33	28
36	94
37	1202
38	1449
39	3452
40	222
41	47
44	910
45	1186
46	708
47	100
48	643
49	552
50	4417
51	1592
52	713
53	228
54	52
56	69
57	242
58	399
59	134
60	210
61	569
62	923
63	6259
64	3422
65	255
66	82
67	45
68	144
69	791
70	828
71	211
72	137
73	396
74	1970
75	2540
76	1605
77	2667
78	1225
79	132
80	109
81	264
82	396
83	453
84	478
85	65
86	154
87	351
88	322
89	65
90	9999
91	776
92	287
93	216
94	361
95	591
96	326
97	656
98	75
99	116
100	56
102	107
104	4998
105	466
106	894
107	1706
108	618
109	522
110	188
118	295
119	181
120	363
121	181
122	1087
123	142
124	635
125	316
126	61
132	267
133	750
134	1940
135	314
136	492
137	55
138	302
139	30
148	289
150	1528
151	199
152	1767
153	181
154	78
164	57
180	5765
181	550
182	318
