Mass Spectrum: Benzo[b]tellurophene
Formula: C8 H6 Te
CAS: 272-35-5
Molecular weight: 232
m/z	RELATIVE INTENSITY
63	444
74	1000
75	1555
76	2311
89	178
90	222
101	889
102	9999
103	1000
114	133
115	133
116	178
124	133
125	133
126	400
128	667
130	822
224	444
225	289
226	889
227	1333
228	2755
229	400
230	4577
231	622
232	4888
233	622
