Mass Spectrum: 1,2-Benzisothiazole
Formula: C7 H5 N S
CAS: 272-16-2
Molecular weight: 135
m/z	RELATIVE INTENSITY
39	500
45	600
50	400
51	300
54	500
58	500
61	200
62	300
63	900
64	300
69	1600
74	200
75	200
76	200
77	200
81	300
82	700
84	300
90	100
91	1300
92	100
93	100
107	150
108	2500
109	300
110	100
133	50
134	300
135	9999
136	900
137	500
