Mass Spectrum: Benzo[b]selenophene
Formula: C8 H6 Se
CAS: 272-30-0
Molecular weight: 182
m/z	RELATIVE INTENSITY
61	178
62	289
63	755
64	111
65	178
74	1067
75	1022
76	622
89	1689
90	156
91	667
100	222
101	333
102	6333
103	778
104	178
105	178
106	178
113	133
114	156
115	244
116	156
117	622
118	111
119	178
128	244
129	333
130	378
131	222
132	244
139	178
140	89
141	289
176	133
177	156
178	2044
179	1978
180	5111
181	1200
182	9999
183	978
184	1889
185	222
