Mass Spectrum: 5-Azabenzimidazole
Formula: C6 H5 N3
CAS: 272-97-9
Molecular weight: 119
Origin: NIST Mass Spectrometry Data Center, 1994
m/z	RELATIVE INTENSITY
24	43
25	138
26	369
27	237
28	1381
36	194
37	1464
38	2746
39	765
40	834
41	913
42	90
46	39
49	100
50	219
51	624
52	1843
53	265
54	74
60	130
62	211
63	629
64	2241
65	2385
66	890
67	243
68	152
75	59
76	69
77	112
78	61
79	157
90	71
91	476
92	3284
93	315
118	900
119	9999
120	832
