Mass Spectrum: Carbazole, tetrahydro-9-acetyl-
Formula: C14 H15 N O
CAS: 27236-49-3
Molecular weight: 213
Origin: A.A.Kutin, Moscow, Russia
m/z	RELATIVE INTENSITY
33	23
37	12
39	238
41	174
43	1379
44	23
45	5
50	106
51	155
52	51
53	31
54	13
55	3
59	4
60	2
62	76
63	166
64	54
65	78
66	10
67	4
70	3
71	11
73	15
74	78
75	163
76	152
77	231
78	43
79	4
83	7
84	14
85	8
86	25
87	42
88	73
89	192
90	83
91	58
92	8
93	4
98	8
101	214
102	206
103	83
104	26
105	1
111	5
113	94
115	1037
116	270
117	144
118	21
126	68
127	199
128	388
129	134
130	207
131	18
132	1
133	2
137	7
139	154
140	227
143	9999
144	682
145	58
146	34
147	2
150	5
151	18
152	58
154	375
155	148
156	78
157	13
158	14
159	13
163	3
164	16
165	37
166	221
167	677
168	968
170	2938
171	6154
172	599
173	47
174	2
180	3
182	4
184	33
185	41
187	39
188	1
190	1
194	3
197	1
198	12
199	2
200	1
203	5
209	31
210	49
213	5505
214	590
215	60
216	5
