Mass Spectrum: 3-Pyrazolin-5-one, 4-butyl-1,2-diphenyl-3-methoxy-
Formula: C20 H22 N2 O2
CAS: 27258-01-1
Molecular weight: 322
Origin: Association of Official Racing Chemists
m/z	RELATIVE INTENSITY
50	261
51	1193
52	226
53	266
54	344
55	305
56	56
57	489
58	77
59	56
61	128
63	184
64	480
65	618
66	80
67	238
68	200
69	4
72	101
73	5
75	124
77	5291
78	551
79	159
80	90
81	43
83	153
84	83
85	89
87	102
89	155
90	516
91	1905
92	484
93	945
94	221
95	153
97	121
102	189
103	493
104	1060
105	524
106	357
107	173
108	124
109	91
111	151
112	109
113	80
114	76
115	153
116	374
117	1647
118	562
119	1674
120	269
124	78
125	225
127	166
128	814
129	2255
130	1240
131	219
132	619
133	124
134	571
135	143
139	2362
140	281
141	98
142	157
143	422
144	814
145	826
146	2773
147	373
148	152
151	148
152	295
153	136
154	121
155	161
156	274
157	200
158	503
160	4476
161	655
162	220
163	62
165	132
166	170
167	351
168	363
169	306
170	282
171	157
172	305
173	275
174	192
175	131
176	250
177	53
178	98
179	134
180	198
181	286
182	136
183	187
184	154
185	379
186	1006
187	2067
188	6827
189	1066
190	34
191	78
192	94
193	94
194	256
195	368
196	182
197	107
198	262
199	129
200	523
201	199
202	247
203	295
204	140
205	79
207	196
208	67
209	85
210	1778
211	301
214	152
215	69
219	3577
220	870
221	258
223	173
225	3009
226	581
227	78
230	940
231	319
232	94
233	102
234	184
235	237
236	150
237	167
247	1158
248	953
249	828
250	182
251	451
252	160
260	118
261	249
262	136
263	401
264	317
265	265
266	232
267	126
273	97
275	108
276	77
277	99
279	8396
280	2626
281	275
283	167
289	91
291	1750
292	352
293	254
294	75
305	2835
306	723
307	1226
308	235
322	9999
323	2508
324	336
325	78
