Mass Spectrum: 6-Nitrocoumarin
Formula: C9 H5 N O4
CAS: 2725-81-7
Molecular weight: 191
Origin: J. Little, Eastman chemical company.
m/z	RELATIVE INTENSITY
28	330
30	170
38	320
39	641
43	430
45	270
50	440
51	891
53	150
61	290
62	951
63	2292
64	170
69	80
74	250
75	140
77	591
79	420
87	360
88	370
89	2833
90	270
98	60
105	601
106	60
116	110
117	2913
118	330
133	1021
134	100
145	440
146	120
161	1041
162	110
163	1722
164	160
175	160
191	9999
192	1101
193	150
194	10
