Mass Spectrum: Benzene, 1,1'-(1,2-dimethyl-1,2-ethanediyl)bis-, (R*,R*)-(.+/-.)-
Formula: C16 H18
CAS: 2726-21-8
Molecular weight: 210
Origin: J. M. PECHINE
m/z	RELATIVE INTENSITY
27	320
39	222
51	355
63	104
65	141
77	1088
78	285
79	1006
89	109
91	314
103	551
104	2530
105	9999
106	910
115	106
210	335
