Mass Spectrum: Benzamide, N,N-diethyl-4-methyl-
Formula: C12 H17 N O
CAS: 2728-05-4
Molecular weight: 191
Origin: A.A.Kutin, Moscow, Russia
m/z	RELATIVE INTENSITY
33	2
34	7
35	4
36	33
38	40
39	291
40	129
41	155
42	338
43	48
44	229
45	24
46	3
50	58
51	135
52	35
53	24
54	20
55	22
56	195
57	57
58	112
59	11
60	6
61	7
62	51
63	231
65	1201
66	62
67	7
68	2
69	10
70	71
71	29
72	121
73	38
74	19
75	24
76	30
77	106
78	21
79	19
80	7
81	17
82	1
83	2
84	3
85	1
86	8
87	10
89	408
90	348
91	3188
92	239
93	28
95	17
96	2
100	10
101	2
102	1
103	17
104	24
105	160
106	26
107	34
108	30
109	5
111	1
112	2
113	1
115	7
116	13
117	32
119	9999
120	744
121	54
122	7
123	3
125	2
127	1
128	2
130	2
132	16
133	20
134	15
135	26
136	124
137	11
138	1
139	47
140	3
141	1
144	1
146	15
147	11
148	167
149	21
150	9
153	3
155	23
160	9
162	248
163	39
166	2
171	26
174	7
175	7
176	70
177	19
178	1
180	2
188	5
190	2402
191	1689
192	195
193	14
