Mass Spectrum: (-)-1-(4-Bromophenyl)ethylamine
Formula: C8 H10 Br N
CAS: 27298-97-1
Molecular weight: 199
Origin: NIST Mass Spectrometry Data Center
m/z	RELATIVE INTENSITY
14	60
15	921
16	100
17	250
18	1071
26	160
27	1001
30	140
36	10
37	240
38	601
39	871
40	220
41	520
42	3984
43	2953
44	3883
47	120
50	2552
51	2412
53	1852
54	210
55	30
56	10
59	510
60	290
61	170
62	360
63	621
64	130
65	310
66	80
67	40
68	30
73	190
74	901
75	1511
76	1311
77	4094
78	2402
79	340
80	150
81	130
82	50
85	50
86	90
87	90
88	40
89	240
90	110
91	370
92	601
93	571
98	70
99	80
100	50
101	100
102	500
103	751
104	1832
105	711
106	90
107	20
116	30
117	150
118	350
119	240
120	420
121	50
128	30
129	50
130	30
131	30
155	210
157	1121
158	150
159	961
160	60
182	310
184	9999
185	885
186	9779
187	821
188	20
198	340
199	370
200	370
201	360
202	30
