Mass Spectrum: 3-Morpholinophenol
Formula: C10 H13 N O2
CAS: 27292-49-5
Molecular weight: 179
Origin: NIST Mass Spectrometry Data Center
m/z	RELATIVE INTENSITY
12	10
14	50
15	360
16	20
17	60
18	180
19	20
26	200
27	801
28	1211
29	621
30	200
31	300
36	10
37	60
38	320
39	1611
40	210
41	280
42	410
43	160
44	70
45	70
46	10
49	10
50	160
51	380
52	280
53	420
54	140
55	180
56	140
57	190
58	20
60	80
61	40
62	150
63	520
64	390
65	1672
66	470
67	120
68	70
69	10
70	10
72	30
74	120
76	50
77	390
78	160
79	190
80	100
81	100
82	20
84	10
86	10
88	10
89	20
90	20
91	170
92	360
93	1311
94	1541
95	140
96	10
102	10
103	40
104	50
105	40
106	80
107	220
108	70
109	10
116	30
117	30
118	60
120	2692
121	9999
122	941
123	70
130	10
131	10
132	70
133	80
134	80
135	80
136	30
146	20
148	440
149	110
150	520
151	50
164	200
165	10
177	90
178	601
179	4994
180	561
181	40
