Mass Spectrum: 2,1,3-Benzoselenadiazole
Formula: C6 H4 N2 Se
CAS: 273-15-4
Molecular weight: 184
Origin: Institute of Organic Chemistry, USSR, 1990
m/z	RELATIVE INTENSITY
41	140
43	220
44	170
45	40
49	60
50	740
51	1130
52	860
53	270
55	120
57	60
62	30
63	90
64	480
65	100
66	50
67	60
69	100
71	70
75	270
76	1250
77	1470
78	810
79	180
80	970
81	540
82	200
83	110
85	40
89	130
90	180
91	510
92	480
93	910
94	60
95	240
96	50
97	50
102	30
103	540
104	370
105	140
106	220
107	160
108	220
109	120
111	30
113	70
114	80
115	110
116	180
117	100
118	440
119	80
120	90
121	130
122	50
123	200
124	90
126	30
127	50
128	110
129	50
130	300
131	80
132	90
133	60
135	50
142	80
144	160
148	50
149	120
151	50
153	610
154	540
155	1420
156	140
157	3180
158	270
159	500
167	40
178	160
179	40
180	1900
181	1850
182	4900
183	520
184	9999
185	740
186	1860
187	140
