Mass Spectrum: 1H-1,2,3-Triazolo[4,5-b]pyridine
Formula: C5 H4 N4
CAS: 273-34-7
Molecular weight: 120
Origin: James Little,Eastman Chem.Co.,Kingsport,TN
m/z	RELATIVE INTENSITY
28	931
37	961
38	2432
39	941
40	520
41	1601
43	641
52	1311
54	2833
55	530
63	550
64	1902
65	3964
66	1301
68	3553
69	540
81	240
83	220
85	140
91	260
92	9999
93	711
95	150
97	160
120	6136
121	651
