Mass Spectrum: 3-Pentyn-2-ol
Formula: C5 H8 O
CAS: 27301-54-8
Molecular weight: 84
Origin: NIST Mass Spectrometry Data Center, 1990.
m/z	RELATIVE INTENSITY
15	148
26	130
27	299
29	388
31	73
37	368
38	667
39	2509
40	611
41	2294
42	320
43	1934
44	155
45	222
49	123
50	466
51	466
52	146
53	213
55	240
56	126
61	220
62	346
63	392
64	94
65	559
66	538
67	736
68	94
69	9999
70	422
83	232
