Mass Spectrum: 2,5-Methano-2H-indeno[1,2-b]oxirene, 2,3,4,5,6,6a,7,7-octachloro-1a,1b,5,5a,6,6a-hexahydro-, (1a.alpha.,1b.beta.,2.alpha.,5.alpha.,5a.beta.,6.beta.,6a.alpha.)-
Formula: C10 H4 Cl8 O
CAS: 27304-13-8
Molecular weight: 420
Origin: MASS SPECTROMETRY CENTER, UNIV. OF UTAH EPA-PTSEL 5200
m/z	RELATIVE INTENSITY
26	77
27	193
28	117
29	473
36	340
37	105
39	121
47	47
49	269
50	635
51	2983
52	208
53	22
55	29
60	528
61	1043
62	380
63	839
65	102
72	299
73	1199
74	491
75	496
79	48
83	832
84	587
85	1496
86	618
87	1664
89	734
90	165
91	183
95	477
96	581
97	841
98	325
99	429
106	22
107	867
108	775
109	1536
110	467
111	731
112	303
114	168
115	9999
116	775
117	4124
118	284
119	1016
120	527
121	1238
122	107
123	724
125	23
126	283
127	505
128	83
130	258
131	374
132	304
133	499
134	68
135	43
137	23
139	21
141	704
142	26
143	1215
144	373
145	978
147	528
149	4415
150	261
151	2813
152	25
153	532
155	151
157	1005
158	124
159	805
161	74
165	113
167	592
169	426
171	24
179	151
181	657
182	194
183	986
184	49
185	7174
186	413
187	6561
188	385
189	2205
191	863
193	412
195	73
201	46
203	252
204	647
205	158
206	533
208	24
214	22
215	108
216	559
217	849
218	568
219	845
220	461
221	408
222	23
223	44
226	19
227	85
228	116
229	177
235	1415
237	2153
238	635
239	1789
240	769
241	1073
242	297
243	331
244	21
248	44
250	184
251	1096
252	323
253	1248
254	225
255	999
256	72
257	679
259	198
261	1434
263	2160
264	26
265	1500
266	22
267	481
270	547
272	911
273	1057
274	1120
275	1517
276	866
277	1058
278	444
279	311
280	58
283	20
285	597
286	381
287	1047
288	587
289	815
290	361
291	251
299	44
301	54
308	696
309	105
310	1326
311	404
312	1096
313	480
314	781
315	445
316	616
317	78
318	106
320	20
321	359
323	871
325	649
327	205
349	148
351	655
353	397
355	99
359	100
361	26
385	2085
386	291
387	4451
388	687
389	4317
390	606
391	2449
392	176
393	878
395	26
422	100
424	119
426	23
