Mass Spectrum: 2-Acetyl-3,4,5,6-tetrahydropyridine
Formula: C7 H11 N O
CAS: 27300-27-2
Molecular weight: 125
Origin: T.Hofmann ET AL.JAFC, 46,2721(1998)
m/z	RELATIVE INTENSITY
39	961
40	170
41	1862
42	861
43	9999
44	180
52	270
53	571
54	6786
55	7977
56	470
58	70
68	180
70	571
71	70
80	170
82	7977
83	7176
84	390
85	70
96	270
97	2472
98	70
110	180
122	70
124	490
125	8187
126	490
127	80
