Mass Spectrum: Benzo[1,2-b:5,4-b']difuran-4,8-dione, 2,3-dihydro-5-methyl-2-(1-methylethenyl)-, (-)-
Formula: C14 H12 O4
CAS: 27304-02-5
Molecular weight: 244
Origin: R.W.A.OLIVER UNIV. OF SALFORD, SALFORD, LANCASHIRE, UK
m/z	RELATIVE INTENSITY
50	1600
51	3800
52	5200
53	3600
55	800
62	700
63	1600
64	800
65	1800
66	700
67	2400
68	4400
69	800
75	500
77	2200
78	1200
79	2200
80	2000
81	500
82	500
89	1000
90	700
91	2600
92	600
93	500
95	500
104	800
105	800
106	500
107	700
108	1800
109	5800
110	500
115	1600
116	900
117	1800
119	1000
127	700
128	1000
129	600
131	1200
132	800
137	2300
141	600
144	2000
159	1400
160	800
161	1400
171	600
173	1600
187	1200
188	600
189	700
201	9999
202	1800
203	800
215	4000
216	9000
217	1300
229	4000
230	600
231	28
242	500
243	1000
244	6600
245	1200
246	1000
