Mass Spectrum: Isothiazole, 4,5-dimethyl-
Formula: C5 H7 N S
CAS: 27330-47-8
Molecular weight: 113
m/z	RELATIVE INTENSITY
39	900
45	1300
53	1000
58	570
59	1460
69	450
71	2350
80	900
85	1500
86	800
98	3560
112	3350
113	9999
