Mass Spectrum: trans-7-Oxabicyclo[4.3.0]nonane
Formula: C8 H14 O
CAS: 27345-70-6
Molecular weight: 126
Origin: F. TURECEK,HEYROVSKY INST PHYS CHEM & ELECTROCHEM,PRAGUE,CZECH
m/z	RELATIVE INTENSITY
38	100
39	1000
40	200
41	1400
42	500
43	300
50	50
51	100
52	100
53	400
54	700
55	2600
56	200
57	200
65	100
66	200
67	1900
68	500
69	400
70	400
71	100
77	100
78	100
79	500
80	100
81	800
82	100
83	9999
84	600
85	50
91	100
93	200
95	200
96	100
97	400
98	200
107	70
108	100
111	50
125	1200
126	2300
127	200
