Mass Spectrum: Phthalide, 4,5,6,7-tetrachloro-
Formula: C8 H2 Cl4 O2
CAS: 27355-22-2
Molecular weight: 270
Origin: NIST Mass Spectrometry Data Center, 1998.
m/z	RELATIVE INTENSITY
29	320
35	90
36	210
37	190
38	30
42	20
43	120
44	70
47	200
48	100
49	240
50	160
53	60
54	40
60	550
61	400
62	130
63	10
66	10
67	60
71	440
72	430
73	780
74	310
75	50
77	80
78	160
79	50
83	180
84	500
85	750
86	600
87	140
89	180
90	140
91	30
94	40
95	460
96	320
97	280
98	30
99	30
101	60
102	30
103	60
106	200
107	1200
108	1320
109	660
110	370
111	130
118	330
119	50
120	550
121	590
122	150
123	150
130	120
131	130
132	70
133	70
134	50
135	180
136	20
137	50
141	60
142	1270
143	880
144	930
145	540
146	200
147	80
155	110
156	50
157	70
158	30
165	50
167	50
171	40
173	30
177	670
178	670
179	810
180	660
181	400
182	210
183	100
184	10
191	680
192	60
193	620
194	60
195	190
205	70
206	50
207	220
208	70
209	130
210	10
211	50
212	340
213	1490
214	530
215	1910
216	330
217	870
218	90
219	190
235	30
237	30
240	40
241	7649
242	610
243	9999
244	700
245	4610
246	340
247	980
248	50
249	60
269	370
270	1960
271	730
272	2610
273	470
274	1250
275	100
276	240
