Mass Spectrum: di(Chloromethyl)toluene
Formula: C9 H10 Cl2
CAS: 2735-05-9
Molecular weight: 188
Origin: Div. of Experiment Therapeutics WRAIR, WRAMC, Washington DC 20307
m/z	RELATIVE INTENSITY
41	218
42	22
43	43
44	55
45	94
46	6
47	23
49	225
50	423
51	881
52	242
53	155
55	40
58	2975
61	64
62	210
63	542
64	103
65	352
66	36
67	5
68	19
69	33
70	16
71	11
73	92
74	140
75	239
76	394
77	602
78	198
79	38
82	4
83	6
84	86
85	29
86	109
87	78
88	35
89	258
90	35
91	1047
92	77
97	25
98	20
99	43
100	11
101	64
102	178
103	379
104	102
105	13
109	11
111	11
112	15
113	33
115	1882
117	2986
118	1324
119	93
123	10
125	164
127	68
136	12
137	16
138	62
139	214
140	37
141	75
149	13
151	103
152	302
153	9999
155	3377
156	226
157	10
173	62
175	47
177	12
186	36
187	26
188	2519
190	1751
191	124
192	252
193	20
