Mass Spectrum: Isobutyryl bromide
Formula: C4 H7 Br O
CAS: 2736-37-0
Molecular weight: 150
Origin: Japan AIST/NIMC Database- Spectrum MS-NW-5121
m/z	RELATIVE INTENSITY
12	20
13	30
14	99
15	369
16	10
17	10
18	30
24	20
25	129
26	829
27	5089
28	1249
29	259
31	10
36	109
37	369
38	579
39	2589
40	729
41	6979
42	1109
43	9999
44	339
45	50
48	10
49	30
50	60
51	40
52	10
53	90
54	20
55	199
56	90
57	10
58	20
59	10
60	10
61	10
63	10
64	20
65	10
66	10
67	10
68	30
69	20
70	1009
71	5429
72	249
73	149
77	10
78	10
79	319
80	349
81	299
82	349
83	10
87	10
88	40
91	10
93	60
94	20
95	10
96	10
104	10
105	10
106	10
107	189
108	10
109	189
121	20
123	20
