Mass Spectrum: Perhydrophenanthrene, (4a.alpha., 4b.beta., 8a.beta., 10a.alpha.)-
Formula: C14 H24
CAS: 27389-74-8
Molecular weight: 192
m/z	RELATIVE INTENSITY
53	1000
54	690
55	4303
56	580
57	930
67	8507
68	3202
69	1901
77	2602
79	2402
80	1501
81	9608
82	3302
83	1101
91	1201
93	2101
94	1101
95	4403
96	9999
97	4303
107	640
108	590
109	1601
110	890
111	940
121	3703
122	2702
123	2502
135	8107
136	1201
149	770
150	1101
163	570
164	550
192	9808
193	1510
194	110
