Mass Spectrum: 3-Heptene, 2,6-dimethyl-
Formula: C9 H18
CAS: 2738-18-3
Molecular weight: 126
Origin: Japan AIST/NIMC Database- Spectrum MS-NW-4704
m/z	RELATIVE INTENSITY
15	139
26	60
27	1619
28	30
29	1069
30	30
31	20
36	20
37	30
38	90
39	1579
40	329
41	6349
42	799
43	3849
44	119
45	50
46	40
47	20
50	90
51	239
52	99
53	709
54	189
55	9999
56	6819
57	1869
58	90
59	99
60	10
61	10
62	30
63	60
64	10
65	189
66	90
67	1049
68	649
69	8779
70	3039
71	349
72	50
73	40
74	20
77	149
78	50
79	189
80	40
81	279
82	219
83	1829
84	589
85	139
86	30
87	20
91	60
92	10
93	40
94	10
95	169
96	20
97	90
98	159
99	70
107	30
109	80
110	10
111	289
112	40
123	20
124	40
125	30
126	1969
127	219
128	10
