Mass Spectrum: 2-Chlorophenyl isothiocyanate
Formula: C7 H4 Cl N S
CAS: 2740-81-0
Molecular weight: 169
Origin: NIST Mass Spectrometry Data Center, 1994
m/z	RELATIVE INTENSITY
14	49
25	51
26	233
27	228
28	42
32	485
34	31
35	96
36	184
37	876
38	862
39	858
40	68
44	593
45	300
46	40
47	128
48	101
49	612
50	2575
51	1160
52	185
53	21
56	65
57	84
58	315
59	83
60	193
61	636
62	624
63	1280
64	737
65	51
66	251
68	64
69	283
70	701
71	175
72	268
73	732
74	1626
75	4695
76	792
77	64
79	200
80	37
81	167
82	185
83	231
84	37
85	908
87	297
88	211
89	97
90	723
91	63
93	54
94	113
95	68
96	47
97	94
98	122
99	242
100	91
101	104
102	322
105	35
106	69
107	309
108	156
109	94
110	35
111	3950
112	352
113	1245
114	94
118	63
120	49
124	102
125	662
126	77
127	179
133	377
134	1696
135	183
136	79
137	426
138	53
139	162
142	255
143	54
144	111
169	9999
170	1015
171	3880
172	378
173	181
