Mass Spectrum: Allyldiphenylphosphine
Formula: C15 H15 P
CAS: 2741-38-0
Molecular weight: 226
Origin: ALPHA Chemicals / NIST MS Data Center.
m/z	RELATIVE INTENSITY
14	18
15	66
17	5
18	21
26	33
27	190
28	29
29	10
37	27
38	118
39	994
40	81
41	494
42	17
44	9
45	75
47	14
50	316
51	936
52	126
53	30
56	142
57	483
58	21
59	6
61	12
62	57
63	266
64	54
65	350
66	24
68	78
69	188
70	43
71	44
72	9
73	10
74	88
75	88
76	122
77	450
78	202
79	47
80	192
81	391
82	122
83	267
84	10
85	14
86	18
87	29
88	23
89	141
90	10
91	457
92	83
93	42
94	28
95	67
96	13
97	6
98	9
99	10
100	8
101	24
102	124
103	60
104	69
105	76
106	6
107	1427
108	425
109	301
110	22
111	31
112	6
113	35
115	814
116	232
117	265
118	38
119	22
120	90
121	162
122	25
123	10
124	10
125	15
126	55
127	51
128	151
129	21
131	57
133	645
134	68
135	92
136	15
137	6
139	233
140	53
141	282
142	40
144	74
145	89
146	56
147	107
148	65
149	37
150	34
151	6
152	1312
153	226
154	49
155	20
156	20
157	543
158	61
159	76
160	10
165	87
166	23
167	21
168	13
169	71
170	421
171	55
178	53
179	21
181	178
183	9999
184	1644
185	5704
186	748
187	49
189	8
190	8
191	14
192	9
193	10
194	13
195	10
196	19
197	27
198	81
199	113
200	384
201	145
202	19
225	2775
226	4159
227	648
228	71
229	6
