Mass Spectrum: 3-(Dimethylamino)propyl isothiocyanate
Formula: C6 H12 N2 S
CAS: 27421-70-1
Molecular weight: 144
Origin: NIST Mass Spectrometry Data Center, 1994
m/z	RELATIVE INTENSITY
4	21
14	34
15	524
16	13
17	8
18	109
26	85
27	411
28	470
29	214
30	786
31	13
32	65
33	9
37	18
38	55
39	347
40	135
41	534
42	1750
43	392
44	762
45	199
46	30
47	11
51	15
52	29
53	12
54	63
55	56
56	296
57	11
58	9999
59	483
60	99
61	9
66	15
67	15
68	57
69	30
70	260
71	214
72	508
73	22
74	22
82	22
83	39
84	274
85	46
86	15
89	8
98	19
99	13
101	1222
102	64
103	59
111	19
113	24
114	21
143	17
144	166
145	15
