Mass Spectrum: 1-Chloromethyl-3,5-dimethylbenzene
Formula: C9 H11 Cl
CAS: 2745-54-2
Molecular weight: 154
Origin: V.A.KOPTYUG, ATLAS OF MASS SPECTRA OF ORGANIC COMPOUNDS
m/z	RELATIVE INTENSITY
39	980
41	640
50	310
51	780
57	350
58	370
63	380
65	380
77	870
78	330
91	1200
103	470
104	360
105	370
115	390
117	420
119	9999
120	1100
154	2100
156	600
