Mass Spectrum: 1-Methylcyclopropanemethanol
Formula: C5 H10 O
CAS: 2746-14-7
Molecular weight: 86
Origin: Japan AIST/NIMC Database- Spectrum MS-NW-9933
m/z	RELATIVE INTENSITY
14	10
15	90
18	20
25	10
26	229
27	1699
28	849
29	2299
30	879
31	1489
32	20
37	80
38	199
39	1979
40	789
41	2949
42	319
43	1319
44	589
45	309
49	40
50	219
51	289
52	99
53	1119
54	369
55	2409
56	4609
57	4929
58	9999
59	409
60	30
61	30
62	20
63	30
65	90
66	40
67	679
68	879
69	259
70	40
71	1149
72	50
83	30
84	30
85	40
86	40
