Mass Spectrum: 3H-Pyrazol-3-one, 2,4-dihydro-2,5-dimethyl-
Formula: C5 H8 N2 O
CAS: 2749-59-9
Molecular weight: 112
Origin: Japan AIST/NIMC Database- Spectrum MS-IW-1359
m/z	RELATIVE INTENSITY
14	60
15	469
16	20
17	10
18	30
25	10
26	99
27	159
28	70
29	99
30	99
37	50
38	119
39	779
40	379
41	3919
42	1779
43	1819
44	109
45	30
46	20
50	10
51	40
52	70
53	70
54	749
55	189
56	80
57	10
58	10
66	10
67	109
68	70
69	3799
70	1139
71	209
72	20
82	90
83	169
84	159
85	10
97	129
110	10
111	439
112	9999
113	809
114	50
