Mass Spectrum: 1-Propanol, 2-amino-, (S)-
Formula: C3 H9 N O
CAS: 2749-11-3
Molecular weight: 75
Origin: Japan AIST/NIMC Database- Spectrum MS-NW-6786
m/z	RELATIVE INTENSITY
13	10
14	40
15	379
16	20
17	119
18	429
25	20
26	109
27	459
28	849
29	279
30	449
31	389
32	20
37	20
38	50
39	169
40	159
41	439
42	1429
43	409
44	9999
45	349
46	10
51	20
52	40
53	20
54	80
55	70
56	399
57	239
58	339
59	50
60	339
61	10
68	20
69	10
70	70
71	20
72	90
73	20
74	50
75	30
76	10
