Mass Spectrum: Benzene, 1-methyl-4-(1-propynyl)-
Formula: C10 H10
CAS: 2749-93-1
Molecular weight: 130
Origin: EP-1330
m/z	RELATIVE INTENSITY
50	260
51	600
52	100
53	70
61	100
62	270
63	680
64	600
65	300
74	300
75	300
76	150
77	350
78	150
85	50
86	150
87	200
88	100
89	350
90	50
91	450
101	150
102	430
103	200
113	150
114	300
115	8700
116	850
117	50
126	270
127	1400
128	3150
129	4800
130	9999
131	1500
