Mass Spectrum: Azulene
Formula: C10 H8
CAS: 275-51-4
Molecular weight: 128
Origin: Japan AIST/NIMC Database- Spectrum MS-NW-1983
m/z	RELATIVE INTENSITY
26	20
27	40
28	60
31	10
37	30
38	60
39	199
49	30
50	329
51	659
52	139
53	20
61	80
62	139
63	459
64	439
65	20
73	30
74	269
75	319
76	319
77	339
78	299
79	20
85	20
86	60
87	90
88	10
89	50
97	10
98	70
99	40
100	40
101	219
102	1139
103	90
113	10
125	30
126	519
127	1239
128	9999
129	1109
130	50
