Mass Spectrum: 1-Triethylsilyloxybutane
Formula: C10 H24 O Si
CAS: 2751-87-3
Molecular weight: 188
Origin: V.G. Zaikin, TIPS RAS, Moscow, Russia
m/z	RELATIVE INTENSITY
27	1992
28	180
29	2152
30	90
31	571
33	40
35	40
36	130
37	70
38	130
39	761
40	150
41	821
42	350
43	781
44	480
45	2492
46	160
47	2352
48	110
49	110
50	220
51	290
52	490
53	190
54	70
55	891
56	591
57	851
58	781
59	2252
60	270
61	550
62	40
63	170
64	60
65	160
66	60
67	180
68	40
69	190
70	170
71	340
72	70
73	691
74	250
75	5995
76	460
77	250
78	80
79	591
80	40
81	40
82	40
83	120
84	110
85	80
86	140
87	1571
88	450
89	771
90	60
91	60
92	40
93	390
94	40
95	110
97	70
99	40
100	40
101	571
102	70
103	2012
104	170
105	70
107	180
109	70
113	40
114	40
115	390
116	90
117	390
118	40
121	350
122	40
123	80
129	170
130	60
131	1161
132	160
133	60
150	40
157	60
158	90
159	9999
160	1391
161	450
162	50
173	40
187	40
188	20
