Mass Spectrum: 9-Tricosene, (Z)-
Formula: C23 H46
CAS: 27519-02-4
Molecular weight: 322
Origin: NIST Mass Spectrometry Data Center, 1998.
m/z	RELATIVE INTENSITY
26	10
27	380
28	60
29	1350
30	30
38	10
39	560
40	120
41	5599
42	1070
43	7649
44	250
50	10
51	30
52	30
53	570
54	2350
55	9999
56	4720
57	9479
58	420
59	10
65	190
66	220
67	2820
68	1680
69	7909
70	4500
71	4590
72	240
73	10
77	140
78	30
79	480
80	200
81	1770
82	2820
83	9689
84	3230
85	3170
86	200
87	10
91	80
92	10
93	90
94	60
95	970
96	2000
97	9939
98	2170
99	870
100	60
105	10
107	20
108	20
109	400
110	880
111	5469
112	1410
113	470
114	40
121	10
122	30
123	230
124	580
125	2660
126	850
127	270
128	20
136	20
137	140
138	370
139	970
140	530
141	160
142	10
151	40
152	210
153	460
154	350
155	100
156	10
165	20
166	170
167	300
168	270
169	80
170	10
179	10
180	120
181	170
182	180
183	50
184	10
193	10
194	110
195	130
196	140
197	30
208	80
209	80
210	100
211	20
222	60
223	50
224	70
225	20
236	40
237	30
238	50
239	10
250	30
251	20
252	30
253	10
264	20
265	20
266	30
267	10
278	10
279	10
280	10
292	10
294	90
295	20
322	1290
323	320
324	40
