Mass Spectrum: 1-Pentanol, 2-ethyl-
Formula: C7 H16 O
CAS: 27522-11-8
Molecular weight: 116
Origin: NIST Mass Spectrometry Data Center, 1990.
m/z	RELATIVE INTENSITY
14	9
26	193
27	1790
28	403
29	1592
30	119
31	1338
32	70
39	2029
40	516
41	5553
42	1360
43	9999
44	452
45	302
50	127
51	265
53	603
54	466
55	3627
56	4822
57	3617
58	162
59	179
65	94
67	256
69	4693
70	2959
71	189
72	133
83	793
84	2311
85	3210
86	199
98	904
