Mass Spectrum: 2-Methylenebornane
Formula: C11 H18
CAS: 27538-47-2
Molecular weight: 150
Origin: J.Martin, J.Agr.Food Chem.,36,1257(1988)
m/z	RELATIVE INTENSITY
42	460
43	941
50	661
52	641
53	1301
54	460
55	1121
57	571
58	460
63	571
65	941
67	1531
68	641
69	1511
77	1461
79	2652
80	520
81	1191
82	871
83	460
91	2032
92	591
93	2282
94	681
95	681
105	911
106	1121
107	9999
108	1581
121	1922
135	1321
150	1992
