Mass Spectrum: Undecane, 5-ethyl-5-propyl-
Formula: C16 H34
CAS: 2755-07-9
Molecular weight: 226
m/z	RELATIVE INTENSITY
36	20
37	30
38	50
39	1111
40	230
41	5815
42	771
43	8217
44	280
45	10
49	10
50	30
51	70
52	50
53	480
54	210
55	3843
56	901
57	9999
58	460
59	10
62	10
63	10
64	10
65	90
66	50
67	440
68	150
69	1742
70	1111
71	6846
72	380
73	10
75	10
76	10
77	90
78	20
79	100
80	20
81	170
82	70
83	611
84	310
85	5435
86	380
87	20
88	10
89	10
90	10
91	40
92	10
93	20
94	10
95	70
96	40
97	350
98	480
99	1471
100	120
101	10
102	10
105	10
107	10
109	20
110	30
111	200
112	120
113	801
114	70
115	10
123	10
124	20
125	70
126	60
127	540
128	50
129	10
137	10
138	10
139	50
140	490
141	2162
142	240
143	10
151	10
152	10
153	20
154	30
155	90
156	10
167	10
168	200
169	1271
170	170
171	10
179	10
181	10
182	130
183	1111
184	160
185	10
193	10
195	10
196	80
197	1071
198	160
199	10
207	10
