Mass Spectrum: Isobornyl propionate
Formula: C13 H22 O2
CAS: 2756-56-1
Molecular weight: 210
Origin: NIST Mass Spectrometry Data Center, 1994
m/z	RELATIVE INTENSITY
14	69
15	240
26	331
27	2691
28	986
29	7201
30	205
31	69
39	1643
41	4762
42	478
43	1900
44	91
45	122
50	59
51	301
52	163
53	1182
54	59
55	2298
56	59
57	9999
58	344
59	87
63	53
65	489
67	1913
68	711
69	1956
70	181
71	345
72	353
73	63
74	35
75	65
76	35
77	906
78	209
79	1328
80	865
81	1397
82	959
83	830
84	260
85	71
91	928
92	1177
93	3889
94	71
95	8171
96	654
97	242
98	91
99	73
100	56
103	29
105	295
107	1017
108	2709
109	2242
110	1505
111	538
112	45
113	49
119	82
121	3567
122	374
123	152
124	27
125	62
126	41
127	43
136	4441
137	911
138	86
139	245
140	34
152	41
153	123
154	707
155	77
210	49
