Mass Spectrum: 1,4-Benzenedicarboxaldehyde, 2-methyl-
Formula: C9 H8 O2
CAS: 27587-17-3
Molecular weight: 148
Origin: T.A.BLAZER, DU PONT, GIBBSTOWN, N.J., USA
m/z	RELATIVE INTENSITY
15	53
25	17
26	111
27	307
28	1154
29	988
30	293
36	15
37	242
38	470
39	2206
40	48
49	105
50	642
51	1006
52	151
53	152
55	34
59	38
60	57
61	271
62	686
63	1547
64	361
65	2276
66	152
67	17
73	74
74	259
75	181
76	77
85	90
86	173
87	140
88	56
89	870
90	387
91	5981
92	552
93	28
97	72
98	72
101	20
102	34
103	39
104	37
105	71
117	149
118	360
119	3723
120	388
121	27
133	46
134	20
146	89
147	8907
148	9999
149	990
150	86
