Mass Spectrum: 2,3,4,5,6-Pentafluorobenzhydrol
Formula: C13 H7 F5 O
CAS: 27599-16-2
Molecular weight: 274
Origin: NIST Mass Spectrometry Data Center, 1994
m/z	RELATIVE INTENSITY
17	66
18	80
27	256
29	1982
30	2
37	90
38	246
39	928
40	52
49	122
50	1342
51	3275
52	643
53	341
54	27
55	60
57	66
61	109
62	177
63	367
64	55
65	64
68	58
69	214
73	59
74	154
75	498
76	310
77	4812
78	2875
79	9999
80	865
81	136
85	63
86	123
87	75
89	88
90	65
91	38
92	95
93	477
94	130
97	28
98	326
99	1001
100	82
102	100
103	296
104	117
105	1517
106	295
107	1869
108	177
109	52
110	69
111	84
112	86
113	29
115	30
117	1128
118	161
119	441
120	26
122	47
123	172
124	45
125	54
127	112
128	73
129	194
130	85
136	50
137	104
141	52
142	57
143	63
147	84
148	241
149	372
150	52
151	23
154	42
155	74
156	47
157	67
161	113
167	1484
168	349
169	360
174	66
175	86
176	52
177	133
178	39
179	115
180	64
181	67
185	93
186	97
187	206
188	216
192	117
193	72
195	5630
196	485
197	1437
198	175
199	36
204	79
205	240
206	417
207	182
209	30
211	121
216	61
217	136
218	59
219	94
224	205
225	142
226	87
229	59
234	69
235	122
237	1636
238	267
245	80
253	245
254	100
255	663
256	385
257	286
258	62
273	823
274	6974
275	946
276	91
