Mass Spectrum: 2H-Pyran-2-one, 6-pentyl-
Formula: C10 H14 O2
CAS: 27593-23-3
Molecular weight: 166
Origin: A.A.Kutin, Moscow, Russia
m/z	RELATIVE INTENSITY
36	11
37	104
39	7842
40	942
41	1980
42	512
43	753
44	95
50	212
51	329
52	395
53	1415
54	388
55	780
56	108
57	152
62	58
63	228
64	207
65	359
66	223
67	594
68	2510
69	339
70	146
71	50
74	18
77	197
78	32
79	233
80	374
81	4140
82	3928
83	382
84	72
91	59
92	136
93	112
95	9999
96	597
97	152
98	22
105	19
107	80
108	35
109	329
110	3286
111	353
112	45
120	45
121	122
122	67
123	2609
124	313
137	37
138	525
139	21
166	1571
167	183
