Mass Spectrum: Propanamide, N-(4-chlorophenyl)-
Formula: C9 H10 Cl N O
CAS: 2759-54-8
Molecular weight: 183
Origin: N.W. Davies, Centr. Sci. Lab., Univ. Tasmania, Hobart, Australia
m/z	RELATIVE INTENSITY
26	10
27	960
28	10
29	10
30	10
31	210
32	10
33	10
34	170
35	10
36	10
37	100
38	10
39	120
40	10
41	210
42	10
43	60
44	20
45	10
46	160
48	10
49	10
50	290
51	10
52	10
53	10
54	590
55	120
56	10
57	2840
58	210
61	50
62	260
63	480
64	40
65	430
66	120
69	10
71	120
73	760
74	10
75	460
76	420
77	140
79	270
84	300
85	180
86	80
88	60
89	10
90	340
91	50
92	380
93	350
95	250
96	330
98	170
99	560
100	220
101	350
102	60
105	10
109	60
110	120
111	80
113	170
118	90
119	200
120	140
124	30
126	290
127	9999
128	610
129	2570
130	200
133	10
134	210
136	10
138	340
144	180
145	130
153	100
183	1300
184	170
185	590
186	200
