Mass Spectrum: Cyclopropanecarboxanilide, 3',4'-dichloro-
Formula: C10 H9 Cl2 N O
CAS: 2759-71-9
Molecular weight: 229
Origin: Tox21 Consortium/NIST Mass Spectrometry Data Center, 2012
m/z	RELATIVE INTENSITY
15	40
26	60
27	180
28	100
29	30
30	10
31	10
35	20
36	20
37	150
38	280
39	2682
40	390
41	7287
42	330
43	20
44	30
47	40
48	10
49	100
50	150
51	120
52	150
53	50
54	40
55	200
56	10
57	10
60	30
61	260
62	611
63	911
64	200
65	100
66	20
67	20
68	150
69	9999
70	430
71	50
72	150
73	480
74	370
75	420
76	60
77	40
78	10
79	10
83	100
84	100
85	120
86	70
87	100
88	220
89	190
90	470
91	90
92	10
94	10
95	10
96	40
97	330
98	170
99	380
100	100
101	110
102	40
103	30
104	20
106	10
107	140
108	40
109	440
110	110
111	180
112	40
113	20
114	20
115	10
116	10
117	10
118	10
119	10
120	10
121	10
122	10
123	30
124	450
125	520
126	380
127	210
128	100
129	20
130	70
131	40
132	20
133	841
134	110
135	530
136	90
137	110
138	40
139	30
140	20
141	10
144	10
145	190
146	30
147	120
148	20
149	30
150	10
151	20
152	10
153	10
154	10
158	20
159	70
160	310
161	7947
162	771
163	4974
164	450
165	851
166	100
167	30
168	10
171	10
172	20
173	10
174	110
175	10
176	60
177	10
178	10
185	10
187	40
188	40
189	20
190	20
191	10
192	10
193	10
194	20
196	10
198	10
200	20
201	10
202	10
228	10
229	1531
230	180
231	991
232	120
233	160
234	20
