Mass Spectrum: Propanamide, N-(4-methoxyphenyl)-
Formula: C10 H13 N O2
CAS: 2760-31-8
Molecular weight: 179
Origin: N.W. Davies, Centr. Sci. Lab., Univ. Tasmania, Hobart, Australia
m/z	RELATIVE INTENSITY
26	100
27	610
29	3420
38	60
39	250
41	430
44	490
51	180
52	660
53	440
55	150
57	6300
58	210
63	230
64	250
65	310
67	80
77	210
78	130
79	250
80	610
81	130
92	200
95	490
106	160
107	110
108	8400
109	700
121	80
122	920
123	9999
124	870
131	280
134	130
149	150
150	110
179	5360
180	570
