Mass Spectrum: 2-Chloropropionanilide
Formula: C9 H10 Cl N O
CAS: 2760-32-9
Molecular weight: 183
Origin: M. ODA, MIN. AGRIC. CHEM. INSP. STN., TOKYO, JAPAN
m/z	RELATIVE INTENSITY
29	2900
57	1900
63	500
64	400
65	500
73	300
75	300
90	400
91	300
92	500
99	600
100	200
101	200
102	100
111	100
126	300
127	9999
128	100
129	3300
148	2000
153	100
154	200
183	2100
185	700
