Mass Spectrum: Cyclopentanone, 3,4-bis(methylene)-
Formula: C7 H8 O
CAS: 27646-73-7
Molecular weight: 108
Origin: D.HENNEBERG, MAX-PLANCK INSTITUTE, MULHEIM, WEST GERMANY
m/z	RELATIVE INTENSITY
23	6
25	35
26	231
27	1276
28	873
29	59
30	29
31	34
32	51
33	14
34	20
35	39
36	38
37	596
38	1423
39	6470
40	2808
41	1142
42	183
43	20
44	37
46	20
47	14
48	18
49	163
50	812
51	1228
52	1627
53	1068
54	349
55	348
56	18
57	10
58	11
59	46
60	71
61	194
62	261
63	619
64	124
65	1600
66	260
67	384
68	318
69	625
70	33
72	9
73	42
74	159
75	371
76	82
77	2459
78	986
79	9999
80	4570
81	323
82	69
86	14
89	8
90	15
91	102
92	49
93	262
94	21
97	11
105	10
106	60
107	219
108	9617
109	708
110	39
