Mass Spectrum: Pentadecanal-
Formula: C15 H30 O
CAS: 2765-11-9
Molecular weight: 226
Origin: V.G. Zaikin, R.S.Borisov, TIPS RAS, Moscow, Russia
m/z	RELATIVE INTENSITY
26	110
27	1271
28	1261
29	3173
30	60
31	60
37	10
38	30
39	981
40	200
41	6636
42	1571
43	9208
44	3023
45	1351
46	20
51	40
52	20
53	470
54	1651
55	7407
56	3553
57	9699
58	651
59	80
65	80
66	861
67	5075
68	6226
69	5665
70	3373
71	4784
72	801
73	100
77	70
78	10
79	330
80	340
81	4884
82	9999
83	5875
84	2082
85	2532
86	320
87	20
91	30
93	140
94	260
95	4884
96	5985
97	3964
98	1271
99	711
100	70
107	30
108	80
109	2262
110	1882
111	1441
112	671
113	250
114	20
121	10
122	50
123	1001
124	981
125	510
126	370
127	140
128	10
136	20
137	510
138	520
139	160
140	240
141	60
151	250
152	440
153	80
154	200
155	30
165	100
166	130
167	10
179	40
180	420
181	50
182	631
183	90
193	10
198	40
208	140
209	10
226	10
