Mass Spectrum: 3-Methyl-2,8,9-trioxa-5-azonia-1-boratatricyclo[3.3.3.0(1,5)]undecane
Formula: C7 H14 B N O3
CAS: 27664-61-5
Molecular weight: 171
Origin: I. MAZHEIKA, INST. ORG. SYNTH. ACAD. SCI. LATV. SSR, RIGA,US
m/z	RELATIVE INTENSITY
41	1700
42	2800
43	1400
44	3000
45	1200
55	1700
56	2100
59	600
68	500
70	500
71	300
72	600
73	300
85	300
86	400
99	1100
100	260
112	800
114	400
125	2400
126	9999
127	4400
139	400
140	1400
141	300
155	200
156	700
171	800
