Mass Spectrum: 2-Propenoic acid, 3-methoxybutyl ester
Formula: C8 H14 O3
CAS: 2768-07-2
Molecular weight: 158
Origin: NIST Mass Spectrometry Data Center
m/z	RELATIVE INTENSITY
12	10
14	20
15	550
16	30
18	10
26	490
27	2672
28	450
29	1692
30	90
31	1371
33	190
37	10
39	540
40	120
41	1161
42	430
43	1181
44	60
45	380
46	10
50	10
51	20
53	210
55	4524
56	470
57	130
59	9999
60	320
61	40
68	10
69	50
71	2803
72	220
73	350
81	10
82	40
83	10
84	50
85	380
86	1161
87	230
97	10
98	10
99	90
100	50
103	60
112	10
113	30
126	10
127	20
130	10
