Mass Spectrum: Butane, 1-isocyano-
Formula: C5 H9 N
CAS: 2769-64-4
Molecular weight: 83
Origin: W HEERMA
m/z	RELATIVE INTENSITY
14	73
15	275
25	46
26	693
27	4508
28	2543
29	1992
37	188
38	358
39	2135
40	762
41	9999
42	606
43	8126
50	174
51	294
52	376
53	303
54	1483
55	6221
56	2470
57	239
64	78
66	110
68	275
82	358
