Mass Spectrum: Butane, 2-methoxy-2,3,3-trimethyl-
Formula: C8 H18 O
CAS: 27705-21-1
Molecular weight: 130
Origin: D.HENNEBERG, MAX-PLANCK INSTITUTE, MULHEIM, WEST GERMANY
m/z	RELATIVE INTENSITY
23	4
24	4
25	6
26	15
27	206
28	515
29	599
30	41
31	284
32	78
33	37
34	1
35	2
36	4
37	18
38	42
39	707
40	116
41	1877
42	274
43	1633
44	48
45	303
46	7
50	28
51	54
52	21
53	134
54	26
55	1697
56	188
57	1244
58	64
59	91
60	29
61	6
62	3
63	11
65	257
66	11
67	112
68	15
69	151
70	16
71	9
72	82
73	9999
74	461
75	30
77	11
78	1
79	10
81	20
82	9
83	1692
84	135
85	140
86	7
91	7
92	5
97	10
98	79
99	101
100	38
101	1
115	756
116	57
117	4
