Mass Spectrum: Benzene, 1,2-dichloro-4,5-dimethoxy-,
Formula: C8 H8 Cl2 O2
CAS: 2772-46-5
Molecular weight: 206
Origin: ASES Database, Dalian Institute, P.R. China
m/z	RELATIVE INTENSITY
43	180
50	1511
62	810
63	1201
75	600
84	290
85	1080
87	190
97	1291
99	3192
100	410
109	580
111	390
113	2212
120	510
127	3182
128	5414
129	1101
130	1591
133	1000
135	390
141	200
145	1191
148	490
160	400
163	2181
165	1281
167	190
191	6966
193	4403
195	700
206	9999
208	6515
210	980
