Mass Spectrum: Benzoic acid, 4-methoxy-, 2-methylpropyl ester
Formula: C12 H16 O3
CAS: 27739-28-2
Molecular weight: 208
Origin: V.Zaikin,Inst.Petrochem.Synth.,RAS,Moscow
m/z	RELATIVE INTENSITY
26	90
27	550
28	110
29	791
30	60
39	651
40	120
41	941
42	90
43	350
44	20
50	561
51	380
52	110
53	220
54	30
55	160
56	250
57	250
58	20
61	70
62	150
63	641
64	881
65	270
66	80
67	20
69	20
70	20
73	50
74	160
75	150
76	330
77	1631
78	210
79	130
80	30
81	100
82	20
84	30
85	50
91	20
92	1351
93	130
94	50
104	90
105	110
106	40
107	611
108	90
109	80
111	50
119	50
120	160
121	80
124	20
133	60
134	130
135	9999
136	1271
137	130
151	230
152	7657
153	991
154	100
165	50
207	30
208	490
209	60
