Mass Spectrum: 3,4-Methylenedioxybenzylidene aniline
Formula: C14 H11 N O2
CAS: 27738-39-2
Molecular weight: 225
Origin: NIST Mass Spectrometry Data Center, 1994
m/z	RELATIVE INTENSITY
13	13
14	155
15	11
17	20
18	63
26	106
27	423
28	276
29	625
30	130
31	104
37	220
38	700
39	1245
40	121
41	46
42	62
43	21
49	81
50	1775
51	4046
52	521
53	334
54	28
55	30
57	29
61	204
62	804
63	2055
64	789
65	1064
66	174
70	158
73	56
74	432
75	597
76	973
77	7772
78	656
79	73
84	1212
86	58
87	90
88	160
89	303
90	277
91	257
92	161
93	39
98	90
99	46
100	23
101	43
102	176
103	23
104	777
105	78
112	65
113	165
114	93
115	205
116	60
117	65
118	108
120	223
121	1276
122	321
123	33
126	33
127	47
128	48
129	23
130	46
133	23
134	17
135	22
137	43
139	724
140	540
141	110
142	30
143	28
146	358
147	108
148	112
151	31
152	27
153	26
154	65
164	69
166	1105
167	500
168	147
169	34
182	20
194	389
195	97
196	76
197	49
198	78
224	9999
225	8522
226	1300
227	130
