Mass Spectrum: 10-Undecyn-1-ol
Formula: C11 H20 O
CAS: 2774-84-7
Molecular weight: 168
Origin: NIST Mass Spectrometry Data Center, 1990.
m/z	RELATIVE INTENSITY
14	47
15	121
16	138
18	133
26	296
27	3049
28	637
29	3091
31	3717
32	297
39	3820
40	1133
41	9999
42	1537
43	2362
44	378
45	349
50	195
51	543
52	462
53	2171
54	2826
55	7031
56	860
57	1053
58	149
63	110
65	821
66	952
67	8117
68	2720
69	2362
70	466
71	1085
77	1047
79	5863
80	2012
81	5831
82	1805
83	504
84	189
85	283
91	740
93	2912
94	1030
95	1927
96	458
97	299
98	124
105	140
107	1094
108	235
109	543
111	156
121	305
122	115
135	144
