Mass Spectrum: 4-Methoxybenzeneacetic acid, TMS derivative
Formula: C12 H18 O3 Si
CAS: 27750-50-1
Molecular weight: 238
Origin: ORVAL A. MAMER, ROYAL VICTORIA HOSPITAL, MONTREAL, CANADA
m/z	RELATIVE INTENSITY
15	215
18	75
27	108
28	241
29	137
39	217
41	119
43	380
44	237
45	1146
46	89
47	375
50	118
51	415
52	286
53	120
55	172
57	70
58	172
59	226
61	243
63	169
65	170
72	174
73	9999
74	922
75	2124
76	213
77	733
78	735
79	99
89	269
90	173
91	442
92	76
105	102
106	87
111	177
117	130
120	163
121	2174
122	210
133	92
135	64
147	253
148	151
149	75
167	219
179	2844
180	485
181	146
194	136
195	312
196	61
223	762
224	141
225	75
238	832
239	160
