Mass Spectrum: 3-(4-Methoxyphenyl)propionic acid, TMS derivative
Formula: C13 H20 O3 Si
CAS: 27750-58-9
Molecular weight: 252
Origin: G.S. KING, CHEM. PATHOL. DEP., QUEEN CHARLOTTE'S HOSP., LONDON,
m/z	RELATIVE INTENSITY
40	160
41	400
43	160
44	120
45	680
47	280
51	160
55	160
58	80
59	120
61	160
63	120
65	280
72	120
73	1960
74	200
75	1960
76	160
77	720
78	400
79	120
89	160
90	80
91	640
92	120
103	120
105	160
106	80
108	160
116	80
119	360
120	80
121	9999
122	800
134	8360
135	1000
161	80
237	1040
238	160
252	1800
253	320
254	120
