Mass Spectrum: Homoveratric acid, TMS derivative
Formula: C13 H20 O4 Si
CAS: 27750-60-3
Molecular weight: 268
Origin: WASHINGTON UNIVERSITY MEDICAL SCHOOL W.R. SHERMAN
m/z	RELATIVE INTENSITY
20	37
27	56
28	2006
29	56
32	46
39	203
43	130
44	86
45	624
46	51
47	174
50	37
51	174
52	46
53	46
55	42
57	66
58	76
59	139
60	46
61	174
63	135
64	100
65	345
66	46
69	32
72	110
73	9999
74	800
75	1565
76	159
77	360
78	335
79	198
80	56
89	271
90	457
91	306
92	193
93	71
104	46
105	320
106	448
107	673
108	252
117	56
118	86
119	90
120	46
121	61
127	374
132	37
133	32
134	32
135	316
136	81
137	37
147	32
149	81
150	71
151	3923
152	408
153	51
163	223
164	61
165	76
177	76
178	203
179	193
180	51
192	32
193	51
195	81
197	183
198	37
207	37
208	86
209	7475
210	1350
211	369
212	66
224	56
225	428
226	86
238	428
239	120
240	37
253	1918
254	374
255	130
268	4461
269	927
270	262
271	32
