Mass Spectrum: .beta.-D-Glucopyranose, 5TMS derivative
Formula: C21 H52 O6 Si5
CAS: 2775-90-8
Molecular weight: 540
Origin: NIST Mass Spectrometry Data Center, 2010
m/z	RELATIVE INTENSITY
29	10
31	10
39	10
41	40
42	10
43	60
44	70
45	420
46	30
47	50
53	30
54	30
55	90
56	20
57	20
58	40
59	230
60	20
61	40
65	10
66	10
67	10
68	10
69	40
70	20
71	20
72	130
73	8338
74	701
75	621
76	30
77	40
79	10
81	50
82	10
83	10
85	30
86	10
87	30
88	10
89	120
90	10
91	10
97	10
98	10
99	40
100	10
101	170
102	40
103	751
104	70
105	40
109	10
111	30
112	10
113	70
114	10
115	60
116	110
117	581
118	60
119	90
120	10
121	10
125	10
127	40
128	10
129	961
130	120
131	340
132	50
133	701
134	100
135	70
136	10
139	10
141	20
142	30
143	180
144	20
145	70
146	20
147	3423
148	530
149	370
150	40
151	20
153	10
154	10
155	50
156	10
157	110
158	20
159	40
160	10
161	40
162	10
163	40
164	10
169	110
170	20
171	20
173	30
174	10
175	70
176	10
177	60
178	10
179	10
183	10
185	10
187	20
188	10
189	500
190	140
191	5185
192	931
193	430
194	50
195	10
199	10
201	20
202	10
203	200
204	9999
205	1952
206	851
207	170
208	30
209	10
215	30
216	20
217	1631
218	440
219	200
220	30
221	90
222	20
223	10
229	40
230	40
231	160
232	30
233	50
234	10
242	10
243	100
244	30
245	30
246	10
247	10
255	10
257	10
259	10
265	30
266	10
271	40
272	10
273	10
278	10
279	20
280	10
290	10
291	150
292	40
293	20
303	20
304	10
305	160
306	50
307	30
308	10
317	70
318	20
319	80
320	20
321	20
331	30
332	20
333	20
334	10
345	80
346	20
347	30
348	10
361	60
362	20
363	10
379	20
380	10
393	30
394	10
395	10
405	10
435	110
436	40
437	20
438	10
