Mass Spectrum: 2-Hydroxybenzeneacetic acid, 2TMS derivative
Formula: C14 H24 O3 Si2
CAS: 27750-52-3
Molecular weight: 296
Origin: NIST Mass Spectrometry Data Center
m/z	RELATIVE INTENSITY
15	10
27	20
28	10
29	50
31	20
39	40
41	10
42	20
43	340
44	190
45	1441
46	100
47	250
48	10
49	10
50	20
51	100
52	40
53	50
54	10
55	60
56	20
57	80
58	140
59	300
60	60
61	190
62	30
63	90
64	30
65	60
66	20
67	30
68	20
69	30
70	40
71	50
73	9999
74	1331
75	1802
76	140
77	390
78	220
79	110
80	10
81	20
82	30
83	30
85	40
86	10
87	30
88	20
89	290
90	160
91	330
92	30
93	30
94	10
95	40
96	10
97	10
98	10
99	10
101	20
102	50
103	260
104	110
105	500
106	160
107	50
108	10
109	30
110	10
111	30
113	10
115	90
116	30
117	150
118	60
119	350
121	180
122	20
123	50
124	10
129	10
131	200
132	40
133	801
134	360
135	671
136	90
137	150
138	20
139	10
140	10
143	10
145	60
147	5975
148	1141
149	3463
150	490
151	310
152	40
153	10
159	20
161	350
162	70
163	681
164	3133
165	601
166	160
167	20
175	20
177	450
178	100
179	651
180	120
181	80
182	10
183	10
191	10
193	40
194	10
195	110
196	20
197	10
205	10
206	120
207	60
208	80
209	420
210	80
211	40
212	10
219	10
221	40
222	10
223	60
224	20
225	220
226	50
227	20
233	10
235	140
236	40
237	771
238	170
239	80
240	10
251	20
253	3904
254	951
255	380
256	60
257	10
265	10
267	20
281	1541
282	390
283	160
284	30
285	10
296	3143
297	831
298	330
299	60
300	10
