Mass Spectrum: 3,4-Dihydroxyhydrocinnamic acid, 3TMS derivative
Formula: C18 H34 O4 Si3
CAS: 27750-68-1
Molecular weight: 398
Origin: NIST Mass Spectrometry Data Center
m/z	RELATIVE INTENSITY
27	10
29	20
31	10
39	10
42	10
43	120
44	110
46	60
47	130
48	10
51	10
53	10
55	110
56	10
57	40
58	60
59	150
60	30
61	70
62	10
63	10
65	20
66	10
69	10
70	20
71	30
73	6596
74	661
75	1131
76	80
77	90
78	20
79	10
83	30
85	20
87	20
88	20
89	50
90	20
91	110
92	10
93	10
95	20
97	10
99	30
101	30
102	20
103	80
104	60
105	110
106	10
107	20
109	10
111	10
113	10
115	120
116	100
117	150
118	40
119	110
120	20
121	30
123	10
127	10
128	10
129	40
130	10
131	180
132	30
133	280
134	40
135	80
136	30
137	40
138	10
141	10
143	20
145	40
147	510
148	100
149	530
150	80
151	100
152	10
153	20
157	10
159	20
160	20
161	130
162	140
163	190
164	50
165	70
166	50
167	30
168	10
171	10
173	10
174	10
175	60
176	20
177	340
179	9999
180	1872
181	601
182	60
183	10
187	10
189	40
190	30
191	150
192	651
193	891
194	160
195	80
196	10
197	10
203	40
204	20
205	80
206	30
207	140
208	30
209	70
210	10
211	10
217	20
218	10
219	90
220	30
221	70
222	20
223	160
224	30
225	20
233	30
234	20
235	50
236	20
237	110
238	30
239	30
240	10
247	10
249	40
250	30
251	160
252	40
253	50
254	30
255	10
263	20
265	821
266	260
267	6446
268	1692
269	661
270	110
271	20
277	10
278	10
280	2462
281	891
282	310
283	80
284	10
291	30
292	10
293	70
294	20
295	130
296	30
297	10
307	20
308	20
309	20
310	60
311	20
312	10
323	10
325	50
326	20
327	10
355	30
356	10
379	10
381	10
383	1611
384	550
385	260
386	60
387	10
398	8858
399	3693
400	1722
401	410
402	100
403	10
