Mass Spectrum: Methamphetamine acetylated
Formula: C12 H17 N O
CAS: 27765-80-6
Molecular weight: 191
Origin: C.Conn ET AL.J.Foronsic Sci.,41,645(1996)
m/z	RELATIVE INTENSITY
27	220
28	480
29	190
30	671
39	631
40	100
41	330
42	1361
43	2182
50	100
51	350
52	60
53	20
54	70
55	20
56	971
58	9999
59	571
62	50
63	220
65	881
66	60
71	20
72	20
74	100
75	40
77	210
78	90
79	50
89	240
91	1621
92	170
100	7807
101	490
102	60
103	90
104	50
105	50
115	340
116	110
117	561
118	380
119	120
129	20
132	60
134	210
146	20
148	70
176	20
191	190
