Mass Spectrum: 10-Undecynoic acid, methyl ester
Formula: C12 H20 O2
CAS: 2777-66-4
Molecular weight: 196
Origin: NIST Mass Spectrometry Data Center
m/z	RELATIVE INTENSITY
14	10
15	240
26	60
27	831
28	260
29	851
30	40
31	110
33	30
37	30
38	130
39	2252
40	510
41	4314
42	971
43	2412
44	120
45	360
46	20
47	10
48	10
49	10
50	170
51	480
52	320
53	1782
54	2062
55	7307
56	611
57	601
59	3503
60	110
61	50
62	30
63	110
64	30
65	681
66	420
67	4424
68	1912
69	1651
70	160
71	280
72	90
73	691
74	9999
75	791
76	70
77	741
78	240
79	2552
80	1581
81	6796
82	1722
83	1371
84	641
85	370
87	3073
88	380
89	40
91	711
92	200
93	1551
94	1271
95	3383
96	1041
97	911
98	290
99	210
100	120
101	470
102	40
103	30
104	60
105	370
106	90
107	1311
108	891
109	951
110	320
111	290
112	70
113	240
114	220
115	290
116	40
117	90
118	90
119	210
120	460
121	991
122	1942
123	791
124	370
125	360
126	140
127	110
128	50
129	70
130	10
131	140
132	20
133	30
135	410
136	470
137	110
138	60
139	120
140	110
141	130
142	20
143	10
145	30
146	50
147	130
148	20
149	250
150	30
153	60
154	20
155	20
156	10
157	20
163	30
164	30
165	120
166	10
167	20
181	10
