Mass Spectrum: Undec-10-ynoic acid
Formula: C11 H18 O2
CAS: 2777-65-3
Molecular weight: 182
Origin: Japan AIST/NIMC Database- Spectrum MS-NW-8226
m/z	RELATIVE INTENSITY
15	40
18	20
26	60
27	1489
28	369
29	1419
30	50
31	169
37	20
38	80
39	1889
40	409
41	4599
42	669
43	1999
44	129
45	939
46	20
47	20
50	90
51	279
52	189
53	1279
54	4309
55	6539
56	579
57	559
58	229
59	999
60	2829
61	239
62	30
63	60
64	10
65	389
66	369
67	5549
68	3409
69	1809
70	389
71	429
72	149
73	1289
74	159
75	20
77	389
78	149
79	1809
80	1699
81	9999
82	2909
83	1769
84	759
85	459
86	129
87	369
88	30
91	279
92	119
93	1199
94	1109
95	4589
96	1339
97	939
98	339
99	289
100	249
101	289
102	30
103	10
104	30
105	129
106	60
107	919
108	409
109	1139
110	299
111	299
112	249
113	139
114	80
115	30
117	30
118	40
119	40
120	239
121	519
122	1489
123	609
124	489
125	459
126	449
127	289
128	50
129	10
131	70
133	20
135	279
136	329
137	70
138	20
139	99
140	209
141	70
142	30
143	40
145	10
146	20
147	50
148	10
149	199
150	20
153	50
154	40
163	10
164	20
165	50
166	10
167	30
182	40
183	20
