Mass Spectrum: Benzene, 1,3-bis(1-isocyanato-1-methylethyl)-
Formula: C14 H16 N2 O2
CAS: 2778-42-9
Molecular weight: 244
Origin: Japan AIST/NIMC Database- Spectrum MS-IW-2610
m/z	RELATIVE INTENSITY
15	169
27	70
28	169
29	60
30	10
38	10
39	189
40	60
41	329
42	119
43	90
44	10
50	99
51	179
52	50
53	30
54	20
55	20
56	429
57	20
58	20
62	20
63	80
64	50
65	90
66	20
68	50
69	10
70	40
71	30
72	10
74	30
75	80
76	149
77	219
78	60
79	189
80	20
84	1149
85	60
86	40
87	10
88	20
89	109
90	139
91	349
92	40
93	50
94	10
101	40
102	169
103	149
104	50
105	40
107	599
108	10
111	20
114	10
115	379
116	239
117	539
118	169
119	40
127	40
128	159
129	70
130	50
131	139
132	40
133	99
134	10
140	10
141	70
142	60
143	299
144	80
145	239
146	109
147	10
151	10
156	10
157	20
158	389
159	239
160	119
161	20
168	30
169	50
170	30
171	80
172	50
173	10
174	30
175	10
184	10
185	20
186	1689
187	279
188	109
189	10
200	20
201	259
202	549
203	80
213	40
214	30
215	10
218	50
220	20
229	9999
230	1509
231	149
232	10
244	909
245	149
246	10
