Mass Spectrum: Glycine, N-(2-methoxybenzoyl)-, methyl ester
Formula: C11 H13 N O4
CAS: 27796-49-2
Molecular weight: 223
Origin: NIST Mass Spectrometry Data Center
m/z	RELATIVE INTENSITY
15	90
27	20
28	90
29	90
30	110
31	20
33	10
37	20
38	70
39	140
40	10
41	10
42	70
43	30
44	30
45	50
49	10
50	230
51	450
52	60
53	90
54	10
55	10
56	100
57	10
59	160
60	10
61	20
62	140
63	480
64	510
65	180
66	30
67	10
73	10
74	90
75	90
76	300
77	2392
78	250
79	250
80	20
82	20
88	20
89	50
90	2542
91	180
92	1321
93	130
94	20
102	10
103	10
104	100
105	520
106	100
107	60
108	10
117	10
118	30
119	50
120	300
121	160
122	20
132	30
133	140
134	611
135	9999
136	961
137	90
146	10
147	10
148	50
149	10
150	80
151	10
161	10
162	20
163	10
164	430
165	40
191	40
192	90
193	10
194	20
204	10
206	10
222	10
223	140
224	20
