Mass Spectrum: Methyl vanillate, TMS derivative
Formula: C12 H18 O4 Si
CAS: 27798-53-4
Molecular weight: 254
Origin: NIST Mass Spectrometry Data Center
m/z	RELATIVE INTENSITY
15	100
27	20
28	20
29	70
30	10
31	50
38	10
39	50
41	10
42	20
43	260
44	120
45	721
46	50
47	50
50	70
51	210
52	50
53	130
54	20
55	80
56	10
57	60
58	130
59	971
60	80
61	100
62	70
63	220
64	50
65	90
66	50
67	70
68	20
69	120
70	30
71	40
72	80
73	2612
74	300
75	380
76	130
77	210
78	80
79	320
80	60
81	80
82	50
83	350
84	40
85	80
86	10
87	10
88	30
89	941
90	140
91	350
92	130
93	140
94	60
95	140
96	50
97	40
98	10
99	50
100	10
101	10
102	10
103	60
104	561
105	250
106	50
107	380
108	80
109	230
110	60
111	50
112	170
115	10
117	20
118	20
119	430
120	210
121	410
122	300
123	210
124	30
125	120
126	10
131	20
132	10
133	80
134	70
135	751
136	250
137	1301
138	180
139	70
140	10
145	10
146	10
147	110
148	100
149	701
150	240
151	270
152	50
153	70
154	10
161	50
163	771
164	230
165	1311
166	310
167	90
168	10
175	10
176	10
177	100
178	70
179	571
180	350
181	160
182	30
191	40
193	6025
194	1011
195	390
196	50
197	10
205	20
206	20
207	200
208	40
209	260
210	50
211	20
219	10
221	30
223	1461
224	9999
225	1732
226	550
227	60
228	10
237	30
239	4894
240	871
241	270
242	30
254	3233
255	601
256	180
257	20
