Mass Spectrum: Tetracyclo[3.2.0.0(2,7).0(4,6)]heptane
Formula: C7 H8
CAS: 278-06-8
Molecular weight: 92
Origin: Japan AIST/NIMC Database- Spectrum MS-NW-7278
m/z	RELATIVE INTENSITY
25	10
26	90
27	249
31	10
36	10
37	139
38	329
39	1309
40	469
41	149
42	10
43	50
44	30
45	139
46	10
49	50
50	299
51	529
52	189
53	179
60	10
61	109
62	239
63	579
64	159
65	2369
66	2659
67	159
73	10
74	50
75	30
76	20
77	129
78	20
84	10
85	30
86	40
87	30
89	329
90	109
91	9999
92	3019
93	199
94	10
