Mass Spectrum: D-Galactonic acid, .gamma.-lactone
Formula: C6 H10 O6
CAS: 2782-07-2
Molecular weight: 178
Origin: Japan AIST/NIMC Database- Spectrum MS-NW-2265
m/z	RELATIVE INTENSITY
12	40
13	40
14	269
15	1919
16	50
17	339
18	1389
19	70
25	50
26	399
27	1349
28	1039
29	3299
30	1089
31	3729
32	219
33	20
36	10
37	80
38	149
39	719
40	169
41	649
42	1669
43	5119
44	3899
45	1659
46	60
47	229
49	20
50	60
51	60
52	50
53	119
54	289
55	1279
56	579
57	1649
58	1139
59	279
60	3799
61	8999
62	329
63	50
65	10
66	10
67	30
68	149
69	659
70	389
71	2239
72	1089
73	9999
74	639
75	119
76	689
77	20
78	10
79	40
80	30
81	60
82	40
83	379
84	419
85	2009
86	469
87	239
88	70
89	639
90	189
91	549
92	20
95	70
96	90
97	129
98	129
99	80
100	1139
101	319
102	90
103	709
104	50
105	10
106	30
107	30
112	279
113	40
114	249
115	30
116	10
117	20
118	799
119	779
120	50
121	30
124	10
126	10
129	10
130	30
131	10
132	80
133	30
142	169
143	10
147	519
148	30
149	30
160	279
161	20
