Mass Spectrum: Benzamide, N-butyl-
Formula: C11 H15 N O
CAS: 2782-40-3
Molecular weight: 177
m/z	RELATIVE INTENSITY
50	303
51	909
52	141
74	121
75	182
76	222
77	3232
78	323
79	121
103	121
104	121
105	9999
106	808
107	141
134	1131
135	1535
136	263
148	343
162	182
176	222
177	1313
178	242
