Mass Spectrum: 1,2-Naphthalenedione, 4-(phenylamino)-
Formula: C16 H11 N O2
CAS: 27828-56-4
Molecular weight: 249
Origin: R.W.A.OLIVER UNIV. OF SALFORD, SALFORD, LANCASHIRE, UK
m/z	RELATIVE INTENSITY
50	3000
51	9999
52	1200
62	1200
63	2500
64	1200
65	1200
74	1700
75	3000
76	3100
77	8200
78	800
87	500
88	600
89	2400
90	1100
101	1600
102	3200
103	600
105	500
115	600
116	700
130	800
165	2000
190	600
191	800
192	600
193	1600
203	1900
204	9000
220	2600
221	800
249	1600
250	300
