Mass Spectrum: Benzene, 4-ethenyl-1,2-dimethyl-
Formula: C10 H12
CAS: 27831-13-6
Molecular weight: 132
m/z	RELATIVE INTENSITY
78	310
91	1832
92	190
103	330
104	160
105	711
106	90
115	2853
116	1221
117	9348
118	931
127	280
128	621
129	530
130	160
131	2692
132	9999
133	1091
134	60
