Mass Spectrum: Ethyl 3-acetoxybutyrate
Formula: C8 H14 O4
CAS: 27846-49-7
Molecular weight: 174
Origin: Japan AIST/NIMC Database- Spectrum MS-NW-3404
m/z	RELATIVE INTENSITY
13	10
14	90
15	559
16	10
18	40
19	20
26	129
27	779
28	99
29	1719
30	40
31	189
32	10
37	20
38	50
39	489
40	129
41	869
42	809
43	9999
44	279
45	729
46	20
47	20
51	10
53	10
55	119
56	10
57	30
58	179
59	70
60	399
61	749
62	20
68	179
69	4889
70	369
71	349
72	70
73	339
74	20
75	50
77	10
84	10
85	929
86	499
87	699
88	739
89	239
90	10
91	10
96	20
99	439
100	149
101	40
102	80
103	219
104	10
105	20
107	60
113	10
114	1119
115	279
116	20
117	519
118	20
119	10
128	10
129	699
130	159
131	1439
132	119
133	20
136	10
147	30
159	20
