Mass Spectrum: Benzene, (1,1-dimethyldecyl)-
Formula: C18 H30
CAS: 27854-40-6
Molecular weight: 246
m/z	RELATIVE INTENSITY
12	10
13	10
14	20
15	50
16	20
26	30
27	540
28	240
29	821
30	20
32	10
37	10
38	10
39	360
40	60
41	1692
42	190
43	661
44	190
45	10
49	10
50	30
51	120
52	40
53	100
54	30
55	330
56	90
57	180
58	10
62	10
63	30
64	10
65	90
66	10
67	30
68	10
69	100
70	60
71	70
72	10
74	10
75	10
76	20
77	260
78	170
79	350
80	30
81	10
82	10
83	20
84	10
85	30
86	10
89	30
90	30
91	1972
92	170
93	10
95	10
96	10
97	10
98	10
99	10
101	10
102	40
103	230
104	70
105	691
106	60
107	10
111	10
112	10
113	10
114	10
115	130
116	60
117	190
118	380
119	9999
120	1001
121	50
126	10
127	10
128	30
129	30
130	10
131	70
132	20
133	20
134	10
139	10
141	10
143	10
145	10
146	10
147	10
153	10
154	10
155	10
159	10
161	10
175	10
189	10
207	10
231	30
232	10
246	230
247	40
248	10
