Mass Spectrum: Phenol, 2-methoxy-4-propyl-
Formula: C10 H14 O2
CAS: 2785-87-7
Molecular weight: 166
Origin: NIST Mass Spectrometry Data Center, 1994
m/z	RELATIVE INTENSITY
12	9
13	12
14	73
15	724
16	19
17	13
18	32
26	147
27	884
28	180
29	691
30	35
31	69
37	34
38	151
39	908
40	206
41	305
42	61
43	231
44	15
45	25
46	13
49	24
50	280
51	775
52	346
53	465
54	72
55	398
56	12
57	17
59	17
61	32
62	115
63	262
64	95
65	515
66	547
67	152
68	37
69	32
74	49
75	55
77	878
78	266
79	437
80	77
81	215
82	23
83	6
86	9
87	9
89	75
91	380
92	48
94	997
95	237
96	19
102	20
103	80
105	245
106	112
107	259
108	57
109	199
110	28
115	25
118	18
119	44
120	20
122	1328
123	223
124	77
125	9
131	23
132	12
133	50
135	123
137	9999
138	920
139	78
149	15
150	31
151	15
166	1868
167	206
168	18
