Mass Spectrum: Phenol, 4-ethyl-2-methoxy-
Formula: C9 H12 O2
CAS: 2785-89-9
Molecular weight: 152
Origin: NIST Mass Spectrometry Data Center, 1994
m/z	RELATIVE INTENSITY
12	22
13	34
15	2134
16	38
17	20
18	42
25	20
26	232
27	898
28	223
29	559
30	62
31	161
32	18
37	91
38	296
39	1485
40	273
41	457
42	91
43	430
44	21
45	58
47	11
49	56
50	550
51	1219
52	556
53	994
54	139
55	621
56	26
57	27
59	13
61	74
62	234
63	466
64	153
65	910
66	615
67	173
68	92
69	84
73	15
74	87
75	69
76	13
77	1238
78	350
79	924
80	206
81	578
82	45
86	19
87	18
89	103
91	1255
92	287
93	159
94	1132
95	303
96	31
102	21
103	83
105	161
106	79
107	410
108	163
109	584
110	48
119	231
120	226
122	1363
123	135
124	74
135	176
137	9999
138	867
139	82
150	41
152	3136
153	348
154	31
