Mass Spectrum: 1,3-Pentadiene, 3-methyl-, (E)-
Formula: C6 H10
CAS: 2787-43-1
Molecular weight: 82
Origin: NIST Mass Spectrometry Data Center, 1990.
m/z	RELATIVE INTENSITY
15	335
26	497
27	2455
28	150
29	407
37	197
38	480
39	3790
40	736
41	3428
42	585
43	138
49	150
50	1055
51	1283
52	605
53	1749
54	1280
55	521
56	117
61	100
62	222
63	338
64	100
65	1982
66	100
67	9999
68	568
74	79
77	434
78	125
79	1189
80	186
81	1182
82	4056
83	253
