Mass Spectrum: 9H-Carbazole, 9-nitroso-
Formula: C12 H8 N2 O
CAS: 2788-23-0
Molecular weight: 196
Origin: W.T.RAINEY OAK RIDGE NATIONAL LABORATORY,OAK RIDGE,TN.USA
m/z	RELATIVE INTENSITY
30	3308
31	110
37	73
38	110
39	441
40	110
50	183
51	257
52	147
61	73
62	367
64	110
65	73
67	73
68	110
69	220
70	183
71	73
74	183
75	183
76	110
77	110
86	147
87	183
88	147
89	183
90	73
98	73
99	73
100	73
101	73
102	73
111	73
112	183
113	257
114	183
115	183
116	110
126	73
127	73
128	73
137	110
138	183
139	1102
140	845
141	147
164	294
165	257
166	2242
167	9999
168	1396
169	110
