Mass Spectrum: Benzene, 1-chloro-4-(epoxyethyl)-
Formula: C8 H7 Cl O
CAS: 2788-86-5
Molecular weight: 154
Origin: Japan AIST/NIMC Database- Spectrum MS-IW-2802
m/z	RELATIVE INTENSITY
14	10
15	10
26	30
27	60
28	30
29	149
30	20
31	10
35	10
36	60
37	119
38	219
39	659
40	40
41	40
42	10
43	139
44	99
45	40
47	20
48	10
49	119
50	569
51	499
52	50
53	20
55	10
59	219
60	40
61	229
62	629
63	1599
64	199
65	359
66	20
69	10
72	50
73	479
74	319
75	619
76	109
77	239
78	20
84	50
85	159
86	189
87	209
88	109
89	8219
90	1099
91	3089
92	239
93	10
96	10
97	99
98	30
99	609
100	40
101	229
102	70
103	129
104	20
105	40
110	10
111	269
112	60
113	109
114	20
115	10
117	10
118	60
119	6499
120	569
121	40
123	209
124	3159
125	9999
126	1919
127	3229
128	299
129	10
134	10
136	10
137	20
138	109
139	289
140	70
141	99
142	10
152	40
153	1769
154	3939
155	919
156	1289
157	109
