Mass Spectrum: 2,3-Dioxabicyclo[2.2.1]heptane
Formula: C5 H8 O2
CAS: 279-35-6
Molecular weight: 100
Origin: ASES Database, Dalian Institute, P.R. China
m/z	RELATIVE INTENSITY
27	2522
28	8527
29	4423
37	1111
41	1481
42	1111
43	9999
44	4423
54	800
55	3192
56	4023
57	3002
58	1101
67	500
71	200
72	190
82	100
100	5014
