Mass Spectrum: Benzoic acid, 4-chloro-, butyl ester
Formula: C11 H13 Cl O2
CAS: 27942-64-9
Molecular weight: 212
Origin: V.G.Zaikin, Petrochem. Synth. Inst., Moscow
m/z	RELATIVE INTENSITY
26	150
27	621
28	100
29	811
30	160
31	70
35	70
36	691
37	80
38	380
39	400
40	160
41	991
42	110
43	350
44	120
45	60
50	811
51	550
55	490
56	4114
57	310
63	60
64	120
65	90
66	40
67	40
69	80
73	250
74	520
75	1792
76	510
77	450
78	60
85	210
87	70
104	210
105	40
110	100
111	3283
112	380
113	1051
114	90
138	50
139	9999
140	851
141	3593
142	410
155	40
156	4564
157	3053
158	1651
159	1011
169	60
171	20
212	90
213	20
214	30
215	10
