Mass Spectrum: Phenol, 4,4',4''-ethylidynetris-
Formula: C20 H18 O3
CAS: 27955-94-8
Molecular weight: 306
Origin: NIST Mass Spectrometry Data Center, 1994
m/z	RELATIVE INTENSITY
26	21
27	127
28	60
29	87
31	29
32	28
38	46
39	489
40	60
41	59
43	71
50	64
51	149
52	30
53	137
55	253
62	47
63	162
64	77
65	512
66	107
74	28
75	75
76	72
77	249
78	45
79	55
82	36
87	35
88	51
89	134
90	52
91	569
92	45
94	197
95	71
101	102
102	63
103	44
105	33
106	45
107	154
109	53
113	124
114	49
115	367
116	73
117	35
118	74
119	577
120	136
121	117
122	56
126	30
127	126
128	123
129	59
130	27
131	102
132	20
135	31
136	38
137	30
139	152
140	67
141	217
142	47
144	60
145	53
150	33
151	109
152	218
153	157
155	35
157	58
163	40
164	44
165	257
166	51
167	48
168	172
169	403
170	63
176	70
177	48
178	54
179	38
181	150
182	32
183	75
184	27
189	111
190	41
193	31
194	42
195	47
197	896
198	154
201	33
202	144
203	47
207	41
211	104
212	55
213	459
214	93
215	130
218	68
219	38
226	68
227	37
231	82
234	30
242	43
243	61
244	71
245	75
247	117
248	64
255	33
259	22
260	47
261	99
262	65
273	71
277	39
289	73
291	9999
292	2182
293	297
305	39
306	800
307	177
308	17
