Mass Spectrum: L-Proline, 1-methyl-, methyl ester
Formula: C7 H13 N O2
CAS: 27957-91-1
Molecular weight: 143
Origin: INST.OF CLINICAL BIOCHEM,RIKSHOSP,UNIV.OF OSLO,E.JELLUM,ET.A
m/z	RELATIVE INTENSITY
27	1500
29	2900
30	700
31	4500
39	500
40	500
41	1000
42	3500
44	700
45	1100
55	700
59	1100
74	600
82	1100
84	9999
85	700
143	300
