Mass Spectrum: 1,4-Naphthalenedione, 2-amino-3-chloro-
Formula: C10 H6 Cl N O2
CAS: 2797-51-5
Molecular weight: 207
Origin: NIST Mass Spectrometry Data Center, 1994
m/z	RELATIVE INTENSITY
27	164
35	101
36	124
37	355
38	595
39	820
40	588
41	153
44	177
47	323
48	326
49	519
50	3464
51	958
52	270
53	226
58	303
61	466
62	856
63	1068
64	183
65	214
66	139
67	187
68	1194
72	99
73	547
74	2091
75	2002
76	4316
77	1865
78	183
84	97
85	260
86	329
87	586
88	892
89	3521
90	496
97	156
98	192
99	381
100	193
101	243
102	179
103	187
104	1332
105	1357
106	119
111	88
113	75
114	374
115	605
116	1865
117	215
123	715
124	138
125	234
126	579
127	145
128	1485
129	145
130	168
135	286
137	114
144	2952
145	401
151	288
153	142
154	1106
155	150
163	254
165	104
172	9999
173	1234
174	130
179	1071
180	907
181	373
182	308
207	8778
208	1181
209	3033
210	328
