Mass Spectrum: 3-Bromopropyl isothiocyanate
Formula: C4 H6 Br N S
CAS: 2799-73-7
Molecular weight: 179
Origin: NIST Mass Spectrometry Data Center, 1994
m/z	RELATIVE INTENSITY
4	35
12	48
13	38
14	140
15	319
25	103
26	856
27	2420
28	1189
29	87
30	28
31	28
32	613
33	75
34	56
36	45
37	383
38	787
39	4155
40	976
41	9999
42	621
43	28
44	776
45	1607
46	212
47	97
49	60
50	90
51	105
52	121
54	100
56	59
57	101
58	521
59	535
60	294
61	32
63	30
64	66
66	42
67	288
68	1213
69	109
70	496
71	934
72	8434
73	505
74	388
79	235
80	146
81	265
82	126
83	36
84	64
85	125
86	158
91	33
93	420
95	316
98	211
99	408
100	2787
101	178
102	119
105	49
106	34
107	180
108	28
109	117
119	49
120	145
121	321
122	137
123	279
151	44
153	38
178	1338
179	2436
180	1416
181	2492
182	213
183	115
