Mass Spectrum: Triethylenediamine
Formula: C6 H12 N2
CAS: 280-57-9
Molecular weight: 112
Origin: Japan AIST/NIMC Database- Spectrum MS-NW-1392
m/z	RELATIVE INTENSITY
14	80
15	1329
16	10
25	10
26	309
27	1139
28	2339
29	1829
30	1069
31	30
32	10
38	20
39	159
40	179
41	1209
42	9999
43	419
44	819
45	30
51	30
52	90
53	40
54	769
55	8279
56	3779
57	5419
58	2889
59	119
67	60
68	269
69	769
70	1659
71	109
72	30
80	10
81	80
82	509
83	739
84	1219
85	259
86	10
97	309
98	20
111	259
112	6679
113	539
114	10
