Mass Spectrum: 8-Azabicyclo[3.2.1]octane
Formula: C7 H13 N
CAS: 280-05-7
Molecular weight: 111
Origin: R.C. DOUGHERTY
m/z	RELATIVE INTENSITY
38	306
39	1939
40	2857
41	2754
42	817
43	1428
44	1735
50	408
51	613
52	510
53	613
54	1326
55	1122
56	1326
57	408
58	204
63	204
65	204
66	153
67	1224
68	9999
69	2347
70	408
74	306
75	102
76	306
77	408
78	1632
79	408
80	918
81	408
82	8775
83	6938
84	408
91	306
92	102
93	153
94	204
95	102
96	408
108	204
109	306
110	510
111	5917
112	510
113	102
