Mass Spectrum: 2,3-Dioxabicyclo[2.2.2]octane
Formula: C6 H10 O2
CAS: 280-53-5
Molecular weight: 114
Origin: Institute of Organic Chemistry, USSR, 1990
m/z	RELATIVE INTENSITY
26	1600
27	4800
28	5700
29	9999
30	1200
31	600
38	100
39	1600
40	400
41	2100
42	1300
43	3300
44	2800
45	100
51	200
53	400
54	1200
55	900
56	200
57	4200
58	2600
59	200
60	200
67	1200
68	200
69	300
70	200
71	100
79	600
80	600
81	4700
82	200
114	3800
115	200
