Mass Spectrum: 4,5-Thiepanedione, 3,3,6,6-tetramethyl-
Formula: C10 H16 O2 S
CAS: 2800-87-5
Molecular weight: 200
Origin: R.F.EVANS UNIV. QUEENSLAND, ST. LUCIA, QUEENSLAND, AUSTRALIA
m/z	RELATIVE INTENSITY
39	1000
40	200
41	2100
42	400
43	600
44	1000
45	500
47	200
53	200
54	700
55	2300
56	9999
57	900
59	300
60	400
61	300
69	200
70	300
73	300
88	900
89	400
97	400
99	300
117	1800
119	80
144	400
172	1100
200	800
