Mass Spectrum: 1H-Pyrazole, 4,5-dihydro-4,5-dimethyl-
Formula: C5 H10 N2
CAS: 28019-94-5
Molecular weight: 98
Origin: ATLAS OF MASS SPECTRA OF ORGANIC COMPOUNDS, V. A. KOPTYUG, ED.
m/z	RELATIVE INTENSITY
26	320
27	1210
28	4410
29	780
30	350
38	120
39	880
40	150
41	1440
42	4410
43	880
44	1150
51	120
52	120
53	240
54	500
55	260
56	2600
57	170
66	60
67	70
68	140
69	410
70	220
81	170
82	90
83	9999
84	520
95	40
97	560
98	4710
99	290
