Mass Spectrum: Pentadecane, 4-methyl-
Formula: C16 H34
CAS: 2801-87-8
Molecular weight: 226
Origin: R.T.HOLMAN,UNIVERSITY OF MINNESOTA
m/z	RELATIVE INTENSITY
26	60
27	560
28	1010
29	1660
30	40
32	190
39	360
40	100
41	2970
42	1050
43	9130
44	320
51	20
52	20
53	160
54	180
55	2460
56	1260
57	8760
58	400
59	20
60	10
65	20
66	20
67	180
68	150
69	930
70	5140
71	9999
72	520
73	20
74	20
77	20
78	10
79	30
80	10
81	70
82	170
83	550
84	500
85	4420
86	260
87	20
91	20
93	10
95	40
96	110
97	520
98	290
99	140
100	110
109	20
110	70
111	300
112	210
113	1120
114	110
115	20
123	10
124	40
125	180
126	170
127	850
128	70
129	10
138	20
139	70
140	100
141	390
142	50
152	20
153	50
154	530
155	380
156	50
168	50
169	60
170	20
182	1950
183	2600
184	330
185	30
196	130
197	180
198	20
199	10
210	60
211	260
212	50
213	10
224	10
225	20
226	184
227	30
