Mass Spectrum: Decane, 2,4-dimethyl-
Formula: C12 H26
CAS: 2801-84-5
Molecular weight: 170
Origin: D.HENNEBERG, MAX-PLANCK INSTITUTE, MULHEIM, WEST GERMANY
m/z	RELATIVE INTENSITY
25	8
26	61
27	895
28	140
29	1417
30	37
39	463
40	89
41	2268
42	591
43	9999
44	263
53	90
54	35
55	691
56	1340
57	6922
58	280
65	6
67	39
68	25
69	547
70	328
71	3842
72	189
82	52
83	235
84	873
85	3010
86	190
97	30
98	28
99	74
111	12
112	381
113	214
126	77
127	130
155	16
