Mass Spectrum: Benzeneethanamine, 2,5-dimethoxy-.alpha.-methyl-
Formula: C11 H17 N O2
CAS: 2801-68-5
Molecular weight: 195
Origin: Drug Lab
m/z	RELATIVE INTENSITY
40	30
41	70
42	220
44	9999
45	270
50	60
51	220
52	100
53	130
54	60
55	160
56	20
57	20
58	10
62	30
63	110
64	60
65	490
66	110
67	80
68	10
69	10
74	20
75	20
76	40
77	520
78	410
79	220
80	50
81	30
83	100
89	90
90	90
91	540
92	100
93	120
94	100
95	40
102	10
103	50
104	60
105	120
106	100
107	90
108	230
109	130
110	10
115	20
116	10
117	40
118	50
119	40
120	40
121	641
122	160
123	140
124	20
130	10
131	30
132	40
133	60
134	40
135	40
136	120
137	1381
138	160
139	10
146	30
147	50
148	90
149	60
150	60
151	290
152	5065
153	490
154	40
161	10
162	70
163	40
164	70
165	30
178	10
179	20
180	60
194	20
195	160
196	20
