Mass Spectrum: Pyrimidine,2,4-difluoro-
Formula: C4 H2 F2 N2
CAS: 2802-61-1
Molecular weight: 116
Origin: ASES Database, Dalian Institute, P.R. China
m/z	RELATIVE INTENSITY
31	1381
40	980
44	2402
45	100
46	200
51	800
52	890
69	390
70	1211
71	3373
73	90
74	90
75	790
76	490
77	800
78	900
89	1311
97	700
116	9999
117	490
