Mass Spectrum: Pyrimidine,4,6-difluoro-
Formula: C4 H2 F2 N2
CAS: 2802-62-2
Molecular weight: 116
Origin: ASES Database, Dalian Institute, P.R. China
m/z	RELATIVE INTENSITY
31	1671
40	980
44	2992
50	380
51	580
52	490
62	100
70	680
71	1301
77	700
78	2101
88	90
89	1881
90	90
97	1291
115	90
116	9999
117	490
