Mass Spectrum: [1,1'-Biphenyl]-4-ol, 4'-chloro-
Formula: C12 H9 Cl O
CAS: 28034-99-3
Molecular weight: 204
Origin: Japan AIST/NIMC Database- Spectrum MS-IW-2677
m/z	RELATIVE INTENSITY
16	10
26	10
27	40
28	129
29	20
36	30
37	20
38	40
39	179
40	20
41	20
43	40
44	10
49	10
50	109
51	149
52	20
53	60
55	229
56	40
57	80
58	10
61	50
62	129
63	299
64	50
65	80
66	10
67	10
68	40
69	249
70	309
71	90
73	50
74	139
75	239
76	70
77	60
79	10
81	20
82	10
83	30
84	489
85	50
86	99
87	119
88	80
89	179
90	30
91	30
92	10
93	30
94	40
95	10
96	10
97	30
98	40
99	60
100	20
101	90
102	619
103	199
109	10
110	30
111	40
112	20
113	169
114	169
115	629
116	80
117	10
118	50
119	10
122	10
123	20
125	50
126	50
127	40
128	10
131	10
135	20
136	60
137	50
138	90
139	899
140	329
141	1319
142	179
143	20
144	10
148	10
149	329
150	90
151	219
152	139
153	20
155	10
160	10
161	10
162	20
163	10
165	10
167	20
168	529
169	289
170	50
173	30
175	309
176	50
177	90
178	40
180	10
186	20
189	10
203	209
204	9999
205	1399
206	3299
207	419
208	30
