Mass Spectrum: 3-Hexene, 1-(1-ethoxyethoxy)-, (Z)-
Formula: C10 H20 O2
CAS: 28069-74-1
Molecular weight: 172
Origin: W.Jennings, T.Shibamoto
m/z	RELATIVE INTENSITY
29	300
41	711
43	80
45	6306
55	1992
56	90
67	290
73	9999
74	400
82	290
83	1782
89	110
103	300
127	90
