Mass Spectrum: 3-Hexen-1-yne
Formula: C6 H8
CAS: 2806-56-6
Molecular weight: 80
Origin: A.G. HARRISON, UNIV. OF TORONTO, TORONTO 5, ONTARIO, CANADA
m/z	RELATIVE INTENSITY
39	5598
50	1794
51	2474
52	2957
53	1263
54	493
63	981
65	3038
77	3809
78	842
79	9999
80	7225
