Mass Spectrum: 8-Dodecen-1-ol, acetate, (Z)-
Formula: C14 H26 O2
CAS: 28079-04-1
Molecular weight: 226
Origin: NIST Mass Spectrometry Data Center, 1998.
m/z	RELATIVE INTENSITY
14	10
15	130
26	40
27	680
28	170
29	1110
30	40
31	80
37	10
38	30
39	1470
40	280
41	6329
42	1340
43	9999
44	310
45	80
50	40
51	140
52	110
53	1160
54	4690
55	9829
56	1410
57	570
58	70
59	30
60	20
61	1010
62	30
63	30
64	10
65	380
66	750
67	9979
68	5059
69	3010
70	470
71	220
72	40
73	300
74	10
77	310
78	80
79	950
80	460
81	8859
82	9769
83	1910
84	250
85	90
86	40
87	30
91	140
92	20
93	270
94	200
95	5179
96	5759
97	980
98	140
99	40
100	50
101	30
105	20
107	80
108	90
109	2580
110	2410
111	330
112	40
113	20
114	50
115	10
121	40
122	60
123	1130
124	800
125	100
126	10
127	10
128	10
135	20
136	30
137	560
138	500
139	60
140	10
141	10
142	10
151	40
152	10
153	10
164	10
166	1870
167	240
168	10
183	10
