Mass Spectrum: trans-anti-trans-Tetra-decahydroanthracene
Formula: C14 H24
CAS: 28071-99-0
Molecular weight: 192
m/z	RELATIVE INTENSITY
53	1701
54	1901
55	3803
56	530
57	600
67	8807
68	1901
69	1201
77	1201
79	3302
80	1401
81	6205
82	1701
83	670
91	900
93	2302
94	1401
95	3803
96	3102
97	900
107	1101
108	1000
109	730
110	1501
121	3603
122	3903
123	3102
135	9999
136	1501
149	630
150	2602
163	350
164	330
192	9808
193	1510
194	110
