Mass Spectrum: Phenylmercuric salicylate
Formula: C13 H10 Hg O3
CAS: 28086-13-7
Molecular weight: 416
Origin: DD1-85-5
m/z	RELATIVE INTENSITY
37	132
38	158
39	474
73	158
74	316
75	263
76	342
77	9999
78	1316
92	1842
93	263
94	1000
120	4736
121	526
138	2894
139	263
196	263
197	316
198	474
199	263
200	579
202	263
275	395
276	763
277	1053
278	658
279	1263
281	316
352	737
353	1368
354	2052
355	1210
356	2447
357	263
358	474
412	158
413	263
414	342
415	211
416	421
417	26
418	53
