Mass Spectrum: Cyclohexane, 1-methyl-4-methylene-
Formula: C8 H14
CAS: 2808-80-2
Molecular weight: 110
m/z	RELATIVE INTENSITY
15	330
26	240
27	2492
29	1091
37	70
39	2592
40	791
41	2722
42	470
43	250
45	80
46	60
50	230
51	540
52	260
53	1732
54	831
55	3263
56	470
63	120
65	340
66	210
67	5145
68	9999
69	1081
70	80
77	520
78	110
79	661
80	200
81	2722
82	641
83	80
91	280
92	90
93	230
95	4774
96	460
97	120
107	40
108	50
109	160
110	2032
111	180
