Mass Spectrum: 2,4-Hexadiyne
Formula: C6 H6
CAS: 2809-69-0
Molecular weight: 78
m/z	RELATIVE INTENSITY
2	30
12	90
13	50
14	70
15	150
24	30
25	70
26	290
27	360
28	50
29	10
31	10
36	190
37	1091
38	841
39	1201
40	40
48	100
49	360
50	2853
51	5095
52	3513
53	140
54	10
60	120
61	310
62	250
63	821
64	50
73	540
74	1651
75	761
77	1611
78	9999
79	641
80	20
