Mass Spectrum: Naphthalene, 1,2,3,4-tetrahydro-5-methyl-
Formula: C11 H14
CAS: 2809-64-5
Molecular weight: 146
Origin: NIST Mass Spectrometry Data Center, 1994
m/z	RELATIVE INTENSITY
15	1433
16	36
26	404
27	2398
28	251
29	334
37	85
38	406
39	2954
40	382
41	861
42	52
50	886
51	2017
52	598
53	676
54	73
55	43
58	296
59	33
61	94
62	504
63	1584
64	865
65	1251
66	164
67	68
71	659
72	472
74	325
75	416
76	388
77	1844
78	755
79	572
80	60
85	33
86	130
87	230
88	113
89	749
90	33
91	3392
92	339
93	41
98	71
99	34
101	114
102	613
103	1090
104	34
105	3319
106	321
113	75
115	3696
116	1336
117	4485
118	7752
119	791
120	44
126	158
127	706
128	1854
129	1599
130	44
131	9999
132	961
133	55
139	115
140	43
141	248
142	74
143	128
144	43
145	1108
146	5646
147	679
148	37
