Mass Spectrum: 2-Thiatricyclo[3.3.1.1(3,7)]decane
Formula: C9 H14 S
CAS: 281-25-4
Molecular weight: 154
m/z	RELATIVE INTENSITY
25	40
26	270
27	2963
28	313
29	901
30	50
31	30
35	50
37	50
38	280
39	4164
40	520
41	4654
42	641
43	881
44	120
45	2162
46	110
47	460
48	150
49	40
50	350
51	981
52	450
53	1371
54	320
55	831
56	330
57	811
58	250
59	611
60	150
61	150
62	130
63	310
64	50
65	1591
66	681
67	1351
68	140
69	140
70	190
71	440
72	40
73	250
74	70
75	130
76	140
77	2052
78	3693
79	9999
80	1471
81	430
82	30
83	60
84	170
85	571
86	330
87	150
89	40
90	20
91	611
92	931
93	1441
94	661
95	170
96	10
97	1571
98	991
99	1371
100	380
101	50
102	10
103	20
104	240
105	1151
106	210
107	410
108	60
109	10
110	10
111	791
112	300
113	210
115	120
116	20
117	130
118	70
119	260
120	330
121	340
122	20
125	160
126	460
127	40
128	20
139	150
140	40
153	150
154	7807
155	861
156	390
157	40
