Mass Spectrum: Tricyclo[4.3.1.1(3,8)]undecane
Formula: C11 H18
CAS: 281-46-9
Molecular weight: 150
m/z	RELATIVE INTENSITY
39	200
41	300
43	300
44	500
53	200
54	300
55	500
56	200
57	200
65	200
66	400
67	2002
68	701
69	200
70	200
77	300
78	400
79	2903
80	2402
81	2102
82	400
83	100
91	400
92	1001
93	4804
94	3203
95	1501
96	400
105	200
106	300
107	3203
108	1902
109	901
110	200
111	1902
112	801
113	200
120	200
135	4504
136	500
137	200
148	200
149	1702
150	9999
151	1301
152	200
