Mass Spectrum: Phosphoric acid, (1-methylethyl)phenyl diphenyl ester
Formula: C21 H21 O4 P
CAS: 28108-99-8
Molecular weight: 368
Origin: NIST Mass Spectrometry Data Center, 1998.
m/z	RELATIVE INTENSITY
26	10
27	60
29	20
37	10
38	50
39	550
40	50
41	300
42	20
43	60
47	110
49	10
50	180
51	900
52	100
53	110
54	10
55	70
57	10
61	10
62	40
63	230
64	100
65	1050
66	190
67	30
68	10
69	10
74	50
75	110
76	150
77	3820
78	1070
79	190
80	20
81	30
83	10
84	10
87	10
88	10
89	140
90	80
91	1800
92	260
93	140
94	820
95	260
96	20
99	20
100	30
101	70
102	340
103	1930
104	250
105	140
106	20
107	340
108	30
109	60
110	10
112	10
113	10
114	20
115	1120
116	270
117	3740
118	9999
119	1210
120	220
121	100
122	10
123	10
124	10
126	10
127	30
128	50
129	20
131	50
132	20
133	40
134	30
135	90
136	30
137	130
138	10
139	170
140	160
141	170
142	50
143	10
149	180
150	30
151	110
152	500
153	290
154	50
155	20
156	40
157	50
158	10
163	80
164	30
165	630
166	90
167	100
168	160
169	180
170	290
171	40
172	10
173	10
174	10
175	140
176	80
177	100
178	750
179	290
180	40
181	120
182	50
183	310
184	50
185	50
186	10
187	20
189	20
190	10
191	30
192	20
193	10
194	40
195	60
196	20
197	40
198	20
199	30
200	10
202	10
215	160
216	30
217	20
223	10
226	10
227	10
228	20
229	10
231	10
232	50
233	60
234	10
239	60
240	30
241	40
242	10
245	10
246	10
248	10
249	280
250	410
251	4510
252	630
253	90
254	20
255	10
257	10
258	10
259	50
260	10
261	40
262	10
263	20
264	10
273	10
275	60
276	80
277	90
278	10
291	80
292	10
299	10
325	30
326	10
327	20
339	20
340	10
351	10
353	530
354	120
355	10
367	70
368	2530
369	580
370	80
371	10
