Mass Spectrum: Benzene, 1-ethyl-3-(phenylmethyl)-
Formula: C15 H16
CAS: 28122-24-9
Molecular weight: 196
Origin: PET53 P.H. Peterman, U.S. Fish Wildlife Serv., Columbia, Mo., USA
m/z	RELATIVE INTENSITY
39	415
41	131
50	106
51	308
52	123
53	98
55	32
62	49
63	271
64	126
65	480
66	56
69	90
74	49
75	136
76	306
77	544
78	266
79	244
80	28
82	161
83	462
88	106
89	839
90	521
91	1401
92	143
93	45
94	49
101	55
102	179
103	302
104	260
105	1240
106	100
113	34
114	58
115	595
116	123
117	325
118	190
119	169
126	81
127	151
128	185
129	84
139	204
140	44
141	205
142	46
149	32
150	131
151	319
152	1166
153	361
154	34
163	362
164	526
165	3812
166	2098
167	9999
168	1298
169	95
180	195
181	757
182	155
193	198
194	374
195	345
196	4717
197	734
198	37
