Mass Spectrum: Benzene, 1-ethyl-2-(phenylmethyl)-
Formula: C15 H16
CAS: 28122-25-0
Molecular weight: 196
Origin: PET52 P.H. Peterman, U.S. Fish Wildlife Serv., Columbia, Mo., USA
m/z	RELATIVE INTENSITY
39	749
41	262
50	194
51	684
52	167
53	227
62	107
63	477
64	195
65	1089
66	74
69	41
70	41
74	69
75	162
76	714
77	1367
78	497
79	481
82	495
83	837
87	78
88	347
89	1937
90	271
91	2512
92	188
94	50
95	48
101	84
102	315
103	758
104	564
105	2652
106	248
113	107
114	175
115	1817
116	698
117	3482
118	6542
119	736
120	44
126	151
127	249
128	429
129	189
130	74
138	42
139	307
140	89
141	403
142	373
143	46
150	214
151	476
152	1908
153	575
154	108
155	110
162	70
163	502
164	783
165	5275
166	3218
167	9999
168	1424
169	89
180	388
181	2230
182	345
193	56
194	418
195	386
196	7280
197	1106
198	88
