Mass Spectrum: Benzene, 2,4-dimethyl-1-(phenylmethyl)-
Formula: C15 H16
CAS: 28122-28-3
Molecular weight: 196
Origin: PET58 P.H. Peterman, U.S. Fish Wildlife Serv., Columbia, Mo., USA
m/z	RELATIVE INTENSITY
39	421
40	96
41	265
43	33
50	78
51	408
52	109
53	191
55	44
62	54
63	232
64	100
65	573
66	57
67	46
71	25
74	36
75	112
76	357
77	931
78	327
79	236
82	255
83	306
84	62
87	36
88	138
89	876
90	34
91	1586
92	150
93	57
94	88
95	34
96	230
97	504
98	163
101	71
102	212
103	452
104	185
105	490
106	43
109	24
112	43
114	108
115	804
116	77
117	874
118	1456
119	905
120	92
126	81
127	176
128	273
129	90
139	179
140	43
141	247
142	156
149	22
150	74
151	175
152	560
153	502
154	110
155	86
156	28
163	415
164	69
165	3438
166	3013
167	560
168	61
174	35
175	31
176	272
177	261
178	1546
179	1665
180	1255
181	9999
182	1667
183	99
192	87
193	197
194	421
195	938
196	7155
197	1137
198	119
