Mass Spectrum: Dinoseb acetate
Formula: C12 H14 N2 O6
CAS: 2813-95-8
Molecular weight: 282
Origin: NIST Mass Spectrometry Data Center, 1995
m/z	RELATIVE INTENSITY
12	7
13	6
14	49
15	489
16	4
17	3
18	14
25	2
26	22
27	302
28	70
29	317
30	171
37	9
38	38
39	292
40	60
41	210
42	2
43	9999
44	276
45	34
46	9
50	104
51	227
52	91
53	231
54	19
55	106
56	17
57	16
60	6
61	17
62	86
63	270
64	111
65	171
66	47
67	34
68	20
69	26
70	4
74	37
75	96
76	87
77	280
78	103
79	73
80	38
81	15
82	4
83	16
85	2
86	16
87	30
89	269
90	92
91	166
92	34
93	16
94	8
95	5
96	3
98	5
99	5
101	64
102	56
103	106
104	42
105	58
106	17
107	9
108	4
109	3
113	3
115	72
116	47
117	143
118	73
119	60
120	21
121	7
122	3
123	2
126	2
127	9
128	16
129	8
130	36
131	45
132	18
133	31
134	9
135	11
136	5
143	3
144	15
145	29
146	34
147	136
148	35
149	11
150	7
151	9
152	4
157	2
158	17
159	12
160	20
161	22
163	166
164	20
165	10
166	8
167	2
168	3
174	2
175	35
176	31
177	45
178	7
179	3
180	2
181	10
190	11
191	12
192	5
193	26
194	13
195	21
196	2
197	14
205	76
206	14
207	13
208	4
210	26
211	258
212	24
213	5
221	2
222	24
223	23
224	40
225	22
226	2
238	2
240	413
241	49
242	8
282	61
283	8
