Mass Spectrum: Silane, ethyl-
Formula: C2 H8 Si
CAS: 2814-79-1
Molecular weight: 60
Origin: D.HENNEBERG, MAX-PLANCK INSTITUTE, MULHEIM, WEST GERMANY
m/z	RELATIVE INTENSITY
26	139
27	695
28	1946
29	1769
30	1371
31	3469
32	437
42	198
43	4234
44	318
45	188
53	745
54	129
55	715
56	825
57	825
58	9999
59	5546
60	1938
61	149
