Mass Spectrum: Cyclopentane, 1,2,3-trimethyl-
Formula: C8 H16
CAS: 2815-57-8
Molecular weight: 112
Origin: N.W. Davies, Centr. Sci. Lab., Univ. Tasmania, Hobart, Australia
m/z	RELATIVE INTENSITY
27	910
29	240
32	170
38	120
39	960
41	3020
42	1780
43	500
53	390
54	220
55	7820
56	8830
57	2690
65	150
67	280
68	190
69	3160
70	9999
71	840
77	170
78	170
83	920
84	2220
97	590
112	1700
