Mass Spectrum: Digermane, hexaphenyl-
Formula: C36 H30 Ge2
CAS: 2816-39-9
Molecular weight: 610
Origin: D.HENNEBERG, MAX-PLANCK INSTITUTE, MULHEIM, WEST GERMANY
m/z	RELATIVE INTENSITY
147	1318
149	3516
150	643
151	2558
152	612
153	455
154	313
155	251
156	204
161	266
176	188
178	313
199	643
201	298
202	643
205	156
207	439
222	235
223	722
224	408
225	1067
226	722
227	941
228	423
229	502
230	219
281	156
301	5824
302	1271
303	7598
304	3720
305	9999
306	1993
307	2433
308	518
356	109
604	345
605	266
609	596
610	737
