Mass Spectrum: 4,8,12-Trimethyldotriacontane
Formula: C35 H72
CAS: 28171-02-0
Molecular weight: 492
Origin: J. Klune, Insect Chem. Ecol. Lab., USDA, Beltsville, MD 20705
m/z	RELATIVE INTENSITY
41	3051
42	1126
43	8100
44	260
53	174
54	242
55	3220
56	2074
57	9999
58	402
67	488
68	415
69	3264
70	2453
71	8787
72	453
79	74
81	337
82	460
83	2112
84	1313
85	6015
86	379
95	236
96	665
97	2429
98	682
99	1662
100	156
105	1957
107	720
109	151
110	184
111	974
112	738
113	1128
114	95
118	302
119	236
120	50
121	38
124	144
125	530
126	2309
127	1167
128	36
131	107
133	173
135	70
137	35
138	178
139	316
140	2235
141	2625
142	273
152	84
153	170
154	415
155	700
156	72
167	85
168	400
169	492
174	602
175	929
176	293
177	287
182	390
183	383
196	1118
197	1610
198	220
210	1006
211	1214
212	184
219	164
224	121
225	197
239	109
253	100
264	73
267	90
280	592
281	327
282	35
295	76
306	81
307	95
308	3149
309	2947
310	602
311	34
322	185
323	152
336	98
337	108
350	644
351	906
352	241
364	36
365	134
375	35
378	1616
379	4869
380	1390
381	179
392	144
393	284
394	86
406	123
407	426
408	141
420	332
421	641
422	280
423	44
427	75
434	95
435	231
436	111
441	102
448	240
449	1152
450	394
462	114
463	662
464	211
476	102
477	489
478	357
479	98
490	36
491	102
492	228
493	90
