Mass Spectrum: 2,6-Difluorophenol
Formula: C6 H4 F2 O
CAS: 28177-48-2
Molecular weight: 130
Origin: Japan AIST/NIMC Database- Spectrum MS-IW-1278
m/z	RELATIVE INTENSITY
25	10
26	20
27	10
28	10
29	40
31	369
32	10
36	20
37	119
38	109
39	80
41	159
44	40
45	70
48	10
49	60
50	199
51	389
52	50
53	149
54	10
55	269
56	349
57	499
58	20
60	30
61	169
62	159
63	1339
64	99
65	409
66	10
68	99
69	80
70	50
71	40
73	80
74	60
75	439
76	60
77	20
79	50
80	109
81	1579
82	6169
83	439
84	40
86	10
87	20
91	20
92	30
93	30
94	10
98	10
99	119
100	60
101	809
102	60
104	10
110	2949
111	199
112	30
113	20
128	40
129	259
130	9999
131	659
132	30
