Mass Spectrum: 2,5-Dimethylbenzselenazole
Formula: C9 H9 N Se
CAS: 2818-89-5
Molecular weight: 211
Origin: Japan AIST/NIMC Database- Spectrum MS-IW- 663
m/z	RELATIVE INTENSITY
27	40
28	10
37	10
38	30
39	189
40	20
41	10
42	10
50	70
51	109
52	30
53	30
61	30
62	90
63	339
64	60
65	129
66	20
74	50
75	40
76	30
77	199
78	729
79	50
80	30
82	20
83	20
84	40
85	30
86	30
87	60
88	30
89	859
90	209
91	159
92	20
93	119
94	20
95	20
102	30
103	90
104	119
105	209
106	30
107	30
113	40
114	40
115	119
116	60
117	239
118	149
119	70
120	10
126	10
127	30
128	30
129	60
130	959
131	1199
132	119
137	10
138	10
139	30
140	20
141	60
142	30
143	30
144	30
153	10
154	10
155	10
156	10
163	70
164	50
165	749
166	1079
167	2319
168	1209
169	4159
170	2419
171	939
172	439
173	40
180	10
181	10
182	10
183	20
184	20
192	30
193	20
194	70
195	10
196	119
197	10
198	20
204	10
205	179
206	139
207	1969
208	2019
209	4929
210	1129
211	9999
212	1139
213	1829
214	179
