Mass Spectrum: 2-Butylthiazoline
Formula: C7 H13 N S
CAS: 28221-34-3
Molecular weight: 143
Origin: T.-C. Huang ET AL.J.Agr.Food Chem.,46,224(1998)
m/z	RELATIVE INTENSITY
40	1191
41	2382
42	320
43	1191
44	661
45	2262
51	220
54	1001
55	901
56	490
57	290
58	1121
59	3503
60	6206
61	1972
62	340
67	490
69	781
70	440
71	320
80	340
88	1121
101	9999
114	1071
115	360
143	340
