Mass Spectrum: Phenol,2,3,4-trifluoro-
Formula: C6 H3 F3 O
CAS: 2822-41-5
Molecular weight: 148
Origin: NIST Mass Spectrometry Data Center
m/z	RELATIVE INTENSITY
25	10
26	30
27	10
29	110
31	540
32	10
33	10
36	30
37	150
38	110
39	70
40	10
42	10
43	20
44	40
45	40
47	10
48	30
49	130
50	1411
51	751
52	30
53	250
54	20
55	190
56	410
57	410
58	20
60	80
61	390
62	200
63	60
64	50
65	10
66	10
67	30
68	400
69	921
70	841
71	230
72	20
73	90
74	641
75	831
76	50
77	50
78	10
79	220
80	390
81	961
82	60
83	20
84	20
85	20
86	50
87	70
88	120
89	20
90	10
91	90
92	50
93	561
94	230
95	40
96	10
97	40
98	70
99	3173
100	5665
101	1111
102	60
103	10
104	10
105	10
106	50
108	10
109	30
110	20
111	20
112	20
115	10
117	100
118	100
119	2452
120	801
121	50
122	20
128	1001
129	190
130	90
131	30
146	30
147	320
148	9999
149	691
150	40
