Mass Spectrum: 1H-3a,7-Methanoazulen-5-ol, octahydro-3,8,8-trimethyl-6-methylene-
Formula: C15 H24 O
CAS: 28231-03-0
Molecular weight: 220
m/z	RELATIVE INTENSITY
14	60
15	240
17	190
18	1061
26	170
27	1842
29	2402
30	70
31	390
32	80
37	50
38	50
39	2072
40	460
41	9218
42	621
43	8237
44	270
45	591
50	110
51	430
52	260
53	2422
54	380
55	5075
56	911
57	1702
58	530
59	911
60	110
63	160
64	70
65	1081
66	430
67	3133
68	711
69	5145
70	781
71	2552
72	1281
73	190
74	80
75	140
76	140
77	2863
78	651
79	3393
80	811
81	4704
82	2422
83	1331
84	430
85	230
89	110
90	70
91	3473
92	1942
93	5085
94	1611
95	9999
96	1541
97	550
98	140
99	851
103	230
104	140
105	3163
106	931
107	3853
108	2722
109	3773
110	500
111	500
112	250
113	260
114	50
115	250
116	120
117	380
118	140
119	3063
120	1862
121	3523
122	1962
123	1762
124	210
125	140
127	50
128	120
129	70
130	70
131	230
132	80
133	1892
134	861
135	3173
136	931
137	1031
138	280
139	100
140	60
141	60
142	50
145	160
146	120
147	1511
148	881
149	2322
150	6806
151	6426
152	1121
153	150
159	80
160	110
161	3213
162	881
163	530
164	861
165	1211
166	661
167	200
173	50
175	240
176	100
177	711
178	230
179	320
180	90
187	831
188	110
189	300
190	60
191	180
202	2142
203	320
204	100
205	1661
206	240
220	731
221	100
