Mass Spectrum: Benthiocarb
Formula: C12 H16 Cl N O S
CAS: 28249-77-6
Molecular weight: 257
Origin: ACCUSTANDARD Chemicals / NIST MS Data Center.
m/z	RELATIVE INTENSITY
12	6
13	5
15	222
18	5
26	103
27	855
28	304
29	2542
30	142
33	7
35	27
36	12
37	17
38	76
39	334
40	49
41	150
42	947
43	7
44	2231
45	1337
46	56
47	76
48	17
49	27
50	134
51	221
52	32
53	11
54	36
56	434
57	140
58	163
59	38
60	91
61	128
62	160
63	563
64	111
65	82
66	7
67	3
69	61
70	132
72	5944
73	421
74	79
75	243
76	131
77	219
78	59
79	17
81	6
82	11
83	5
84	31
85	31
86	67
87	45
88	5
89	1130
90	333
91	48
92	6
93	18
94	12
95	12
96	14
97	34
100	9999
101	664
102	58
104	91
105	15
106	6
111	85
112	46
113	41
114	16
115	7
116	12
117	6
118	33
119	26
120	42
121	163
122	73
123	38
124	6
125	2554
126	228
127	786
128	55
129	7
130	6
132	219
133	18
134	12
139	17
140	10
141	8
142	5
144	3
149	5
153	5
155	126
156	33
157	140
158	25
159	41
160	6
182	7
184	4
223	7
224	36
225	4
226	9
257	1594
258	259
259	604
260	84
261	31
262	4
