Mass Spectrum: 1H-Inden-1-one, octahydro-, cis-
Formula: C9 H14 O
CAS: 2826-65-5
Molecular weight: 138
Origin: CARL DJERASSI DEPT OF CHEM STANFORD UNIV STANFORD CALIF 94305
m/z	RELATIVE INTENSITY
38	300
39	5800
40	1000
41	6400
42	1100
43	300
50	400
51	1100
52	500
53	2400
54	4700
55	3100
56	700
57	100
63	100
65	500
66	800
67	9999
68	2800
69	1500
70	100
77	800
78	300
79	2300
80	1100
81	6500
82	2500
83	3500
84	200
91	400
92	200
93	200
94	4600
95	1600
96	5000
97	600
109	2800
110	900
120	300
137	100
138	3600
139	300
