Mass Spectrum: Nonanoic acid, 1-methylethyl ester
Formula: C12 H24 O2
CAS: 28267-32-5
Molecular weight: 200
Origin: Insect Chem. Ecol. Lab., USDA, Beltsville, MD 20705
m/z	RELATIVE INTENSITY
41	5443
42	2454
43	9999
45	845
47	31
48	7
49	51
50	8
51	49
53	295
54	317
55	3651
56	1246
57	6105
58	11
59	4405
60	8408
61	2667
62	86
63	19
65	43
67	511
68	412
69	1805
70	926
71	2567
73	3957
74	509
75	75
76	9
77	25
78	23
79	104
80	58
81	685
82	157
83	953
84	863
85	515
86	13
87	1589
88	7
89	456
91	31
93	102
94	101
95	286
96	493
97	956
98	2127
99	494
101	915
102	8433
103	963
104	76
105	19
107	44
109	119
110	65
111	252
112	304
113	124
114	246
115	2596
116	192
117	75
118	11
119	13
121	141
122	87
123	170
125	143
126	42
127	135
129	1757
130	157
131	37
132	29
133	35
135	21
136	12
137	35
138	113
139	458
141	5184
142	467
143	123
144	42
145	63
149	36
150	7
151	10
152	13
153	47
154	23
155	314
156	73
157	388
158	2253
159	3823
160	262
161	24
167	11
169	44
171	52
172	90
173	119
174	16
175	10
177	13
183	10
185	93
186	21
187	23
198	16
199	76
200	288
201	32
