Mass Spectrum: Nitrobenzene, 3-(2,2-dicyanoethenyl)
Formula: C10 H5 N3 O2
CAS: 2826-32-6
Molecular weight: 199
Origin: USAF ACADEMY, COLORADO SPRINGS, COLORADO 80840, J LLOYD PFLUG
m/z	RELATIVE INTENSITY
14	53
15	48
26	87
27	155
30	1253
37	174
38	354
39	529
40	19
45	63
46	228
49	135
50	1427
51	1486
52	344
53	48
61	325
62	680
63	854
64	262
65	82
66	58
73	189
74	850
75	1971
76	1301
77	519
78	92
85	97
86	218
87	383
88	388
89	184
90	82
91	63
97	53
98	204
99	1830
100	2000
101	519
102	1471
103	165
112	68
113	92
114	1481
115	233
116	63
123	121
124	131
125	305
126	6731
127	879
128	68
140	58
141	2025
142	412
143	53
152	388
153	9999
154	1136
155	87
168	87
169	480
170	63
182	77
183	101
199	6881
200	888
201	82
