Mass Spectrum: 3,4-Methylenedioxypropiophenone
Formula: C10 H10 O3
CAS: 28281-49-4
Molecular weight: 178
Origin: NIST Mass Spectrometry Data Center, 1994
m/z	RELATIVE INTENSITY
12	24
13	25
14	173
15	143
18	17
26	271
27	1327
28	359
29	1564
30	145
32	9
37	234
38	290
39	885
40	54
41	23
42	96
43	2
46	10
49	68
50	399
51	586
52	71
53	498
54	26
55	183
57	160
58	5
60	74
61	319
62	1115
63	2472
64	338
65	3138
66	211
67	32
69	10
73	27
74	259
75	82
76	63
77	182
78	33
79	128
80	10
85	10
86	12
87	14
88	17
89	57
90	10
91	890
92	150
93	37
98	6
102	13
103	18
104	9
105	24
107	13
119	206
121	2956
122	246
123	30
135	46
145	9
146	9
147	46
149	9999
150	862
151	98
152	7
178	2062
179	219
180	23
