Mass Spectrum: Cis-bicyclo[4.2.0]octane
Formula: C8 H14
CAS: 28282-35-1
Molecular weight: 110
Origin: V.G.Zaikin, TIPS, Russian Acad. Sci.
m/z	RELATIVE INTENSITY
51	400
52	200
53	950
54	5504
55	1251
56	300
63	100
65	300
66	500
67	9999
68	2302
69	1101
77	300
78	100
79	400
80	300
81	4203
82	9408
83	600
95	1000
96	80
110	950
111	80
