Mass Spectrum: 3-Aminoheptane
Formula: C7 H17 N
CAS: 28292-42-4
Molecular weight: 115
Origin: NIST Mass Spectrometry Data Center, 1990.
m/z	RELATIVE INTENSITY
14	58
15	151
16	12
17	66
18	12
25	19
26	181
27	1171
28	1374
29	1210
30	6075
31	108
38	91
39	718
41	2531
42	841
43	937
44	718
50	34
51	67
52	49
53	117
54	168
55	375
56	977
57	34
58	9999
59	384
65	25
66	23
67	58
68	23
69	620
70	160
71	49
72	31
82	29
83	18
84	71
85	18
86	4984
87	271
114	92
115	30
