Mass Spectrum: 2-Hexanamine, 5-methyl-
Formula: C7 H17 N
CAS: 28292-43-5
Molecular weight: 115
Origin: RADIAN CORP
m/z	RELATIVE INTENSITY
15	50
18	270
27	390
28	230
29	280
30	370
39	450
40	70
41	950
42	670
43	520
44	9999
45	270
51	30
53	80
54	60
55	750
56	400
57	200
58	100
69	30
70	80
83	380
100	150
114	20
