Mass Spectrum: 6,7-Dioxabicyclo[3.2.2]nonane
Formula: C7 H12 O2
CAS: 283-35-2
Molecular weight: 128
Origin: ASES Database, Dalian Institute, P.R. China
m/z	RELATIVE INTENSITY
26	400
27	7977
28	4173
29	9999
30	100
31	590
39	3302
40	300
41	8377
42	4964
43	8647
44	5845
45	200
53	300
54	800
55	1981
56	500
57	2962
58	290
67	2892
68	490
69	490
70	100
71	1191
72	190
79	90
81	390
82	190
83	200
84	390
85	300
93	300
95	1991
128	2792
129	90
