Mass Spectrum: 3-Azabicyclo[3.2.2]nonane
Formula: C8 H15 N
CAS: 283-24-9
Molecular weight: 125
Origin: Japan AIST/NIMC Database- Spectrum MS-IW- 82
m/z	RELATIVE INTENSITY
15	80
26	30
27	649
28	629
29	499
30	2279
31	40
32	289
37	10
38	60
39	1229
40	199
41	1719
42	929
43	3319
44	9999
45	489
46	90
48	10
50	60
51	169
52	99
53	599
54	819
55	1379
56	859
57	1039
58	80
59	20
62	10
63	40
64	10
65	219
66	209
67	1249
68	1459
69	1029
70	1479
71	399
72	10
77	339
78	90
79	1379
80	369
81	669
82	1269
83	399
84	299
85	20
91	199
92	40
93	329
94	1009
95	429
96	3909
97	499
98	40
105	10
106	10
107	30
108	40
109	10
110	509
111	40
122	70
123	40
124	1579
125	4489
126	489
127	20
