Mass Spectrum: 2,4,6-Trifluorobenzoic acid
Formula: C7 H3 F3 O2
CAS: 28314-80-9
Molecular weight: 176
Origin: NIST Mass Spectrometry Data Center, 1994
m/z	RELATIVE INTENSITY
17	43
18	5
36	63
37	320
38	119
44	242
45	158
48	22
49	61
50	207
51	143
55	82
56	258
57	297
60	35
61	656
62	739
63	516
64	84
68	404
69	121
70	21
71	65
73	21
75	543
77	50
80	489
81	3630
82	273
86	150
87	151
88	146
92	235
93	140
99	411
100	306
101	252
106	75
110	58
111	151
112	723
113	92
119	109
127	171
128	184
129	30
130	30
131	3689
132	782
133	48
147	25
148	67
157	73
159	9999
160	687
161	45
176	5494
177	425
178	14
