Mass Spectrum: Acetamide, N-9H-fluoren-4-yl-
Formula: C15 H13 N O
CAS: 28322-02-3
Molecular weight: 223
Origin: NIST Mass Spectrometry Data Center, 1998.
m/z	RELATIVE INTENSITY
14	10
15	90
27	20
29	10
38	20
39	130
40	10
41	20
42	110
43	1640
44	40
50	130
51	210
52	80
53	20
54	10
61	20
62	120
63	330
64	50
65	40
69	40
73	10
74	190
75	290
76	320
77	300
78	50
81	50
83	10
85	20
86	100
87	170
88	90
89	120
90	50
91	10
95	10
97	10
98	100
99	110
100	80
101	140
102	130
103	30
104	10
109	10
110	30
111	50
112	20
113	130
114	90
115	190
116	30
122	20
123	30
124	30
125	140
126	500
127	580
128	280
129	30
130	10
135	10
137	50
138	50
139	190
140	200
141	50
149	70
150	610
151	1480
152	4040
153	1680
154	280
155	20
161	20
162	70
163	630
164	1140
165	1230
166	180
167	20
175	30
176	70
177	270
178	440
179	270
180	7119
181	9999
182	1570
183	110
188	10
189	10
190	40
191	20
192	30
193	20
194	60
195	10
204	10
205	20
206	80
207	50
208	40
223	4380
224	740
225	70
