Mass Spectrum: Cholest-3-ene, (5.alpha.)-
Formula: C27 H46
CAS: 28338-69-4
Molecular weight: 370
Origin: CARL DJERASSI DEPT OF CHEM STANFORD UNIV STANFORD CALIF 94305
m/z	RELATIVE INTENSITY
41	1212
42	101
43	1414
55	1515
56	101
57	1111
67	1212
68	101
69	808
71	505
77	505
78	101
79	1111
80	101
81	1818
82	202
83	505
91	1111
92	202
93	1616
94	606
95	1717
96	101
97	303
105	808
106	505
107	1616
108	2222
109	1111
119	505
120	303
121	909
122	404
123	505
133	606
134	707
135	1010
136	202
137	101
145	404
146	101
147	1010
148	202
149	505
159	101
160	202
161	505
162	303
163	303
173	202
175	202
183	101
184	101
187	101
188	202
189	202
198	202
200	101
201	404
202	101
203	101
215	2323
216	909
217	303
230	404
231	303
247	101
257	1212
258	202
260	101
274	101
275	101
315	101
316	101
328	101
329	101
355	2222
356	505
370	9999
371	2929
372	202
