Mass Spectrum: Thiazole, 2-amino-4-(4-biphenylyl)-
Formula: C15 H12 N2 S
CAS: 2834-79-9
Molecular weight: 252
Origin: Albert Lebedev, Moscow State University, Russia
m/z	RELATIVE INTENSITY
37	50
38	150
39	610
40	40
41	40
42	120
43	320
44	180
45	780
46	150
47	60
48	10
50	570
51	930
52	220
53	70
54	10
55	20
56	10
57	50
58	70
59	30
60	170
61	100
62	350
63	810
64	120
65	140
66	40
67	40
69	320
70	130
71	70
72	30
73	210
74	410
75	490
76	440
77	890
78	180
79	420
80	70
82	450
83	40
84	40
85	90
86	190
87	280
88	220
89	420
90	120
91	300
92	300
93	210
94	30
95	60
96	20
98	160
99	130
100	80
101	120
102	220
103	170
104	600
105	200
106	90
107	20
108	110
109	40
110	60
111	80
112	70
113	210
114	160
115	410
116	60
117	50
118	20
119	20
120	20
121	50
122	30
123	30
126	1140
127	280
128	110
129	30
130	20
131	150
132	50
133	40
134	190
135	30
136	20
137	80
138	100
139	400
140	100
141	40
142	20
145	40
146	40
147	30
148	80
149	60
150	250
151	500
152	870
153	220
154	50
155	20
158	60
159	20
160	10
161	20
162	70
163	400
164	600
165	2260
166	360
167	50
168	10
169	30
170	30
171	90
172	20
173	10
174	70
175	300
176	440
177	230
178	430
179	220
180	700
181	130
182	40
183	60
184	250
185	40
186	20
190	80
191	30
192	60
193	90
194	20
195	60
196	30
197	90
198	40
205	70
206	50
207	210
208	1220
209	1030
210	3400
211	620
212	200
213	30
217	10
218	40
219	30
220	10
222	40
223	40
224	100
225	130
226	30
234	30
235	30
236	10
237	10
252	9999
253	1840
254	550
255	90
256	10
