Mass Spectrum: Chlorodifluoroacetic anhydride
Formula: C4 Cl2 F4 O3
CAS: 2834-23-3
Molecular weight: 242
Origin: Japan AIST/NIMC Database- Spectrum MS-NW-9891
m/z	RELATIVE INTENSITY
12	10
16	30
28	40
31	339
35	70
36	169
37	20
38	50
41	10
43	10
44	879
45	489
47	99
49	10
50	1079
51	699
58	30
63	149
65	50
66	349
67	80
68	99
69	129
78	239
83	10
85	9999
86	409
87	3239
88	129
94	10
95	549
96	10
97	60
101	10
103	10
113	399
115	129
129	30
131	10
