Mass Spectrum: Allyl isovalerate
Formula: C8 H14 O2
CAS: 2835-39-4
Molecular weight: 142
Origin: NIST Mass Spectrometry Data Center, 1998.
m/z	RELATIVE INTENSITY
14	10
15	80
25	10
26	120
27	860
28	130
29	1330
30	50
31	100
37	70
38	220
39	2910
40	450
41	7929
42	1120
43	2050
44	130
45	150
50	40
51	50
52	20
53	150
54	520
55	1460
56	920
57	9999
58	920
59	1710
60	140
61	100
65	10
67	100
68	30
69	410
70	30
71	80
72	80
73	30
79	20
81	190
82	350
83	140
84	20
85	7899
86	450
87	50
95	40
96	10
97	10
99	210
100	1090
101	130
102	10
103	120
104	10
109	20
113	10
114	10
127	30
142	20
143	10
