Mass Spectrum: dl-2-Aminobutyric acid
Formula: C4 H9 N O2
CAS: 2835-81-6
Molecular weight: 103
Origin: Japan AIST/NIMC Database- Spectrum MS-NW-8146
m/z	RELATIVE INTENSITY
14	10
15	99
16	10
17	90
18	289
19	10
26	90
27	349
28	2159
29	509
30	1159
31	20
32	20
37	10
38	30
39	239
40	60
41	2439
42	459
43	589
44	309
45	179
46	429
47	10
51	10
52	30
53	10
54	70
55	40
56	469
57	179
58	9999
59	389
60	20
68	20
69	20
70	30
71	10
74	1909
75	60
84	10
