Mass Spectrum: 3-Aminobenzophenone
Formula: C13 H11 N O
CAS: 2835-78-1
Molecular weight: 197
Origin: NIST Mass Spectrometry Data Center, 1990.
m/z	RELATIVE INTENSITY
15	44
17	19
18	25
26	31
27	192
28	202
29	21
30	19
37	97
38	315
39	1464
40	125
41	310
42	115
44	19
45	19
46	21
50	700
51	2039
52	454
53	129
54	89
55	14
57	23
58	23
61	76
62	283
63	679
64	536
65	3320
66	414
67	34
69	31
70	46
71	131
73	38
74	254
75	251
76	563
77	5586
78	403
79	18
82	26
83	277
84	199
86	54
87	53
88	58
89	134
90	151
91	459
92	4570
93	320
94	20
98	256
100	20
101	37
102	48
105	6570
106	431
107	26
110	21
112	11
113	49
114	56
115	237
116	50
117	28
120	8973
121	658
122	48
125	19
126	43
127	41
128	57
130	13
139	205
140	168
141	180
142	25
143	24
149	12
150	66
151	190
152	213
153	103
154	56
164	18
166	194
167	585
168	603
169	906
170	106
177	45
178	338
179	135
180	886
181	381
182	56
193	15
196	1453
197	9999
198	1418
199	112
