Mass Spectrum: Ethane, 2-chloro-1,1,1,2-tetrafluoro-
Formula: C2 H Cl F4
CAS: 2837-89-0
Molecular weight: 136
Origin: T.J. Bruno, Cent. Chem. Technol., NIST, Boulder, CO 80303, USA
m/z	RELATIVE INTENSITY
19	227
24	129
25	152
31	4851
35	1005
36	102
37	327
43	153
47	511
48	594
49	223
50	1291
51	5232
63	136
67	9999
68	110
69	2825
70	67
82	416
85	141
87	45
101	3950
102	87
117	1550
118	56
119	468
120	11
136	292
137	6
138	91
139	2
