Mass Spectrum: 6,8-Dioxabicyclo[3.2.1]octane, 1,5-dimethyl-, (1S)-
Formula: C8 H14 O2
CAS: 28401-39-0
Molecular weight: 142
Origin: Mark Whitten, Florida Museum of Natural History, U. of Florida
m/z	RELATIVE INTENSITY
41	1355
43	9999
44	299
45	99
50	50
51	91
53	321
54	538
55	640
56	92
57	535
58	422
59	59
61	112
62	15
63	23
65	68
67	601
68	155
69	508
71	1344
72	3478
73	182
74	24
77	29
79	82
80	19
81	113
82	293
83	148
84	218
85	309
86	30
91	10
93	21
94	20
95	54
97	233
99	284
100	1633
101	123
108	14
109	31
110	9
111	104
112	529
113	49
114	191
115	15
126	6
127	12
142	482
143	50
