Mass Spectrum: Cyclopentanol, 2-bromo-, cis-
Formula: C5 H9 Br O
CAS: 28435-62-3
Molecular weight: 164
Origin: J. M. PECHINE
m/z	RELATIVE INTENSITY
27	1385
28	620
29	1750
30	210
31	445
38	145
39	1160
40	240
41	1840
42	295
43	935
44	470
53	220
55	1320
56	410
57	9999
58	780
65	110
67	2025
68	120
71	490
83	225
84	370
85	2565
86	170
135	150
136	440
137	165
138	430
146	205
148	195
164	1865
166	1840
