Mass Spectrum: Benzenesulfonyl isocyanate
Formula: C7 H5 N O3 S
CAS: 2845-62-7
Molecular weight: 183
Origin: NIST Mass Spectrometry Data Center, 1994
m/z	RELATIVE INTENSITY
12	27
16	33
18	8
25	15
26	93
27	353
30	108
33	7
37	196
38	426
39	814
40	37
41	20
42	488
44	78
46	131
48	361
49	195
50	2224
51	4866
52	272
53	88
54	13
57	58
58	25
60	36
61	69
62	143
63	244
64	473
65	498
66	45
68	17
69	159
70	30
71	21
73	112
74	493
75	352
76	17
77	9999
78	633
79	28
80	9
81	53
82	37
83	12
90	118
91	131
92	26
93	75
94	10
95	13
97	106
106	136
107	8
108	23
109	22
119	26
125	49
141	3233
142	242
143	150
183	1543
184	157
185	80
