Mass Spectrum: 2,6-Dichlorostyrene
Formula: C8 H6 Cl2
CAS: 28469-92-3
Molecular weight: 172
Origin: NIST Mass Spectrometry Data Center
m/z	RELATIVE INTENSITY
26	50
27	80
35	20
36	30
37	180
38	190
39	180
43	10
47	40
48	20
49	400
50	1732
51	1311
52	190
53	10
55	40
56	10
60	130
61	520
62	631
63	711
64	40
67	50
68	831
69	290
71	10
72	120
73	701
74	2262
75	3053
76	651
77	130
83	10
84	380
85	440
86	500
87	490
88	70
89	20
95	10
96	60
97	320
98	591
99	1121
100	911
101	4834
102	4404
103	360
104	10
107	30
108	110
109	330
110	190
111	400
112	140
113	90
114	30
119	10
120	10
121	40
122	10
123	130
124	10
125	40
133	20
134	40
135	430
136	1792
137	9999
138	1431
139	3273
140	280
141	10
146	150
147	10
148	90
150	10
157	10
170	70
171	150
172	8378
173	811
174	5385
175	470
176	881
177	70
