Mass Spectrum: 1,3,5-Trimethyl-1H-pyrazol-4-amine
Formula: C6 H11 N3
CAS: 28466-21-9
Molecular weight: 125
Origin: NIST Mass Spectrometry Data Center
m/z	RELATIVE INTENSITY
13	30
14	120
15	2582
16	70
17	40
18	120
26	350
27	1021
28	3083
29	641
30	550
37	80
38	260
39	661
40	691
41	931
42	9999
43	631
44	50
49	20
50	90
51	270
52	741
53	921
54	1491
55	861
56	8798
57	6946
58	250
63	330
64	60
65	130
66	240
67	290
68	210
69	380
70	50
75	20
76	10
78	30
79	30
80	180
81	90
83	1541
84	2823
85	170
93	30
95	60
96	30
97	40
107	50
108	80
109	40
110	130
122	40
125	8117
126	641
127	30
