Mass Spectrum: 6-Oxabicyclo[3.1.0]hexane
Formula: C5 H8 O
CAS: 285-67-6
Molecular weight: 84
Origin: NIST Mass Spectrometry Data Center, 1990.
m/z	RELATIVE INTENSITY
13	62
14	277
15	723
16	45
18	44
25	235
26	2044
27	6074
28	3583
29	5363
30	183
31	322
32	13
36	68
37	463
38	962
39	5191
40	1211
41	8476
42	2424
43	1480
44	842
45	137
48	25
49	143
50	571
51	525
52	187
53	1201
54	25
55	9999
56	4424
57	1160
58	172
60	30
61	78
62	98
63	94
64	28
65	294
66	442
67	193
68	28
69	944
70	46
81	52
83	2152
84	582
85	32
