Mass Spectrum: 1-Azabicyclo[3.1.0]hexane
Formula: C5 H9 N
CAS: 285-76-7
Molecular weight: 83
Origin: P.GASSMAN, OHIO STATE UNIVERSITY, COLUMBUS, OHIO.
m/z	RELATIVE INTENSITY
27	1400
28	5000
29	1000
31	40
39	900
41	1900
42	3300
53	500
54	2600
55	9999
56	800
82	5100
83	4500
84	400
