Mass Spectrum: Acetic acid, [(4-methylphenyl)sulfonyl]-, ethyl ester
Formula: C11 H14 O4 S
CAS: 2850-19-3
Molecular weight: 242
m/z	RELATIVE INTENSITY
77	420
89	380
90	310
91	9999
92	1140
105	375
106	390
107	400
108	720
139	420
155	3400
156	350
178	1600
197	430
242	440
