Mass Spectrum: Dodecane, 1-(ethylthio)-
Formula: C14 H30 S
CAS: 2851-83-4
Molecular weight: 230
Origin: KONINKLIJKE SHELL LABORATORIUM AMSTERDAM
m/z	RELATIVE INTENSITY
30	194
31	75
32	54
33	32
34	95
35	820
36	24
37	54
38	38
39	1638
40	301
41	9999
42	1979
43	8529
44	305
45	800
46	519
47	2795
48	435
49	159
50	38
51	63
52	34
53	521
54	807
55	7656
56	3550
57	4125
58	99
59	336
60	816
61	1925
62	5000
63	2259
64	283
65	159
66	63
67	908
68	886
69	4700
70	2576
71	1316
72	75
73	141
74	67
75	6108
76	767
77	380
78	46
79	75
80	20
81	314
82	606
83	2834
84	1289
85	666
86	40
87	326
88	56
89	908
90	151
91	63
92	8
93	10
94	2
95	109
96	222
97	1700
98	634
99	91
100	2
101	109
102	18
103	222
104	36
105	12
108	2
109	24
110	73
111	666
112	267
113	42
115	46
116	8
117	555
118	44
119	28
123	6
124	26
125	167
126	107
127	22
128	40
129	52
130	14
131	135
132	14
133	8
137	4
138	14
139	40
140	133
141	16
143	18
144	2
145	67
146	4
147	2
157	20
158	2
159	50
160	6
166	4
168	111
169	16
171	6
172	2
173	24
187	16
199	14
200	14
201	4700
202	654
203	242
204	28
215	38
216	18
217	6
229	129
230	1041
231	220
232	63
