Mass Spectrum: Butane, 1-chloro-3,3-dimethyl-
Formula: C6 H13 Cl
CAS: 2855-08-5
Molecular weight: 120
Origin: NIST Mass Spectrometry Data Center, 1990.
m/z	RELATIVE INTENSITY
14	90
15	140
26	149
27	973
28	196
29	757
38	202
39	1666
41	5148
42	323
43	1242
49	345
50	191
51	387
52	105
53	604
54	102
55	774
56	102
57	9999
58	427
62	88
63	461
65	208
67	229
69	5645
70	326
77	93
104	145
105	1030
106	115
107	345
