Mass Spectrum: 4-Acetoxy-2-azetidinone
Formula: C5 H7 N O3
CAS: 28562-53-0
Molecular weight: 129
Origin: Chuck Anderson, Aldrich Chemical Co.
m/z	RELATIVE INTENSITY
13	369
14	1751
15	1222
16	236
17	195
18	515
20	119
24	128
25	333
26	1103
27	2809
28	1587
29	2061
30	108
31	111
35	198
36	1240
37	120
38	967
39	784
40	2536
41	2682
42	9999
43	7006
44	1897
45	2518
46	69
50	32
51	134
52	93
53	34
54	111
59	32
60	2408
61	71
67	152
68	157
69	821
70	337
86	556
