Mass Spectrum: Modaline
Formula: C10 H15 N3
CAS: 2856-74-8
Molecular weight: 177
Origin: Finnigan MAT: Toxicological Library (LIBR-TX)
m/z	RELATIVE INTENSITY
41	4224
42	6885
52	1722
54	1763
56	1599
67	2470
81	1478
82	2666
84	9999
93	4348
94	8664
95	2394
107	1001
108	881
109	3710
120	1379
121	2734
122	3979
134	4282
135	1010
136	1003
148	6829
149	1010
162	800
176	1759
177	8033
178	973
