Mass Spectrum: 2-Chlorobenzyl cyanide
Formula: C8 H6 Cl N
CAS: 2856-63-5
Molecular weight: 151
Origin: NIST Mass Spectrometry Data Center
m/z	RELATIVE INTENSITY
17	20
25	20
35	50
36	50
37	380
38	520
39	811
40	120
47	50
48	40
49	250
50	921
51	550
52	120
53	10
56	20
57	40
58	250
60	50
61	460
62	841
63	1321
64	350
65	170
66	30
72	70
73	320
75	731
76	260
77	60
84	120
85	220
86	250
87	420
88	711
89	2192
90	280
96	20
97	110
98	50
99	180
100	40
101	40
102	20
110	30
111	70
112	30
114	801
115	1722
116	9999
117	881
118	40
123	360
124	190
125	270
126	60
127	50
151	3563
152	420
153	1191
154	90
