Mass Spectrum: Androst-5-en-17-one, 3,19-dihydroxy-, (3.beta.)-
Formula: C19 H28 O3
CAS: 2857-45-6
Molecular weight: 304
m/z	RELATIVE INTENSITY
79	851
81	985
82	403
83	672
84	269
85	492
91	1597
92	224
93	895
94	194
95	791
96	269
97	1463
98	388
115	269
117	478
119	567
121	179
123	269
141	269
143	1060
144	269
145	1283
146	179
147	164
149	866
155	164
157	403
159	776
160	492
161	298
197	194
199	507
200	179
237	895
238	701
239	179
241	298
242	119
255	4582
256	9999
257	2015
258	224
273	239
274	821
275	179
286	3313
287	672
288	149
304	298
