Mass Spectrum: 3-(2-Pyridyl)-1-propanol
Formula: C8 H11 N O
CAS: 2859-68-9
Molecular weight: 137
Origin: NIST Mass Spectrometry Data Center, 2009
m/z	RELATIVE INTENSITY
15	10
19	10
26	50
27	200
28	110
29	100
30	20
31	240
37	30
38	90
39	480
40	80
41	100
42	40
43	60
44	20
49	20
50	310
51	841
52	651
53	330
54	120
55	20
57	10
58	30
61	20
62	50
63	160
64	90
65	530
66	601
67	150
68	20
74	20
75	40
76	50
77	310
78	1111
79	681
80	210
81	10
87	10
89	30
90	40
91	120
92	731
93	9999
94	721
95	20
102	10
103	10
104	190
105	110
106	2252
107	721
108	70
109	20
117	140
118	460
119	60
120	951
121	80
122	10
134	10
136	170
137	10
