Mass Spectrum: Benzene, 4-bromo-1,2-dimethoxy-
Formula: C8 H9 Br O2
CAS: 2859-78-1
Molecular weight: 216
Origin: NIST Mass Spectrometry Data Center
m/z	RELATIVE INTENSITY
14	60
15	671
16	10
18	10
25	20
26	60
27	50
28	120
29	270
30	60
31	160
32	10
36	10
37	210
38	270
39	310
40	50
41	70
42	30
43	60
44	10
45	20
47	10
48	10
49	220
50	1471
51	2712
52	190
53	520
54	30
55	180
56	10
59	10
60	40
61	430
62	981
63	2372
64	400
65	1862
66	1661
67	100
68	20
69	60
72	10
73	130
74	540
75	661
76	500
77	1021
78	340
79	4774
80	320
81	80
82	30
89	10
90	30
91	100
92	540
93	581
94	9999
95	711
96	40
99	10
100	10
104	100
105	50
106	140
107	711
108	130
109	120
115	10
116	40
117	160
118	50
119	170
120	10
121	210
122	330
123	40
127	20
128	60
129	110
130	80
131	140
132	70
133	160
134	10
135	150
136	10
137	80
138	30
140	10
141	30
142	220
143	781
144	240
145	771
146	50
147	30
154	30
155	911
156	90
157	991
158	360
159	160
160	290
161	40
170	440
171	230
172	460
173	2072
174	150
175	1782
176	110
177	10
183	10
185	60
186	20
187	50
188	20
189	10
199	160
200	190
201	3883
202	480
203	3643
204	290
205	30
216	8748
217	831
218	8538
219	771
220	60
