Mass Spectrum: 3-Pyridinepropanol
Formula: C8 H11 N O
CAS: 2859-67-8
Molecular weight: 137
Origin: Japan AIST/NIMC Database- Spectrum MS-NW-8332
m/z	RELATIVE INTENSITY
14	10
15	50
17	20
18	70
19	10
26	119
27	679
28	459
29	239
30	50
31	979
32	20
37	70
38	249
39	2039
40	249
41	259
42	70
43	159
44	60
45	259
46	10
49	30
50	399
51	1139
52	699
53	599
54	219
55	50
56	10
57	129
58	40
61	30
62	99
63	439
64	269
65	2979
66	699
67	269
68	30
74	40
75	60
76	80
77	1129
78	1139
79	999
80	629
81	70
89	50
90	70
91	1179
92	5229
93	2249
94	229
95	10
102	10
103	20
104	609
105	219
106	1559
107	239
108	119
109	20
116	30
117	549
118	9999
119	8719
120	789
121	30
132	10
133	10
134	30
135	40
136	80
137	939
138	99
