Mass Spectrum: Bicyclo[4.1.0]heptane
Formula: C7 H12
CAS: 286-08-8
Molecular weight: 96
Origin: CONTINENTAL OIL CO., PONCA CITY, OKLA, USA
m/z	RELATIVE INTENSITY
13	46
14	187
15	1219
16	37
25	37
26	798
27	5108
28	1270
29	2460
30	56
36	11
37	255
38	722
39	7202
40	1476
41	4222
42	771
43	118
44	20
45	78
46	71
49	61
50	511
51	932
52	484
53	3184
54	7892
55	5976
56	321
57	96
61	67
62	146
63	302
64	76
65	648
66	1251
67	9999
68	5772
69	421
72	9
73	13
74	35
75	40
77	584
78	199
79	765
80	208
81	7700
82	511
83	20
85	12
86	17
87	17
89	29
91	137
92	18
93	44
95	489
96	2060
97	159
