Mass Spectrum: 3,4-Methylenedioxyphenylacetic acid
Formula: C9 H8 O4
CAS: 2861-28-1
Molecular weight: 180
Origin: NIST Mass Spectrometry Data Center, 1994
m/z	RELATIVE INTENSITY
14	92
15	22
26	90
27	265
28	137
29	289
30	57
31	45
32	29
37	123
38	312
39	647
40	71
41	43
42	75
43	33
44	29
45	486
46	27
50	978
51	2547
52	328
53	420
54	39
55	80
60	17
61	81
62	208
63	286
64	86
65	321
66	130
67	502
69	41
73	52
74	258
75	226
76	393
77	3061
78	509
79	836
80	69
81	33
82	15
89	22
91	30
92	31
93	65
94	23
105	838
106	187
107	36
121	60
135	9999
136	914
137	108
149	22
162	18
167	29
180	3287
181	330
182	51
