Mass Spectrum: 2,3,4-Trimethyl-5-hexen-3-ol
Formula: C9 H18 O
CAS: 28638-29-1
Molecular weight: 142
Origin: NIST Mass Spectrometry Data Center, 1990.
m/z	RELATIVE INTENSITY
27	1207
28	819
29	782
31	156
32	121
39	1641
40	368
41	3530
43	9166
44	400
45	1996
50	213
51	405
52	186
53	1000
54	304
55	1943
56	392
57	432
59	337
63	105
65	343
67	1795
69	4849
70	406
71	1124
77	428
78	122
79	577
80	129
81	831
82	216
83	328
87	9999
88	505
91	274
93	150
95	296
99	1233
109	1217
110	117
124	327
