Mass Spectrum: Cyclopropanecarboxylic acid, methyl ester
Formula: C5 H8 O2
CAS: 2868-37-3
Molecular weight: 100
Origin: Japan AIST/NIMC Database- Spectrum MS-NW-8560
m/z	RELATIVE INTENSITY
13	30
14	119
15	2749
16	40
17	10
18	30
25	40
26	329
27	879
28	539
29	739
30	70
31	209
32	20
33	20
35	10
36	30
37	289
38	669
39	5379
40	929
41	9999
42	789
43	259
44	60
45	339
47	20
48	10
49	10
50	30
51	20
52	20
53	109
54	40
55	929
56	489
57	139
58	1189
59	3829
60	90
61	10
66	10
67	20
68	669
69	9569
70	499
71	219
72	839
73	40
74	40
82	10
83	119
85	169
86	20
98	20
99	4039
100	839
101	99
