Mass Spectrum: Cyclopentane
Formula: C5 H10
CAS: 287-92-3
Molecular weight: 70
Origin: Japan AIST/NIMC Database- Spectrum MS-NW-1334
m/z	RELATIVE INTENSITY
14	10
15	90
26	119
27	759
28	259
29	369
31	50
37	70
38	159
39	1359
40	509
41	2479
42	9999
43	409
44	10
49	10
50	50
51	80
52	20
53	139
54	99
55	3269
56	149
57	30
60	10
61	20
62	30
63	40
65	60
66	20
67	159
68	40
69	119
70	3009
71	189
