Mass Spectrum: Cyclobutane
Formula: C4 H8
CAS: 287-23-0
Molecular weight: 56
m/z	RELATIVE INTENSITY
1	260
2	20
12	50
13	80
14	210
15	300
24	20
25	160
26	2262
27	4204
28	9999
29	1111
36	30
37	240
38	330
39	1982
40	621
41	8938
42	310
43	10
48	30
49	170
50	500
51	370
52	100
53	470
54	340
55	1932
56	6226
57	270
58	10
