Mass Spectrum: Thietane
Formula: C3 H6 S
CAS: 287-27-4
Molecular weight: 74
m/z	RELATIVE INTENSITY
12	60
13	90
14	160
15	150
16	10
24	20
25	80
26	490
27	811
28	320
29	60
30	10
32	190
33	80
34	40
35	80
36	50
37	170
38	240
39	961
40	100
41	841
42	40
43	10
44	100
45	2462
46	9999
47	721
48	460
49	20
50	10
56	20
57	100
58	190
59	190
60	20
61	10
68	40
69	130
70	20
71	150
72	20
73	210
74	4204
75	170
76	190
77	10
