Mass Spectrum: Benzofuran, 4,7-dimethyl-
Formula: C10 H10 O
CAS: 28715-26-6
Molecular weight: 146
Origin: MC-109
m/z	RELATIVE INTENSITY
25	20
26	234
27	845
28	55
29	610
31	27
37	179
38	397
39	1810
40	197
41	299
42	65
43	518
44	49
45	41
49	79
50	728
51	1320
52	398
53	342
54	35
55	102
56	67
57	227
58	441
59	84
60	24
61	156
62	464
63	1050
64	225
65	676
66	102
67	93
68	32
69	23
71	87
72	1060
73	541
74	316
75	312
76	205
77	634
78	515
79	85
81	42
83	28
85	69
86	121
87	146
88	74
89	386
90	120
91	1280
92	136
95	39
96	65
98	51
99	32
101	77
102	294
103	403
104	47
105	39
107	51
108	62
109	32
110	28
112	44
113	108
114	185
115	1800
116	708
117	2028
118	431
119	82
123	46
127	55
128	102
129	39
131	1720
132	255
145	8729
146	9999
147	1130
148	92
