Mass Spectrum: Triphenylene, 1-methyl-
Formula: C19 H14
CAS: 2871-91-2
Molecular weight: 242
m/z	RELATIVE INTENSITY
36	80
37	20
38	70
39	350
40	40
41	90
42	30
43	60
44	310
45	30
48	40
49	10
50	160
51	180
52	50
53	20
54	20
55	40
56	40
57	70
58	10
61	20
62	120
63	240
64	80
65	30
66	20
67	20
68	20
69	20
70	10
71	30
72	10
73	20
74	170
75	160
76	60
77	60
78	40
79	70
80	50
81	40
82	20
83	10
84	10
85	30
86	130
87	200
88	90
89	50
90	10
91	20
92	20
93	150
94	130
95	100
96	50
97	10
98	120
99	110
100	180
101	100
102	20
103	10
104	20
105	60
106	190
107	220
108	140
109	20
110	70
111	90
112	200
113	520
114	70
115	30
116	10
117	30
118	230
119	601
120	1481
121	721
122	70
123	40
124	20
125	20
126	40
127	10
134	30
135	30
136	10
137	30
138	10
139	50
140	10
146	20
147	10
148	10
149	20
150	80
151	40
152	40
153	10
154	10
161	40
162	40
163	110
164	30
165	60
166	10
167	10
174	70
175	50
176	70
177	20
178	10
179	10
185	30
186	40
187	180
188	70
189	160
190	30
191	10
192	10
197	20
198	50
199	50
200	180
201	80
202	200
203	50
209	20
210	20
211	140
212	70
213	380
214	110
215	1621
216	310
217	30
218	10
222	20
223	40
224	210
225	120
226	781
227	420
228	320
229	60
230	10
233	10
234	10
235	80
236	60
237	601
238	220
239	3383
240	1621
241	5015
242	9999
243	1932
244	190
245	20
246	10
