Mass Spectrum: Dodecanoic acid, 2-methyl-
Formula: C13 H26 O2
CAS: 2874-74-0
Molecular weight: 214
Origin: NIST Mass Spectrometry Data Center, 1990.
m/z	RELATIVE INTENSITY
27	476
28	57
29	719
32	11
39	488
40	214
41	2243
42	498
43	1597
44	115
45	476
53	217
54	193
55	1790
56	606
57	1076
59	279
67	220
68	125
69	949
70	229
71	308
74	9999
75	421
83	380
85	198
87	3914
88	273
97	241
98	160
101	353
115	301
129	677
143	693
157	565
171	393
185	148
214	314
215	45
