Mass Spectrum: Cyclopropanecarbonitrile, 1,2-bis(p-nitrophenyl)-
Formula: C16 H11 N3 O4
CAS: 28752-28-5
Molecular weight: 309
m/z	RELATIVE INTENSITY
27	701
29	500
30	3503
38	400
39	1501
50	1401
51	2702
52	500
62	701
63	1501
64	801
65	400
74	400
75	1201
76	1601
77	1802
78	701
86	200
87	701
88	701
89	1001
90	601
91	300
94	601
101	601
102	1301
103	500
114	601
115	801
116	500
117	801
127	500
139	801
140	3303
141	1401
151	500
152	500
163	500
164	601
165	601
176	601
177	801
178	801
185	200
186	1401
187	701
188	701
189	2803
190	1601
201	300
202	300
203	801
204	1501
205	500
214	1702
215	1802
216	4304
217	4504
218	801
232	601
233	500
236	500
245	300
246	1201
247	300
262	3703
263	4104
264	901
270	601
292	2502
293	701
309	9999
310	2002
311	400
