Mass Spectrum: Benzaldehyde, 2-(2-propenyloxy)-
Formula: C10 H10 O2
CAS: 28752-82-1
Molecular weight: 162
Origin: NIST Mass Spectrometry Data Center, 1990.
m/z	RELATIVE INTENSITY
14	33
15	117
17	19
18	21
25	21
26	116
27	264
28	184
29	219
30	16
31	33
32	45
36	25
37	216
38	723
39	3214
40	16
41	9999
42	313
43	56
49	54
50	587
51	872
52	85
53	112
54	33
55	195
56	22
60	16
61	92
62	284
63	727
64	412
65	1406
66	259
67	58
68	70
69	17
73	42
74	198
75	149
76	249
77	680
78	212
79	269
80	38
89	20
91	458
92	422
93	566
94	134
95	46
102	23
103	147
104	131
105	571
106	157
107	82
108	17
114	10
115	98
116	169
117	210
118	66
119	480
120	319
121	1915
122	226
123	20
130	12
131	69
133	789
134	492
135	66
144	63
145	52
147	213
148	21
159	16
161	1208
162	3205
163	331
164	34
