Mass Spectrum: Pyridine, 2,3,5,6-tetrafluoro-
Formula: C5 H F4 N
CAS: 2875-18-5
Molecular weight: 151
m/z	RELATIVE INTENSITY
31	1401
37	200
56	500
69	801
75	1201
82	1702
86	300
87	300
93	300
98	500
99	300
105	200
106	1501
132	701
151	9999
152	701
