Mass Spectrum: 9-Octadecenylsuccinic acid
Formula: C22 H40 O4
CAS: 28777-98-2
Molecular weight: 368
Origin: NIST Mass Spectrometry Data Center, 1994
m/z	RELATIVE INTENSITY
18	472
27	2498
28	1717
29	4885
32	493
39	1304
41	9999
42	1467
43	8451
44	596
52	246
53	1355
54	1128
55	8985
56	1121
57	3165
65	861
66	780
67	6259
68	3166
69	4626
70	852
71	1470
72	270
73	269
77	1643
79	4923
80	1499
81	6312
82	3209
83	2988
84	547
85	1047
91	2458
92	583
93	3803
94	1290
95	6429
96	3449
97	2465
98	575
99	1359
100	594
105	1317
106	493
107	2855
108	1002
109	5725
110	1998
111	1303
112	257
113	403
114	257
115	364
116	257
117	775
118	257
119	977
120	379
121	3123
122	988
123	2554
124	2491
125	842
126	241
127	544
128	625
131	1044
132	220
133	790
134	319
135	2009
136	728
137	2468
138	1082
139	775
140	384
141	1714
142	653
143	237
144	220
145	677
146	220
147	804
148	303
149	2121
150	641
151	1533
152	3140
153	1175
154	3266
155	1311
156	225
159	529
161	585
162	259
163	2104
164	799
165	2047
166	824
167	4721
168	1061
169	690
173	576
175	486
177	1128
178	885
179	1085
180	1258
181	1053
182	251
187	443
189	403
191	1791
192	775
193	1344
194	359
195	1374
196	320
201	309
205	788
206	554
207	879
208	317
209	2315
210	991
211	251
219	1070
220	646
221	609
222	184
223	991
224	395
233	1579
234	588
235	453
236	180
237	4944
238	2204
239	513
240	255
241	43
247	688
248	371
250	1225
251	1934
252	907
253	335
261	567
263	322
265	2681
266	1047
279	562
280	227
293	336
294	228
305	688
332	765
350	2777
351	651
