Mass Spectrum: Benzoyl chloride, 4-butyl-
Formula: C11 H13 Cl O
CAS: 28788-62-7
Molecular weight: 196
Origin: NIST Mass Spectrometry Data Center, 2010
m/z	RELATIVE INTENSITY
15	10
26	20
27	170
28	30
29	100
35	10
36	10
37	10
38	40
39	230
40	30
41	220
42	20
43	100
44	10
45	10
49	10
50	170
51	270
52	60
53	50
55	100
56	10
57	30
58	40
59	10
61	20
62	90
63	360
64	130
65	290
66	20
67	10
71	20
72	20
73	20
74	90
75	130
76	140
77	530
78	210
79	80
80	10
85	10
86	30
87	40
88	20
89	871
90	991
91	2422
92	190
93	20
98	10
99	50
101	50
102	130
103	430
104	250
105	270
106	20
111	10
113	10
114	10
115	190
116	60
117	70
118	400
119	80
120	10
125	611
126	50
127	220
128	50
129	20
130	10
131	220
132	70
133	230
134	30
138	10
139	50
141	10
145	10
153	40
154	10
155	10
159	40
161	9999
162	1281
163	90
164	10
167	10
196	220
197	30
198	70
199	10
