Mass Spectrum: 2-Propen-1-amine, 2-methyl-
Formula: C4 H9 N
CAS: 2878-14-0
Molecular weight: 71
Origin: NIST Mass Spectrometry Data Center, 1994
m/z	RELATIVE INTENSITY
12	13
13	33
14	131
15	316
16	49
17	41
18	133
25	41
26	264
27	1137
28	4653
29	1243
30	8860
31	225
32	16
34	37
36	53
37	371
38	765
39	2806
40	375
41	990
42	643
43	1484
44	177
49	56
50	203
51	241
52	284
53	412
54	605
55	56
56	9999
57	369
64	16
65	18
66	18
67	18
68	116
69	16
70	969
71	315
72	27
