Mass Spectrum: 2-Cyclopenten-1-one, 2,3,4-trimethyl-
Formula: C8 H12 O
CAS: 28790-86-5
Molecular weight: 124
Origin: G.S. KING, CHEM. PATHOL. DEP., QUEEN CHARLOTTE'S HOSP., LONDON
m/z	RELATIVE INTENSITY
40	120
41	440
42	120
43	240
44	120
45	120
53	440
54	440
55	440
56	320
57	120
67	840
68	320
69	120
79	1320
80	240
81	5320
82	520
83	120
91	120
93	120
95	240
96	1240
97	120
109	9999
110	840
123	240
124	4120
125	440
