Mass Spectrum: 1,2,5-Oxadiazole
Formula: C2 H2 N2 O
CAS: 288-37-9
Molecular weight: 70
Origin: C.L. PEDERSEN, DEP. GEN. ORG. CHEM., UNIV. COPENHAGEN, DENMA
m/z	RELATIVE INTENSITY
26	290
27	1700
28	3000
29	440
30	2000
38	520
39	570
40	9999
41	280
42	530
43	9000
70	3300
71	170
