Mass Spectrum: 1H-Pyrazole
Formula: C3 H4 N2
CAS: 288-13-1
Molecular weight: 68
Origin: Japan AIST/NIMC Database- Spectrum MS-NW-5084
m/z	RELATIVE INTENSITY
12	60
13	90
14	219
15	20
24	30
25	70
26	159
27	309
28	1789
29	109
33	10
34	30
37	40
38	239
39	559
40	939
41	1659
42	3949
43	459
44	30
45	10
51	20
52	70
53	70
64	10
65	10
66	80
67	1059
68	9999
69	439
70	10
