Mass Spectrum: Isothiazole
Formula: C3 H3 N S
CAS: 288-16-4
Molecular weight: 85
Origin: B.J.MILLARD SCHOOL OF PHARMACY, UNIV. OF LONDON, LONDON, UK
m/z	RELATIVE INTENSITY
39	300
44	300
45	700
51	150
52	200
57	800
58	4000
59	1000
84	300
85	9999
