Mass Spectrum: Oxazole
Formula: C3 H3 N O
CAS: 288-42-6
Molecular weight: 69
Origin: NIST Mass Spectrometry Data Center, 1990.
m/z	RELATIVE INTENSITY
12	293
13	459
14	1275
15	57
16	19
17	9
18	4
20	32
24	79
25	242
26	476
27	470
28	1230
29	1947
30	43
38	918
39	1245
40	6074
41	6732
42	2039
43	85
44	16
50	49
51	112
52	42
54	45
68	1120
69	9999
70	355
71	19
