Mass Spectrum: 1H-1,2,3-Triazole
Formula: C2 H3 N3
CAS: 288-36-8
Molecular weight: 69
Origin: A. MAQUESTIAU
m/z	RELATIVE INTENSITY
26	230
27	670
29	690
38	540
39	640
40	1460
43	130
69	9999
70	370
