Mass Spectrum: Cyclopentane, nonyl-
Formula: C14 H28
CAS: 2882-98-6
Molecular weight: 196
Origin: V.G.Zaikin, TIPS, Russian Acad. Sci.
m/z	RELATIVE INTENSITY
41	8807
42	1801
43	5404
44	400
53	700
54	1201
55	7606
56	3603
57	3803
67	2402
68	8908
69	9999
70	3503
71	1701
82	3403
83	6806
84	2402
85	700
96	800
97	3302
98	1401
111	1701
112	1000
125	1101
126	800
139	500
140	400
153	200
154	200
168	100
169	100
196	1901
197	290
198	20
