Mass Spectrum: Pentadecane, 3-methyl-
Formula: C16 H34
CAS: 2882-96-4
Molecular weight: 226
Origin: W.L.MEAD BRITISH PETROLEUM CO. LTD., SUNBURY-ON-THAMES, UK
m/z	RELATIVE INTENSITY
39	980
40	190
41	5500
42	1090
43	6350
44	210
53	290
54	290
55	2760
56	3240
57	9999
58	450
67	330
68	210
69	1170
70	980
71	5280
72	310
81	150
82	180
83	620
84	330
85	3460
86	200
95	70
96	90
97	490
98	210
99	1420
100	130
110	60
111	260
112	140
113	1230
114	100
123	40
125	140
126	100
127	890
128	130
139	100
140	40
141	600
142	50
153	30
155	340
156	30
167	40
168	210
169	170
196	880
197	1800
198	260
211	50
226	40
227	10
