Mass Spectrum: Pyrazine, 2-methyl-3-(methylthio)-
Formula: C6 H8 N2 S
CAS: 2882-20-4
Molecular weight: 140
Origin: Japan AIST/NIMC Database- Spectrum MS-NW-4638
m/z	RELATIVE INTENSITY
13	10
14	60
15	479
25	30
26	519
27	319
28	169
29	10
30	10
32	10
33	20
34	10
35	20
36	20
37	209
38	359
39	1059
40	789
41	579
42	2319
43	70
44	109
45	989
46	349
47	299
48	30
49	20
50	20
51	209
52	829
53	269
54	189
55	40
56	50
57	869
58	289
59	189
60	30
61	109
62	20
63	60
64	139
65	249
66	1159
67	829
68	379
69	269
70	379
71	469
72	519
73	1089
74	179
75	60
76	60
77	20
78	20
79	259
80	219
81	709
82	119
83	169
84	1949
85	149
86	109
87	10
92	99
93	1849
94	1659
95	619
96	109
97	80
98	699
99	109
100	50
105	90
106	2089
107	3749
108	339
109	80
110	30
111	10
112	60
113	40
114	10
123	90
124	209
125	2749
126	209
127	139
128	30
137	20
138	30
139	1219
140	9999
141	889
142	479
143	40
