Mass Spectrum: 2,4-Hexadiene, 3-methyl-
Formula: C7 H12
CAS: 28823-42-9
Molecular weight: 96
Origin: M. IWAMOTO TOYO RAYON CO., SONOYANA, OTSU, SHIGA-KEN, JAPAN
m/z	RELATIVE INTENSITY
13	10
14	10
15	330
26	260
27	2190
28	410
29	820
30	10
37	150
38	400
39	3340
40	550
41	3060
42	250
43	210
44	20
45	30
46	90
47	100
48	30
49	90
50	500
51	900
52	410
53	2630
54	910
55	1640
56	430
57	20
61	90
62	170
63	350
64	80
65	690
66	450
67	1960
68	560
69	230
70	20
73	10
74	80
75	100
76	20
77	1120
78	350
79	2510
80	460
81	9999
82	690
83	20
91	150
92	10
93	120
94	20
95	480
96	3970
97	320
