Mass Spectrum: Anthracene, 9-dodecyl-
Formula: C26 H34
CAS: 2883-70-7
Molecular weight: 346
Origin: Gulf R&D, Pittsburgh, Pa.
m/z	RELATIVE INTENSITY
15	30
16	10
17	10
18	20
24	10
25	10
26	50
27	591
28	150
29	1361
30	30
37	10
38	10
39	190
40	40
41	1181
42	180
43	1281
44	40
50	10
51	20
52	10
53	40
54	20
55	490
56	70
57	240
58	10
62	10
63	20
65	10
67	30
68	10
69	170
70	30
71	60
72	10
74	10
75	10
76	20
77	10
79	10
81	10
82	10
83	60
84	10
85	20
86	10
87	10
88	10
89	20
91	20
92	10
93	10
94	10
95	20
96	10
97	20
98	10
99	10
100	10
101	20
102	10
103	10
105	20
106	20
107	20
108	10
109	10
110	10
111	10
112	10
113	10
114	10
115	20
116	10
117	10
125	10
126	10
127	10
128	10
129	10
131	10
137	10
138	10
139	20
140	10
141	10
149	10
150	20
151	30
152	60
153	10
162	10
163	30
164	20
165	210
166	30
167	10
174	10
175	10
176	80
177	60
178	571
179	370
180	50
181	10
187	40
188	70
189	671
190	320
191	9999
192	1792
193	170
194	20
200	30
201	30
202	260
203	370
204	430
205	210
206	40
207	10
208	10
213	10
214	10
215	90
216	30
217	90
218	80
219	40
220	10
221	10
226	10
227	10
228	10
229	10
230	10
231	10
232	10
233	10
234	10
239	10
240	10
241	10
242	10
243	10
244	10
245	10
246	20
247	10
248	10
260	30
261	10
262	10
274	20
275	10
276	10
282	10
283	10
288	10
289	10
290	10
302	10
303	10
317	10
331	10
342	10
344	30
345	40
346	4584
347	1311
348	180
349	20
