Mass Spectrum: Octane, 2-cyclohexyl-
Formula: C14 H28
CAS: 2883-05-8
Molecular weight: 196
m/z	RELATIVE INTENSITY
29	4204
30	90
37	10
38	30
39	1752
40	330
41	7717
42	1902
43	4214
44	130
50	20
51	90
52	70
53	751
54	1031
55	7647
56	1862
57	4014
58	170
59	10
62	10
63	10
64	10
65	110
66	90
67	3263
68	480
69	4104
70	1722
71	2552
72	130
73	10
77	110
78	30
79	220
80	50
81	631
82	9999
83	9398
84	1151
85	130
86	10
91	40
92	10
93	20
94	10
95	110
96	30
97	440
98	50
99	10
103	10
105	10
107	10
108	10
109	50
110	701
111	3303
112	2472
113	370
114	20
115	10
123	10
124	20
125	80
126	40
127	10
137	10
138	10
139	30
140	10
141	10
152	10
153	20
154	10
166	10
167	50
168	10
178	10
179	10
180	10
181	50
182	10
195	10
196	470
197	70
198	10
