Mass Spectrum: Asarone
Formula: C12 H16 O3
CAS: 2883-98-9
Molecular weight: 208
Origin: Humboldt-Universitat zu Berlin, Department of Chemistry, Analytical Group
m/z	RELATIVE INTENSITY
12	31
13	28
14	153
15	3383
16	103
17	310
18	952
26	103
27	658
28	376
29	595
30	78
31	185
32	50
33	72
37	69
38	301
39	1679
40	298
41	999
42	125
43	746
44	81
45	367
47	38
49	38
50	536
51	1118
52	445
53	1156
54	97
55	561
56	110
57	476
58	28
59	504
60	53
61	113
62	376
63	1103
64	354
65	1836
66	476
67	442
69	2945
70	141
71	119
73	47
74	222
75	388
76	285
77	1980
78	755
79	1654
80	216
81	191
82	85
83	94
84	50
85	166
86	85
87	103
88	138
89	780
90	445
91	2287
92	507
93	451
94	191
95	229
96	103
98	47
99	38
101	63
102	222
103	1137
104	695
105	1698
106	429
107	1309
108	241
109	338
110	85
111	50
112	31
113	25
115	467
116	122
117	197
118	752
119	846
120	363
121	699
122	351
123	204
124	442
125	147
126	19
127	31
128	34
129	53
130	53
131	407
132	269
133	1519
134	833
135	1325
136	185
137	2287
138	263
139	47
145	116
146	132
147	1018
148	285
149	482
150	1272
151	388
152	47
153	41
159	25
160	34
161	423
162	1798
163	595
165	3734
166	417
167	44
175	119
176	316
177	611
178	338
179	338
180	41
181	34
191	119
193	5300
194	652
195	78
205	16
206	13
208	9999
209	1372
210	147
211	16
