Mass Spectrum: 1,6-Heptadien-4-ol
Formula: C7 H12 O
CAS: 2883-45-6
Molecular weight: 112
Origin: NIST Mass Spectrometry Data Center, 1990.
m/z	RELATIVE INTENSITY
26	237
27	1880
28	318
29	817
30	237
31	386
32	29
37	177
38	590
39	3914
40	780
41	7244
42	2225
43	9421
44	576
50	213
51	379
52	154
53	751
54	135
55	368
57	135
63	135
65	215
66	178
67	273
68	265
69	904
70	135
71	9999
72	509
77	405
78	104
79	602
83	124
84	114
91	174
94	224
97	171
