Mass Spectrum: Cyclohexane, 1,1'-(2-methyl-1,3-propanediyl)bis-
Formula: C16 H30
CAS: 2883-08-1
Molecular weight: 222
m/z	RELATIVE INTENSITY
36	10
37	20
38	30
39	1501
40	280
41	7907
42	691
43	1431
44	50
45	10
46	10
47	10
48	10
49	10
50	20
51	90
52	70
53	841
54	1121
55	9649
56	981
57	1161
58	50
59	10
60	10
61	10
62	10
63	20
64	10
65	150
66	120
67	1972
68	470
69	3603
70	380
71	550
72	30
73	10
74	10
75	10
76	10
77	180
78	50
79	300
80	120
81	1201
82	1641
83	9999
84	701
85	80
86	10
87	10
88	10
89	10
90	10
91	70
92	10
93	50
94	30
95	510
96	1201
97	4624
98	380
99	20
100	10
101	10
102	10
103	10
104	10
105	10
106	10
107	20
108	20
109	591
110	180
111	1902
112	170
113	10
114	10
115	10
116	10
117	10
118	10
119	10
120	10
121	10
122	10
123	270
124	70
125	851
126	90
127	10
128	10
129	10
130	10
131	10
132	10
133	10
134	10
135	30
136	10
137	220
138	1161
139	1772
140	200
141	10
142	10
143	10
149	10
150	10
151	140
152	100
153	90
154	20
155	10
156	10
163	10
164	10
165	40
166	10
167	10
168	10
169	10
177	10
178	10
179	10
180	10
181	10
183	10
184	10
185	10
192	10
193	20
194	10
205	10
206	791
207	3283
208	550
209	40
210	10
220	10
221	10
222	130
223	30
224	10
225	10
