Mass Spectrum: Butanediamide, 2,3-dihydroxy-N,N'-di-2-propenyl-
Formula: C10 H16 N2 O4
CAS: 28843-34-7
Molecular weight: 228
Origin: Japan AIST/NIMC Database- Spectrum MS-NW-6374
m/z	RELATIVE INTENSITY
14	20
15	179
16	10
17	10
18	40
26	80
27	279
28	1109
29	349
30	899
31	479
32	20
37	20
38	60
39	1409
40	149
41	6369
42	479
43	379
44	329
45	30
46	60
47	20
51	20
52	50
53	80
54	199
55	319
56	1679
57	3129
58	1569
59	129
60	569
61	539
62	20
65	10
66	10
67	30
68	209
69	289
70	99
71	659
72	40
73	20
74	549
75	50
78	10
80	20
81	20
82	60
83	60
84	4709
85	369
86	169
87	40
88	30
96	70
97	109
98	319
99	169
100	30
101	20
102	10
104	30
108	10
109	10
110	40
111	10
112	279
113	30
114	149
115	1649
116	119
117	20
123	30
125	20
126	80
127	399
128	579
129	40
143	90
144	9999
145	959
146	129
147	10
171	10
172	99
173	10
200	20
228	129
229	30
