Mass Spectrum: Pyrazine, 2-methyl-6-(methylthio)-
Formula: C6 H8 N2 S
CAS: 2884-13-1
Molecular weight: 140
m/z	RELATIVE INTENSITY
37	200
38	500
39	2002
40	601
41	200
42	300
44	200
45	901
46	400
47	300
52	200
53	300
54	300
55	200
56	100
57	200
58	1001
59	200
60	200
63	100
64	300
65	200
66	2502
67	801
69	100
70	300
71	500
72	1902
73	400
74	500
75	100
76	100
77	100
80	200
81	100
82	200
83	400
84	300
85	100
93	500
94	2302
95	1101
96	300
97	200
98	801
99	200
100	200
107	801
108	300
112	100
113	200
120	100
125	400
139	3703
140	9999
141	801
142	601
