Mass Spectrum: 3-Chlorobenzenesulfonyl chloride
Formula: C6 H4 Cl2 O2 S
CAS: 2888-06-4
Molecular weight: 210
Origin: NIST Mass Spectrometry Data Center, 1994
m/z	RELATIVE INTENSITY
12	19
16	121
17	3
18	46
24	17
25	30
26	125
27	52
28	76
32	187
33	18
35	435
36	195
37	659
38	734
39	309
40	22
44	73
45	173
47	108
48	1458
49	476
50	3594
51	1145
52	76
53	69
54	35
55	75
56	48
57	111
58	46
60	130
61	460
62	312
63	505
64	880
65	113
66	51
67	15
68	50
69	335
70	50
71	58
72	151
73	857
74	2045
75	6211
76	1124
77	207
79	61
80	31
81	112
82	93
83	89
84	313
85	709
86	144
87	296
89	56
92	22
93	52
94	11
95	82
96	36
97	39
98	32
99	497
100	50
101	172
103	22
105	33
106	21
107	45
108	211
109	139
110	11
111	9999
112	1003
113	3233
114	284
115	34
127	25
131	141
133	60
134	25
136	17
142	23
143	47
144	65
145	17
146	609
147	62
148	385
149	35
150	69
159	98
160	17
161	30
175	4573
176	390
177	1706
178	152
179	86
192	21
210	1647
211	123
212	1155
213	85
214	228
215	16
