Mass Spectrum: Pyridazine
Formula: C4 H4 N2
CAS: 289-80-5
Molecular weight: 80
Origin: Japan AIST/NIMC Database- Spectrum MS-NW-5023
m/z	RELATIVE INTENSITY
12	60
13	50
14	20
15	20
24	70
25	409
26	2339
27	489
28	509
29	30
36	90
37	319
38	219
39	149
40	50
41	20
44	20
48	50
49	229
50	1609
51	4109
52	3639
53	349
54	20
56	10
62	10
63	10
76	40
77	70
78	80
79	40
80	9999
81	569
82	20
