Mass Spectrum: 2-Chloro-3-cyano-6-methylpyridine
Formula: C7 H5 Cl N2
CAS: 28900-10-9
Molecular weight: 152
Origin: NIST Mass Spectrometry Data Center, 1994
m/z	RELATIVE INTENSITY
12	49
13	24
14	37
15	330
18	5
24	28
25	115
26	666
27	722
35	221
36	205
37	1328
38	1650
39	2327
40	645
41	306
42	160
44	6
45	76
47	249
48	129
49	544
50	964
51	1235
52	901
53	130
58	88
59	98
60	228
61	725
62	1546
63	2412
64	2146
65	975
66	233
67	35
72	62
73	110
75	1087
76	1111
77	180
78	27
79	22
84	84
85	479
86	316
87	385
88	576
89	1441
90	2769
91	926
92	81
97	88
98	158
99	88
100	136
101	352
102	47
103	31
110	207
111	77
112	116
113	49
114	37
115	31
116	9999
117	1790
118	112
124	147
125	161
126	117
127	56
128	28
137	148
139	45
150	46
152	6788
153	644
154	2146
155	188
