Mass Spectrum: Triazolam
Formula: C17 H12 Cl2 N4
CAS: 28911-01-5
Molecular weight: 342
Origin: Tox21 Consortium/NIST Mass Spectrometry Data Center, 2012
m/z	RELATIVE INTENSITY
15	40
26	100
27	210
28	170
32	30
35	30
36	120
37	50
38	200
39	611
40	410
41	380
42	400
43	30
47	20
49	110
50	921
51	1121
52	290
53	140
54	100
55	60
56	30
57	20
60	40
61	210
62	591
63	911
64	360
65	140
66	200
67	110
68	100
69	30
72	70
73	480
74	1131
75	4294
76	1071
77	661
78	140
79	40
80	130
81	320
82	40
84	160
85	330
86	470
87	741
88	1041
89	1011
90	230
91	50
92	210
93	270
94	160
95	70
96	40
97	220
98	410
99	851
100	1391
101	1521
102	3063
103	370
104	60
106	530
107	250
108	100
109	230
110	901
111	2813
112	681
113	1231
114	561
115	1401
117	50
119	1191
120	380
122	180
123	500
124	951
125	771
126	631
127	510
128	150
129	701
130	90
131	20
132	1191
135	170
136	1431
137	3713
138	1812
139	1281
140	591
141	230
142	480
143	70
144	310
145	220
146	80
147	140
148	150
149	561
150	1041
151	921
152	490
153	801
154	310
158	20
159	30
160	110
161	320
162	701
163	1722
164	731
165	440
166	110
167	20
168	30
170	160
171	70
172	60
173	90
174	310
175	801
176	1511
177	2973
178	601
179	390
180	60
182	20
183	20
184	50
185	80
186	210
187	150
188	300
189	240
190	420
191	150
192	70
196	20
197	140
198	170
199	150
200	150
201	460
202	961
203	3293
204	1141
205	520
206	100
207	70
208	30
209	40
210	90
211	430
212	270
213	230
214	140
215	60
216	90
217	130
218	50
219	20
220	20
222	30
223	50
224	130
225	50
226	120
227	50
228	40
229	60
230	240
231	330
232	70
233	130
234	30
235	70
236	90
237	450
238	6676
239	2702
240	2442
241	921
242	240
243	210
244	150
245	50
246	30
247	70
248	60
249	50
250	30
251	70
252	120
253	420
254	90
255	120
256	30
260	20
261	20
262	20
263	50
264	130
265	310
266	430
267	170
268	150
269	30
271	60
272	230
273	711
274	400
275	520
276	250
277	340
278	240
279	2432
280	510
281	791
282	140
286	20
287	190
288	430
289	130
290	260
291	70
292	70
293	20
299	40
300	330
301	90
302	200
303	50
304	50
305	20
306	50
307	761
308	170
309	260
310	50
311	30
313	9999
314	2372
315	6646
316	1551
317	1251
318	260
319	20
327	30
329	20
341	230
342	4864
343	1131
344	3123
345	631
346	500
347	110
