Mass Spectrum: 3,4-di-n-Butoxy-3-cyclobutene-1,2-dione
Formula: C12 H18 O4
CAS: 2892-62-8
Molecular weight: 226
Origin: NIST Mass Spectrometry Data Center, 1994
m/z	RELATIVE INTENSITY
12	29
13	11
14	71
15	255
16	21
17	13
18	46
19	7
26	363
27	3109
28	1331
29	9999
30	268
31	75
32	10
37	25
39	1836
41	7813
42	445
43	621
44	274
45	95
50	32
51	45
52	37
53	181
54	25
55	903
56	992
57	8690
58	1334
59	42
60	10
67	131
68	463
69	569
70	115
71	332
72	50
73	45
80	15
81	121
82	13
83	70
84	13
85	2683
86	395
87	571
88	29
95	176
96	259
97	49
99	183
100	28
101	13
108	8
113	270
114	402
115	886
116	45
124	28
125	39
126	41
127	138
128	16
141	647
142	230
143	27
152	39
153	13
155	31
167	8
168	13
170	313
171	244
172	21
183	13
226	532
227	79
