Mass Spectrum: 3-Cyclobutene-1,2-dione, 3,4-dihydroxy-
Formula: C4 H2 O4
CAS: 2892-51-5
Molecular weight: 114
Origin: Japan AIST/NIMC Database- Spectrum MS-NW-5804
m/z	RELATIVE INTENSITY
12	499
13	229
14	10
16	50
17	49
24	289
25	60
26	10
27	10
28	3529
29	8639
30	209
31	20
32	10
34	20
36	70
38	10
40	889
41	1019
42	60
43	70
44	269
45	50
47	10
48	20
52	159
53	20
55	20
56	649
57	30
58	9999
59	249
60	60
65	10
67	10
68	969
69	759
70	50
71	20
76	40
78	20
80	10
81	10
82	10
83	10
85	40
86	5149
87	199
88	40
97	10
98	10
114	9369
115	489
116	99
117	10
