Mass Spectrum: Ethanone, 1-cyclododecyl-
Formula: C14 H26 O
CAS: 28925-00-0
Molecular weight: 210
Origin: A.A.Kutin, Moscow, Russia
m/z	RELATIVE INTENSITY
35	4
37	13
39	1821
40	458
41	5816
42	1426
43	9999
44	302
45	169
47	17
48	8
50	24
51	110
52	87
53	815
54	1180
55	5575
56	679
57	1128
58	851
59	508
60	29
62	4
63	20
65	192
66	202
67	1364
68	877
69	3199
70	476
71	4786
72	436
73	29
76	3
77	160
78	115
79	433
80	411
81	1156
82	1365
83	2159
84	649
85	817
86	154
87	10
90	3
91	72
92	40
93	238
94	566
95	853
96	1727
97	2413
98	324
99	152
100	176
101	18
103	4
105	17
106	22
107	218
108	459
109	467
110	809
111	1285
112	185
113	200
114	384
115	55
119	10
121	365
122	285
123	223
124	331
125	1111
126	134
127	191
128	318
129	35
133	6
135	438
136	215
137	83
138	76
139	149
140	85
141	69
142	181
143	23
147	7
149	334
150	385
151	90
152	649
153	209
154	55
155	93
156	19
163	235
164	52
165	34
166	54
167	152
168	33
169	46
170	8
177	88
178	15
181	37
182	8
192	243
193	46
195	177
196	24
199	7
210	1031
211	159
212	16
