Mass Spectrum: cis-.beta.-Farnesene
Formula: C15 H24
CAS: 28973-97-9
Molecular weight: 204
Origin: Mark Whitten, Florida Museum of Natural History, U. of Florida
m/z	RELATIVE INTENSITY
41	9999
42	498
43	757
44	43
50	109
51	414
52	279
53	1876
54	192
55	1748
56	147
57	404
58	23
62	24
63	105
64	44
65	765
66	262
67	2362
68	937
69	8010
70	459
71	306
72	22
75	16
77	1297
78	298
79	2018
80	375
81	2113
82	604
83	125
84	48
89	31
91	1758
92	871
93	4648
94	590
95	727
96	71
97	28
102	22
103	97
105	830
106	293
107	898
108	158
109	526
110	65
111	88
112	51
113	31
115	79
116	27
117	96
119	818
120	1772
121	481
122	89
123	111
124	22
128	26
131	37
133	2286
134	548
135	241
136	80
137	39
145	17
146	15
147	297
148	315
149	61
159	13
161	1266
162	271
163	26
175	74
176	44
189	202
190	34
204	520
205	88
