Mass Spectrum: Methanone, [5-chloro-2-[(cyclopropylmethyl)amino]phenyl]phenyl-
Formula: C17 H16 Cl N O
CAS: 2897-00-9
Molecular weight: 285
Origin: HOME OFFICE, CENTRAL RES. EST., ALDERMASTON, BERKS., U.K.
m/z	RELATIVE INTENSITY
55	3700
77	6600
91	4700
105	4600
166	4400
180	2100
181	1500
228	1500
230	2800
244	3100
257	4500
270	8900
272	2500
285	9999
286	2200
287	4100
