Mass Spectrum: Medazepam
Formula: C16 H15 Cl N2
CAS: 2898-12-6
Molecular weight: 270
Origin: Japan AIST/NIMC Database- Spectrum MS-IW-3284
m/z	RELATIVE INTENSITY
15	20
27	70
28	70
29	10
30	10
36	10
38	20
39	90
40	10
41	30
42	169
43	10
44	10
50	80
51	219
52	50
53	10
54	10
55	10
56	20
61	10
62	60
63	189
64	40
65	90
66	20
68	10
69	30
73	40
74	80
75	219
76	169
77	369
78	60
79	10
81	129
82	149
83	30
84	10
85	20
86	40
87	70
88	119
89	359
90	119
91	249
92	20
93	10
94	20
95	229
96	80
97	20
98	30
99	80
100	60
101	80
102	239
103	269
104	199
105	20
106	10
107	10
108	20
109	149
110	70
111	129
112	40
113	80
114	60
115	90
116	219
117	319
118	50
119	10
120	30
121	20
122	10
123	50
124	60
125	99
126	80
127	99
128	99
129	30
130	159
131	70
132	10
133	10
134	229
135	169
136	70
137	70
138	90
139	99
140	60
141	20
142	10
143	10
149	30
150	90
151	139
152	109
153	40
154	10
161	20
162	60
163	349
164	419
165	1139
166	339
167	80
168	10
173	10
174	10
175	10
176	80
177	149
178	179
179	149
180	40
181	30
186	10
187	10
188	30
189	30
190	219
191	229
192	399
193	129
194	20
198	20
199	139
200	40
201	119
202	30
203	60
204	189
205	199
206	939
207	7529
208	1259
209	99
211	10
212	20
213	20
214	20
215	10
217	50
218	90
219	70
220	10
224	10
225	10
226	80
227	599
228	149
229	209
230	40
231	10
232	10
233	70
234	50
235	40
236	10
238	40
239	50
240	139
241	259
242	9999
243	1759
244	3299
245	539
246	40
252	40
253	99
254	50
255	60
256	10
269	1319
270	3309
271	1009
272	1089
273	189
274	10
