Mass Spectrum: Phenylalanine, 2TMS derivative
Formula: C15 H27 N O2 Si2
CAS: 2899-52-7
Molecular weight: 309
Origin: NIST Mass Spectrometry Data Center
m/z	RELATIVE INTENSITY
15	10
27	10
28	70
29	40
30	10
31	40
39	70
41	30
42	30
43	320
44	240
45	1461
46	110
47	170
48	10
49	10
50	20
51	50
52	30
53	30
54	10
55	70
56	50
57	110
58	250
59	530
60	80
61	110
62	10
63	50
64	20
65	290
66	40
67	10
68	10
69	10
70	60
71	50
72	250
73	9999
74	951
75	1001
76	80
77	130
78	50
79	10
80	10
81	10
82	10
83	10
84	60
85	30
86	160
87	50
88	20
89	80
90	50
91	1161
92	170
93	40
94	10
95	10
96	10
97	10
98	20
100	1922
101	300
102	150
103	300
104	80
105	100
106	10
107	30
110	10
112	10
113	10
114	10
115	100
116	40
117	210
118	110
119	130
120	260
121	150
122	20
123	10
126	10
127	10
128	30
129	20
130	390
131	320
132	380
133	420
134	110
135	120
136	20
137	10
142	10
143	10
144	50
145	70
146	200
147	2242
148	390
149	220
150	30
151	10
157	10
158	50
159	60
160	260
161	90
162	120
163	90
164	20
165	10
172	20
173	10
174	100
175	30
176	160
177	160
178	40
179	10
187	10
188	20
189	10
190	60
191	90
192	6716
193	1141
194	320
195	40
202	20
203	110
204	150
205	50
206	20
215	10
216	20
218	8207
219	1661
220	751
221	90
222	30
235	10
266	621
267	190
268	60
269	20
276	10
278	10
280	10
294	140
295	30
296	10
