Mass Spectrum: 1,2,4,5-Tetrazine
Formula: C2 H2 N4
CAS: 290-96-0
Molecular weight: 82
Origin: J.MOLLER, UNIV. OF COPENHAGEN, DENMARK
m/z	RELATIVE INTENSITY
12	480
13	1110
14	230
26	930
27	7550
28	9999
29	310
53	910
54	680
82	4340
