Mass Spectrum: 1,2,4-Triazine
Formula: C3 H3 N3
CAS: 290-38-0
Molecular weight: 81
m/z	RELATIVE INTENSITY
25	731
26	6506
27	2682
28	9999
38	731
39	831
40	701
51	731
52	901
53	5005
81	2883
82	330
