Mass Spectrum: 1,3,5-Triazine
Formula: C3 H3 N3
CAS: 290-87-9
Molecular weight: 81
Origin: NIST Mass Spectrometry Data Center, 1990.
m/z	RELATIVE INTENSITY
12	177
13	217
14	58
15	17
18	15
24	142
25	206
26	506
27	4155
28	6274
29	115
31	17
32	2
33	12
38	461
39	428
40	299
41	35
45	11
52	379
53	2316
54	7504
55	204
59	14
64	12
78	13
81	9999
82	417
83	8
