Mass Spectrum: Butanoic acid, 4-methoxy-, methyl ester
Formula: C6 H12 O3
CAS: 29006-01-7
Molecular weight: 132
Origin: Institute of Organic Chemistry, Novosibirsk, USSR 1988
m/z	RELATIVE INTENSITY
26	109
27	529
28	639
29	1109
30	79
31	419
32	39
33	99
36	9
37	19
38	59
39	519
40	109
41	1699
42	639
43	2169
44	229
45	9999
46	239
47	69
53	29
55	359
56	119
57	239
58	939
59	7439
60	319
68	39
69	2169
70	139
71	619
72	499
73	159
74	4559
75	219
76	29
85	399
86	29
87	359
88	29
89	9
99	69
100	709
101	3279
102	589
103	39
117	359
118	29
131	9
132	39
133	9
