Mass Spectrum: Dichloroacetic acid butyl ester
Formula: C6 H10 Cl2 O2
CAS: 29003-73-4
Molecular weight: 184
Origin: V.G.Zaikin, Petrochem. Synth. Inst., Moscow
m/z	RELATIVE INTENSITY
26	130
27	1251
28	360
29	4224
30	130
31	60
35	110
36	150
37	60
38	150
39	1011
40	230
41	5195
42	350
43	480
44	561
47	190
48	591
49	130
50	280
51	170
52	60
53	90
54	60
55	881
56	2232
57	9999
58	480
59	40
65	40
69	40
73	60
76	771
77	100
78	210
79	100
83	1311
84	50
85	951
86	60
87	120
111	250
113	200
115	50
