Mass Spectrum: 2-Nitro-1-propanol
Formula: C3 H7 N O3
CAS: 2902-96-7
Molecular weight: 105
Origin: Chuck Anderson, Aldrich Chemical Co.
m/z	RELATIVE INTENSITY
13	104
14	305
15	725
16	125
17	386
18	1679
19	49
25	129
26	799
27	3359
28	2419
29	9999
30	6881
31	3763
32	89
36	92
37	163
38	547
39	2997
40	1115
41	5160
42	715
43	927
44	1169
45	147
46	225
55	60
57	705
58	530
59	2526
60	94
73	93
75	430
87	53
