Mass Spectrum: 2-Nonen-4-one, 2-methyl-
Formula: C10 H18 O
CAS: 2903-23-3
Molecular weight: 154
Origin: CARL DJERASSI DEPT OF CHEM STANFORD UNIV STANFORD CALIF 94305
m/z	RELATIVE INTENSITY
27	900
29	900
39	900
40	200
41	1000
43	1900
51	100
53	500
54	200
55	2500
56	200
57	100
58	400
59	100
67	100
69	500
71	100
77	100
79	100
81	100
82	300
83	9999
84	600
85	100
93	100
96	100
97	100
98	2900
99	300
111	900
112	100
139	700
154	300
