Mass Spectrum: 2,4,6-Trimethylbenzonitrile, N-oxide
Formula: C10 H11 N O
CAS: 2904-57-6
Molecular weight: 161
Origin: NIST Mass Spectrometry Data Center, 1994
m/z	RELATIVE INTENSITY
8	20
12	21
14	13
15	598
16	27
17	5
18	41
26	336
27	1590
28	745
37	283
38	743
39	4002
40	710
41	910
42	147
44	22
46	27
49	83
50	946
51	2100
52	1111
53	745
54	195
55	71
56	63
59	364
61	158
62	499
63	1365
64	863
65	2083
67	154
68	55
73	55
74	103
75	377
76	451
77	1879
78	798
79	611
80	242
85	35
86	79
87	120
88	134
89	791
90	521
91	3640
92	509
93	135
94	33
99	33
100	28
101	71
102	336
103	747
104	516
105	652
106	1035
107	397
108	35
115	613
116	858
117	1395
118	1429
119	1425
120	162
121	26
128	267
130	644
132	3771
133	4157
134	420
135	30
142	54
143	28
144	90
145	28
146	8362
147	847
148	53
160	1761
161	9999
162	1126
163	73
