Mass Spectrum: Benzenemethanol, 2-(methylamino)-
Formula: C8 H11 N O
CAS: 29055-08-1
Molecular weight: 137
Origin: ORMSBG,9(1)125(1974); ECKHARDT
m/z	RELATIVE INTENSITY
51	1040
63	630
65	1040
66	520
77	2090
78	1720
91	3660
92	650
93	1190
94	900
106	960
117	750
118	9999
119	2090
120	1420
137	6160
138	620
