Mass Spectrum: Benzoic acid, 3,5-dichloro-, methyl ester
Formula: C8 H6 Cl2 O2
CAS: 2905-67-1
Molecular weight: 204
Origin: ACCUSTANDARD Chemicals / NIST MS Data Center.
m/z	RELATIVE INTENSITY
12	21
14	71
15	549
16	3
17	2
18	2
25	23
26	17
28	262
29	329
30	120
31	85
32	7
35	45
36	58
37	230
38	149
39	45
40	14
45	14
47	37
48	33
49	206
50	560
51	85
52	20
53	68
55	97
56	56
59	177
60	82
61	169
62	121
63	122
64	21
66	45
71	28
73	543
74	1819
75	1607
76	132
77	80
82	13
84	408
85	253
86	130
87	101
88	18
89	39
90	25
93	32
94	29
97	86
98	24
99	41
102	17
107	29
109	1765
110	647
111	722
112	217
113	53
119	49
121	28
123	15
125	59
126	73
127	24
128	19
133	26
134	25
135	23
137	39
138	41
139	29
140	19
143	19
145	3415
146	389
147	2125
148	227
149	369
150	38
152	12
153	125
154	171
155	54
156	57
158	59
159	82
160	60
161	63
162	11
163	22
169	203
170	32
171	105
172	11
173	9999
174	1230
175	6360
176	587
177	1003
178	91
186	290
187	55
188	172
189	44
190	39
204	3639
205	571
206	2187
207	259
208	398
209	38
