Mass Spectrum: 2-Bromobenzenesulfonyl chloride
Formula: C6 H4 Br Cl O2 S
CAS: 2905-25-1
Molecular weight: 254
Origin: NIST Mass Spectrometry Data Center, 1994
m/z	RELATIVE INTENSITY
12	74
16	320
18	98
25	85
26	352
27	187
32	623
34	50
35	702
36	405
37	1464
38	2271
39	900
44	91
45	272
48	3486
49	1210
50	7634
51	1930
52	206
53	136
54	98
55	88
57	158
58	140
60	94
61	384
62	554
63	1045
64	2922
65	229
66	155
68	128
69	1101
70	313
71	95
72	88
73	1121
74	4784
75	9268
76	7244
77	1793
78	231
79	673
80	241
81	864
82	352
83	195
84	83
85	112
92	255
93	171
95	341
96	807
97	116
98	61
99	220
101	91
104	71
105	194
106	93
107	200
108	340
109	241
110	61
111	1253
112	134
113	371
116	136
117	250
118	117
119	206
125	48
128	213
129	440
130	204
131	351
141	65
143	501
145	525
153	57
155	9999
156	1487
157	9785
158	1317
159	75
171	106
173	122
174	39
175	137
177	146
188	58
190	373
191	52
192	392
193	39
194	97
203	119
205	104
219	6733
221	6660
222	568
223	345
234	55
236	124
254	2675
255	199
256	3610
257	267
258	1018
259	73
