Mass Spectrum: 2-Fluorobenzenesulphonyl chloride
Formula: C6 H4 Cl F O2 S
CAS: 2905-21-7
Molecular weight: 194
Origin: NIST Mass Spectrometry Data Center
m/z	RELATIVE INTENSITY
16	90
18	40
25	30
26	90
27	110
28	90
29	20
31	380
32	160
33	60
35	320
36	110
37	390
38	370
39	430
40	20
44	50
45	370
46	10
48	1121
49	250
50	1581
51	821
52	40
53	30
55	20
56	180
57	861
58	50
61	230
62	250
63	450
64	671
65	120
66	60
68	1001
69	1451
70	160
71	170
72	20
74	1001
75	5125
76	410
77	20
80	180
81	160
82	100
83	761
84	60
85	20
87	50
88	10
89	20
91	20
92	130
93	260
95	9999
96	891
97	50
99	120
100	30
101	40
103	30
106	10
108	20
109	10
111	1411
112	80
113	20
115	210
116	20
117	20
126	40
127	60
128	40
130	210
131	20
132	70
143	110
144	20
159	7707
160	571
161	390
162	30
194	1792
195	160
196	631
197	50
198	30
