Mass Spectrum: 3,5-Dichlorobenzoyl chloride
Formula: C7 H3 Cl3 O
CAS: 2905-62-6
Molecular weight: 208
Origin: NIST Mass Spectrometry Data Center
m/z	RELATIVE INTENSITY
12	80
14	50
17	90
18	20
24	40
25	100
28	40
35	380
36	430
37	951
38	510
39	70
43	10
44	30
47	170
48	140
49	581
50	1201
51	130
53	120
55	550
56	130
60	260
61	470
62	360
63	350
71	100
73	1241
74	2903
75	2152
76	140
77	70
79	40
83	50
84	681
85	460
87	1131
89	90
90	60
96	80
97	110
107	80
109	2592
110	841
111	771
112	250
119	70
121	70
123	821
124	60
125	270
145	4374
146	450
147	3003
148	250
149	470
150	50
158	270
159	110
160	200
161	70
171	40
173	9999
174	981
175	6236
176	540
177	1101
178	90
186	370
187	40
188	280
190	50
208	1491
209	160
210	1341
211	120
212	490
213	50
214	70
