Mass Spectrum: 3-Bromobenzenesulphonyl chloride
Formula: C6 H4 Br Cl O2 S
CAS: 2905-24-0
Molecular weight: 254
Origin: NIST Mass Spectrometry Data Center
m/z	RELATIVE INTENSITY
16	100
17	60
18	10
25	60
26	140
32	240
33	70
34	50
35	490
36	400
37	981
38	1421
39	480
44	170
45	190
48	3013
49	821
50	6656
51	1181
52	90
53	130
54	70
55	50
56	30
57	220
58	160
60	70
61	420
62	450
63	751
64	2983
65	300
66	150
68	100
69	701
70	180
71	50
73	881
74	3523
75	7026
76	5855
77	1321
78	170
79	470
80	200
81	540
82	370
83	130
85	60
92	140
93	170
94	70
95	240
96	370
97	60
99	190
101	80
104	70
105	180
106	90
107	170
108	470
109	540
111	1521
112	110
113	601
114	50
116	60
117	180
118	80
119	140
125	70
128	130
129	250
130	110
131	290
143	250
144	40
145	310
146	50
153	60
155	9999
156	1531
157	9088
158	1101
159	90
172	60
174	30
175	60
177	100
184	40
188	260
189	110
190	811
191	110
192	691
193	80
194	180
203	140
205	80
219	7537
221	6876
222	601
223	350
234	60
236	80
238	60
254	3073
256	3333
257	310
258	1061
259	60
