Mass Spectrum: 3-Isopropoxypropylamine
Formula: C6 H15 N O
CAS: 2906-12-9
Molecular weight: 117
Origin: Japan AIST/NIMC Database- Spectrum MS-NW-9325
m/z	RELATIVE INTENSITY
14	10
15	159
17	20
18	70
26	50
27	679
28	919
29	409
30	9999
31	479
32	20
37	10
38	30
39	409
40	90
41	2019
42	1189
43	3349
44	1849
45	1059
46	249
47	90
50	20
52	10
54	70
55	179
56	2899
57	4829
58	3299
59	609
60	40
61	10
67	10
68	80
69	90
70	119
71	20
72	60
73	229
74	3469
75	149
76	40
82	20
85	10
86	10
87	20
88	10
100	289
101	20
102	20
117	10
118	229
119	10
