Mass Spectrum: Benzene, 1-chloro-3-isocyanato-
Formula: C7 H4 Cl N O
CAS: 2909-38-8
Molecular weight: 153
Origin: Japan AIST/NIMC Database- Spectrum MS-NW-1578
m/z	RELATIVE INTENSITY
25	20
26	90
27	50
28	10
29	10
35	20
36	60
37	529
38	549
39	679
40	60
41	20
42	10
43	30
44	429
45	70
47	60
48	40
49	139
50	429
51	219
52	119
54	10
58	20
60	80
61	319
62	629
63	1589
64	599
65	80
66	20
67	10
71	10
72	90
73	219
74	189
75	279
76	379
77	119
78	10
84	40
85	50
86	60
87	80
88	159
89	619
90	3009
91	199
92	10
97	60
98	339
99	60
100	109
101	10
102	20
111	50
113	10
118	30
124	99
125	3089
126	259
127	979
128	80
153	9999
154	789
155	3209
156	249
157	10
