Mass Spectrum: 2-Amino-5,6-dimethylbenzimidazole
Formula: C9 H11 N3
CAS: 29096-75-1
Molecular weight: 161
Origin: Japan AIST/NIMC Database- Spectrum MS-NW-6212
m/z	RELATIVE INTENSITY
15	30
17	10
18	30
26	30
27	169
28	289
29	40
30	10
37	60
38	159
39	569
40	129
41	219
42	80
43	329
44	30
49	20
50	159
51	339
52	259
53	159
54	80
55	30
56	10
57	10
58	20
59	30
60	20
61	40
62	80
63	229
64	179
65	469
66	239
67	189
68	40
69	10
71	10
72	50
73	149
74	40
75	70
76	129
77	369
78	189
79	279
80	299
81	50
82	10
84	10
86	10
87	20
88	30
89	189
90	159
91	649
92	319
93	129
94	40
95	10
100	10
101	10
102	70
103	80
104	209
105	129
106	289
107	99
108	30
114	10
115	20
116	279
117	249
118	589
119	319
120	169
121	30
129	50
130	20
131	129
132	149
133	459
134	159
135	30
136	10
141	10
142	30
143	90
144	70
145	60
146	3979
147	439
148	20
157	20
158	129
159	309
160	5799
161	9999
162	1149
163	60
