Mass Spectrum: 1,2,4,5-Tetrathiane
Formula: C2 H4 S4
CAS: 291-22-5
Molecular weight: 156
Origin: PYTCAS 20(11) 2521(1981); R GMELIN ET AL
m/z	RELATIVE INTENSITY
45	9999
46	7400
47	600
48	600
64	3800
66	400
76	700
77	500
78	2100
110	5900
112	700
124	600
156	6900
158	1200
