Mass Spectrum: Mandelic acid, 3,4-dimethoxy-, methyl ester
Formula: C11 H14 O5
CAS: 2911-73-1
Molecular weight: 226
Origin: NIST Mass Spectrometry Data Center
m/z	RELATIVE INTENSITY
15	100
26	10
27	50
28	20
29	50
30	10
31	30
32	10
37	10
38	40
39	200
40	10
41	50
42	10
43	20
44	10
45	20
47	10
49	10
50	100
51	190
52	150
53	230
54	20
55	70
58	10
59	110
60	10
61	10
62	40
63	150
64	80
65	290
66	70
67	50
68	10
69	30
73	10
74	20
75	50
76	40
77	240
78	90
79	310
80	90
81	380
82	30
83	20
89	10
90	10
91	50
92	70
93	60
94	40
95	110
96	20
97	10
103	10
104	10
105	50
106	20
107	240
108	140
109	330
110	30
111	10
119	50
120	30
121	80
122	50
123	190
124	130
125	10
127	10
128	10
133	10
135	100
136	140
137	270
138	30
139	10
148	10
149	70
151	1591
152	2272
153	200
154	20
163	60
164	70
165	70
167	9999
168	961
169	100
170	10
179	10
181	20
195	60
196	10
197	10
226	360
227	40
228	10
