Mass Spectrum: Benzeneacetic acid, .alpha.,4-dihydroxy-3-methoxy-, methyl ester
Formula: C10 H12 O5
CAS: 2911-74-2
Molecular weight: 212
Origin: NIST Mass Spectrometry Data Center
m/z	RELATIVE INTENSITY
14	10
15	210
16	10
26	20
27	180
28	40
29	200
30	30
31	80
32	20
33	30
37	30
38	100
39	631
40	70
41	110
42	30
43	60
44	10
45	30
46	10
49	20
50	220
51	480
52	430
53	801
54	350
55	300
56	20
57	10
58	10
59	350
60	10
61	40
62	110
63	300
64	170
65	3323
66	400
67	120
68	40
69	50
71	10
73	10
74	50
75	40
76	50
77	320
78	80
79	230
80	130
81	901
82	681
83	40
85	10
90	10
91	60
92	170
93	7547
94	641
95	210
96	40
97	60
104	10
105	70
106	30
107	140
108	210
109	390
110	1071
111	80
112	10
119	20
120	30
121	190
122	180
123	490
124	130
125	2612
126	200
127	20
128	10
133	30
134	10
135	50
136	90
137	170
138	250
139	40
149	30
151	771
152	380
153	9999
154	891
155	110
156	10
163	20
164	50
165	10
167	50
168	10
179	30
195	30
196	20
212	1682
213	180
214	30
