Mass Spectrum: 2-Nonenenitrile
Formula: C9 H15 N
CAS: 29127-83-1
Molecular weight: 137
Origin: CARL DJERASSI DEPT OF CHEM STANFORD UNIV STANFORD CALIF 94305
m/z	RELATIVE INTENSITY
40	300
41	5000
42	2300
43	9999
44	400
51	400
52	500
53	1200
54	3000
55	4400
56	2700
57	500
64	100
65	300
66	800
67	5000
68	800
69	4400
70	900
71	600
79	500
80	1700
81	1400
82	700
83	1200
84	400
93	100
94	1600
95	600
96	400
108	1800
109	600
122	1100
136	600
137	100
