Mass Spectrum: 1-Pyrrolidinylacetonitrile
Formula: C6 H10 N2
CAS: 29134-29-0
Molecular weight: 110
Origin: NIST Mass Spectrometry Data Center
m/z	RELATIVE INTENSITY
12	140
13	110
14	280
15	891
16	10
25	130
26	801
27	2232
28	2742
30	270
35	40
37	220
38	671
39	2803
40	2973
41	4064
42	9999
43	1261
50	130
51	220
52	330
53	510
54	741
55	1021
56	210
57	751
64	60
65	70
67	2142
68	601
69	520
70	260
78	40
79	30
80	280
82	4524
83	390
84	470
107	110
109	3783
110	2182
111	130
