Mass Spectrum: Naphthalene, 1,2,3,4-tetrahydro-1-octyl-
Formula: C18 H28
CAS: 29138-91-8
Molecular weight: 244
m/z	RELATIVE INTENSITY
15	60
25	10
26	30
27	520
28	150
29	721
30	20
36	10
37	10
38	10
39	260
40	40
41	671
42	90
43	440
44	20
50	20
51	80
52	30
53	180
54	20
55	140
56	40
57	80
58	10
61	10
62	10
63	50
64	20
65	90
66	10
67	30
68	10
69	30
70	10
71	10
75	20
76	20
77	140
78	60
79	40
80	10
81	10
82	10
83	10
85	10
87	10
88	10
89	30
90	20
91	1341
92	120
93	10
95	10
97	10
98	10
99	10
100	10
101	20
102	80
103	180
104	190
105	150
106	20
107	10
111	10
112	10
113	10
114	30
115	691
116	611
117	420
118	110
119	20
120	10
121	10
125	10
126	20
127	190
128	480
129	721
130	601
131	9999
132	1772
133	110
134	10
135	10
139	20
140	10
141	140
142	60
143	50
144	110
145	130
146	30
148	10
149	10
152	10
153	20
154	10
155	10
156	10
157	20
158	10
159	10
160	10
165	10
166	10
167	10
168	10
169	10
170	10
171	10
172	10
173	10
176	10
187	10
198	10
209	10
210	10
211	10
240	50
241	10
242	10
243	10
244	1041
245	210
