Mass Spectrum: Bis(2-ethylhexyl) 4-cyclohexene-1,2-dicarboxylate
Formula: C24 H42 O4
CAS: 2915-49-3
Molecular weight: 394
Origin: Japan AIST/NIMC Database- Spectrum MS-NW-5757
m/z	RELATIVE INTENSITY
15	10
18	10
26	20
27	529
28	99
29	1669
30	30
31	30
39	349
40	70
41	3059
42	419
43	4789
44	159
45	20
47	60
50	10
51	50
52	60
53	249
54	179
55	1979
56	559
57	8109
58	379
59	20
65	60
66	60
67	229
68	80
69	939
70	809
71	6109
72	349
73	10
76	10
77	499
78	389
79	3819
80	839
81	429
82	99
83	439
84	159
85	60
91	30
92	10
93	40
94	10
95	50
96	40
97	489
98	40
99	80
100	10
101	10
102	10
104	10
105	60
106	40
107	159
108	90
109	20
110	30
111	80
112	419
113	7409
114	659
115	30
117	10
119	10
121	10
122	40
123	459
124	9999
125	1159
126	149
127	20
129	10
133	10
135	40
136	20
137	20
138	50
139	10
140	10
149	169
150	20
151	60
152	9769
153	3359
154	339
155	40
157	10
165	10
166	20
167	30
168	10
169	40
170	2079
171	549
172	60
173	10
177	10
179	10
184	10
189	10
207	10
222	20
235	10
236	299
237	50
238	10
247	10
250	10
264	809
265	369
266	70
267	10
282	819
283	499
284	80
285	10
365	20
379	10
393	20
394	1339
395	509
396	99
397	20
