Mass Spectrum: Chloroacetic acid allyl ester
Formula: C5 H7 Cl O2
CAS: 2916-14-5
Molecular weight: 134
Origin: Japan AIST/NIMC Database- Spectrum MS-NW-2177
m/z	RELATIVE INTENSITY
12	20
13	60
14	279
15	289
17	10
18	30
25	40
26	349
27	1079
28	289
29	809
30	109
31	279
32	20
35	40
36	90
37	119
38	319
39	3599
40	979
41	9999
42	1239
43	399
44	99
45	40
47	70
48	139
49	2429
50	229
51	799
52	70
53	20
54	20
55	309
56	80
57	2529
58	6939
59	249
60	30
62	10
69	30
70	159
71	359
72	20
75	129
76	309
77	5019
78	219
79	1539
80	40
81	20
85	2109
86	90
87	10
88	20
92	30
94	30
95	199
96	10
97	70
98	20
99	99
134	10
