Mass Spectrum: 1,3-Dioxolane, 2,2-dimethyl-
Formula: C5 H10 O2
CAS: 2916-31-6
Molecular weight: 102
Origin: Japan AIST/NIMC Database- Spectrum MS-NW-1054
m/z	RELATIVE INTENSITY
13	10
14	109
15	679
16	30
17	30
18	109
25	10
26	119
27	429
28	359
29	429
30	40
31	349
32	20
37	20
38	70
39	589
40	229
41	1099
42	2589
43	9999
44	399
45	279
53	10
55	20
57	119
58	319
59	449
60	20
61	139
72	1519
73	119
83	20
85	10
86	20
87	7449
88	339
89	40
101	40
