Mass Spectrum: 1-Hexadecanethiol
Formula: C16 H34 S
CAS: 2917-26-2
Molecular weight: 258
Origin: Japan AIST/NIMC Database- Spectrum MS-NW-5329
m/z	RELATIVE INTENSITY
14	10
15	20
26	40
27	1249
28	459
29	3219
30	80
31	20
32	139
33	30
34	80
35	149
36	10
37	10
38	20
39	969
40	209
41	7839
42	1769
43	9869
44	349
45	299
46	109
47	1559
48	60
49	80
50	20
51	40
52	30
53	489
54	1069
55	9999
56	5279
57	9179
58	429
59	119
60	419
61	1199
62	90
63	70
64	10
65	80
66	119
67	1479
68	3349
69	8789
70	5379
71	4239
72	249
73	129
74	70
75	99
76	30
77	60
78	20
79	119
80	50
81	699
82	3479
83	9659
84	4039
85	2409
86	159
87	339
88	449
89	2349
90	159
91	219
92	30
93	50
94	20
95	309
96	1759
97	7389
98	2559
99	599
100	40
101	139
102	40
103	319
104	50
105	70
106	10
107	20
108	10
109	99
110	639
111	3769
112	1889
113	369
114	30
115	50
116	10
117	50
118	10
119	20
122	10
123	60
124	399
125	1909
126	1199
127	229
128	20
129	30
131	30
132	10
133	10
135	20
137	20
138	259
139	799
140	859
141	159
142	10
143	10
145	20
146	10
147	10
149	70
150	10
151	10
152	149
153	459
154	599
155	129
156	10
159	20
166	99
167	259
168	479
169	80
170	10
173	10
180	50
181	139
182	219
183	50
185	10
187	10
194	50
195	149
196	869
197	159
198	10
201	20
202	20
203	10
209	10
210	10
211	10
213	10
215	10
223	20
224	2199
225	439
226	40
229	30
230	40
238	10
243	10
252	20
254	10
255	10
256	20
257	299
258	1029
259	199
260	70
261	10
