Mass Spectrum: Ethyl loflazepate
Formula: C18 H14 Cl F N2 O3
CAS: 29177-84-2
Molecular weight: 360
Origin: Dr. Jiri Zamecnik, DCIEM, North York, Canada, GP Library
m/z	RELATIVE INTENSITY
40	850
43	790
44	820
59	360
73	270
75	770
81	260
83	660
95	290
98	200
102	1370
109	9460
111	540
120	180
122	230
123	470
135	320
137	330
138	330
151	400
166	9999
168	2800
170	440
177	280
180	210
183	210
193	270
195	670
197	390
207	410
223	500
231	200
239	310
241	200
252	370
259	690
260	600
269	150
275	1550
277	600
286	340
287	7050
289	2720
315	470
317	230
332	170
360	4220
362	1240
