Mass Spectrum: 1-Hexadecyn-3-ol, 3,7,11,15-tetramethyl-
Formula: C20 H38 O
CAS: 29171-23-1
Molecular weight: 294
Origin: A.A.Kutin, Moscow, Russia
m/z	RELATIVE INTENSITY
33	259
34	6
38	10
39	175
40	322
41	995
43	2658
44	91
45	31
50	4
51	30
52	9
53	126
55	1184
56	467
57	1637
58	193
59	91
60	5
65	32
66	73
67	341
69	9999
70	828
71	1214
72	87
73	67
76	22
77	143
78	34
79	359
80	194
81	727
82	351
83	856
84	4914
85	746
86	38
87	4
90	4
91	171
92	114
93	711
94	386
95	764
96	287
97	582
98	196
99	117
100	32
101	4
104	29
105	88
106	48
107	361
108	190
109	498
110	237
111	465
112	125
113	93
115	7
116	11
118	17
119	66
121	762
122	428
123	366
124	100
125	145
126	128
127	67
133	44
134	39
135	462
136	220
137	114
138	56
139	68
140	36
141	52
147	42
149	244
150	107
151	66
152	34
153	26
154	12
155	25
161	43
163	162
164	29
166	19
168	3
169	7
175	8
177	19
178	22
179	36
180	4
181	6
189	6
191	59
192	7
193	12
203	5
205	15
207	12
210	10
211	3
221	4
224	14
225	20
248	20
250	20
251	7
260	3
261	49
262	5
276	2
279	31
280	2
