Mass Spectrum: Nonanedioic acid, dibutyl ester
Formula: C17 H32 O4
CAS: 2917-73-9
Molecular weight: 300
Origin: A DUFFIELD DEPT GENETICS STANFORD MED CENTER STANFORD CA 9430
m/z	RELATIVE INTENSITY
41	3736
42	1009
43	1514
44	504
45	302
53	201
54	201
55	5150
56	4140
57	2928
58	201
59	302
60	1514
61	403
63	504
67	605
68	403
69	1009
70	302
71	201
73	1110
74	201
77	706
79	302
80	201
81	706
82	706
83	2726
84	1110
85	302
87	706
93	201
95	403
96	605
97	2221
98	1312
99	302
101	605
107	403
109	201
110	403
111	2726
112	201
114	201
115	403
116	302
117	201
123	403
124	1312
125	3231
126	504
129	3433
130	302
135	504
136	201
137	302
141	201
142	201
143	706
144	302
151	302
152	6766
153	1312
154	201
155	201
157	201
170	201
171	9999
172	1312
184	201
185	1615
186	302
198	302
200	403
226	201
227	7675
228	1312
