Mass Spectrum: 2,4-Dicyanopyridine
Formula: C7 H3 N3
CAS: 29181-50-8
Molecular weight: 129
Origin: NIST Mass Spectrometry Data Center, 1994
m/z	RELATIVE INTENSITY
12	157
13	54
14	67
18	15
24	117
25	261
26	1249
27	246
28	478
36	241
37	836
38	927
39	288
40	119
41	10
48	219
49	655
50	1696
51	3782
52	1099
53	322
54	11
60	103
61	157
62	514
63	362
64	362
65	71
66	12
74	431
75	2380
76	1598
77	762
78	509
79	26
86	44
87	36
88	84
89	868
90	62
100	334
101	771
102	3918
103	703
104	44
129	9999
130	845
131	37
