Mass Spectrum: Benzene, 1,1'-ethenylidenebis-[4-methyl-
Formula: C16 H16
CAS: 2919-20-2
Molecular weight: 208
Origin: NIST Mass Spectrometry Data Center, 1994
m/z	RELATIVE INTENSITY
15	284
16	28
17	38
18	82
27	654
28	33
37	27
38	233
39	2235
40	238
41	290
50	508
51	1244
52	270
53	238
58	48
61	56
62	410
63	1497
64	397
65	1659
66	150
70	94
74	39
75	483
76	753
77	674
78	224
79	76
82	483
85	33
86	144
87	262
88	356
89	1900
90	336
91	1700
92	176
95	579
96	509
98	80
99	74
100	80
101	480
102	1571
103	757
104	240
105	72
110	25
111	36
113	138
115	3102
116	640
117	485
118	53
125	30
126	177
127	249
128	449
129	140
137	28
138	34
139	388
140	68
141	176
142	39
150	188
151	365
152	906
153	277
154	40
162	39
163	232
165	1546
166	303
167	76
174	30
176	520
178	7483
179	1505
180	173
187	64
189	1293
190	830
191	2297
192	2768
193	9999
194	1709
195	148
200	44
201	43
202	205
203	116
204	60
205	188
208	7857
209	1468
210	112
