Mass Spectrum: 1,2,4,6-Tetrathiepane
Formula: C3 H6 S4
CAS: 292-45-5
Molecular weight: 170
Origin: PYTCAS 20(11) 2521(1981); R GMELIN ET AL
m/z	RELATIVE INTENSITY
45	7000
46	4700
60	3500
64	1100
78	9999
93	1000
105	400
124	6000
137	600
170	6000
