Mass Spectrum: p-Phenylbenzonitrile
Formula: C13 H9 N
CAS: 2920-38-9
Molecular weight: 179
Origin: Chuck Anderson, Aldrich Chemical Co.
m/z	RELATIVE INTENSITY
18	2
26	46
27	105
28	19
36	2
37	32
38	58
39	224
40	12
49	14
50	309
51	373
52	113
53	7
61	46
62	161
63	522
64	75
65	32
73	3
74	280
75	376
76	1366
77	221
78	57
85	23
86	102
87	140
88	83
89	1027
97	5
98	112
99	156
100	177
101	143
102	165
103	34
109	5
110	27
111	45
112	32
113	221
114	86
115	103
116	28
122	21
123	43
124	57
125	186
126	292
127	268
128	125
129	24
137	38
138	38
139	65
140	297
141	28
149	85
150	481
151	1600
152	735
153	405
154	40
164	100
165	12
175	54
176	18
177	934
178	2324
179	9999
180	1179
181	79
