Mass Spectrum: 3-tert-Butyl-2-pyrazolin-5-one
Formula: C7 H12 N2 O
CAS: 29211-68-5
Molecular weight: 140
Origin: Pu Leung, NIH, Bethesda, MD
m/z	RELATIVE INTENSITY
41	1077
42	353
43	193
44	71
50	126
51	230
52	120
53	332
54	89
55	538
56	184
57	244
62	20
63	89
65	171
66	113
67	522
68	159
69	80
70	21
71	24
77	80
79	119
80	165
81	142
82	568
83	1005
84	105
85	622
95	158
96	55
97	1543
98	174
99	22
108	21
109	112
110	50
123	21
124	27
125	9999
126	757
127	22
139	90
140	5403
141	651
142	23
