Mass Spectrum: Mequitazine
Formula: C20 H22 N2 S
CAS: 29216-28-2
Molecular weight: 322
Origin: Finnigan MAT: Toxicological Library (LIBR-TX)
m/z	RELATIVE INTENSITY
41	707
42	1180
44	1217
53	415
55	400
65	95
67	223
69	89
70	527
79	217
81	712
82	102
124	9999
125	928
154	97
166	103
167	102
180	407
198	585
199	289
212	619
322	2093
323	499
324	98
