Mass Spectrum: 4-Chlorobenzoic acid, 2-methylpropyl ester
Formula: C11 H13 Cl O2
CAS: 29234-88-6
Molecular weight: 212
Origin: V.Zaikin,Topchiev Inst.Petrochem.Synth.,Moscow
m/z	RELATIVE INTENSITY
26	60
27	200
28	90
29	290
36	100
38	60
39	330
40	80
41	881
42	110
43	180
44	50
49	30
50	450
51	240
52	40
53	50
55	230
56	6966
57	430
61	40
65	50
69	30
73	260
74	300
75	1762
76	520
77	260
78	40
79	50
84	40
85	180
87	60
104	200
105	80
110	120
111	5095
112	410
113	1471
114	130
115	40
135	80
138	50
139	9999
140	1001
141	3513
142	561
143	40
156	2402
157	8197
158	1361
159	2903
160	220
169	140
171	40
197	30
212	40
