Mass Spectrum: Pirimiphos methyl
Formula: C11 H20 N3 O3 P S
CAS: 29232-93-7
Molecular weight: 305
Origin: NIST Mass Spectrometry Data Center, 1995
m/z	RELATIVE INTENSITY
12	23
15	1668
16	52
17	58
18	156
27	1525
28	1718
29	3374
30	241
31	437
32	98
39	879
40	328
41	595
42	2687
43	1013
44	676
45	332
46	98
47	1780
48	89
49	119
51	41
52	162
53	241
54	642
55	1303
56	1538
57	302
58	151
59	43
60	41
61	62
62	448
63	1201
64	208
65	227
66	1414
67	2458
68	650
69	1659
70	380
71	879
72	1814
73	118
74	49
76	61
77	174
79	2260
80	268
81	187
82	318
83	535
84	473
85	56
86	49
88	39
89	62
90	105
91	71
92	39
93	2784
94	444
95	440
96	389
97	183
98	105
100	283
101	44
103	71
104	69
105	37
106	37
107	635
108	1663
109	2123
110	500
111	350
112	182
114	219
115	53
116	49
117	34
119	120
120	799
121	167
122	280
123	425
124	34
125	4904
126	383
127	293
128	44
129	40
130	38
132	377
133	126
134	668
135	741
136	428
137	303
138	235
139	123
140	101
141	184
142	81
143	312
145	36
147	43
148	300
149	91
150	407
151	1339
152	698
153	379
154	82
155	222
156	36
157	111
162	222
163	1533
164	1241
165	225
166	519
167	431
168	175
169	58
171	111
172	57
176	71
177	234
178	68
179	57
180	3111
181	379
182	112
184	274
185	37
187	46
189	34
191	38
192	152
193	70
194	224
195	191
196	222
197	58
198	235
203	37
204	59
207	111
208	103
210	31
212	391
213	72
214	48
216	53
219	44
220	55
226	74
228	40
230	396
231	60
233	4571
234	442
235	654
236	59
237	26
240	81
242	76
244	1129
245	148
246	87
249	57
258	182
259	25
260	55
261	25
262	2852
263	309
264	139
265	25
272	369
273	126
274	383
275	25
276	7585
277	954
278	532
279	52
287	39
288	38
290	9999
291	1224
292	574
293	72
301	37
302	69
303	43
304	37
305	7343
306	1201
307	460
308	46
