Mass Spectrum: 2-Methoxyresorcinol
Formula: C7 H8 O3
CAS: 29267-67-2
Molecular weight: 140
Origin: NIST Mass Spectrometry Data Center, 1990.
m/z	RELATIVE INTENSITY
14	78
15	354
27	166
28	204
29	368
37	252
38	553
39	1482
40	302
41	408
42	393
43	144
49	159
50	707
51	2585
52	535
53	1021
54	170
55	694
61	107
62	169
63	303
64	90
65	432
66	284
67	275
68	1255
69	314
70	70
71	81
77	135
79	2042
80	195
81	307
93	237
94	91
95	266
96	91
97	8849
98	500
107	1145
108	117
111	336
125	9999
126	657
127	86
140	6290
141	462
