Mass Spectrum: Phosphorous acid, tris(decyl) ester
Formula: C30 H63 O3 P
CAS: 2929-86-4
Molecular weight: 502
Origin: Japan AIST/NIMC Database- Spectrum MS-NW-6468
m/z	RELATIVE INTENSITY
15	40
17	30
18	119
26	40
27	659
28	159
29	1519
30	40
31	199
32	10
37	10
38	30
39	539
40	139
41	3439
42	699
43	4559
44	149
45	80
47	30
50	20
51	40
52	20
53	259
54	189
55	4349
56	1759
57	6559
58	309
59	20
62	10
63	20
65	119
66	119
67	499
68	329
69	3909
70	2369
71	7339
72	439
73	20
77	50
78	10
79	90
80	20
81	359
82	449
83	9999
84	1679
85	6389
86	439
87	60
89	20
91	20
93	30
94	259
95	219
96	309
97	1549
98	839
99	1899
100	149
101	50
105	10
106	10
107	10
109	139
110	159
111	1209
112	959
113	109
115	30
119	10
120	10
121	10
122	10
123	139
124	30
125	369
126	99
127	139
128	10
129	10
133	10
134	10
135	20
136	20
137	229
138	50
139	229
140	1959
141	7809
142	849
143	50
148	10
149	20
150	10
151	199
152	20
153	259
154	99
155	219
156	30
159	20
163	10
165	139
166	10
167	189
168	10
175	20
179	80
181	50
193	30
195	20
207	20
209	40
221	20
222	10
223	2909
224	329
225	40
234	10
235	20
236	10
237	109
238	10
239	40
251	10
263	10
277	30
291	40
292	10
305	40
306	10
319	40
320	10
333	30
347	30
363	70
364	10
