Mass Spectrum: Silane, trihexyl-
Formula: C18 H40 Si
CAS: 2929-52-4
Molecular weight: 284
Origin: Japan AIST/NIMC Database- Spectrum MS-IW-2627
m/z	RELATIVE INTENSITY
27	70
29	149
31	60
39	40
40	10
41	279
42	50
43	319
44	80
45	449
46	30
47	10
53	20
54	10
55	279
56	80
57	399
58	209
59	2039
60	149
61	70
67	50
68	10
69	119
70	50
71	389
72	179
73	2099
74	179
75	80
81	30
82	30
83	609
84	109
85	1099
86	279
87	779
88	70
89	30
95	10
97	70
98	10
99	319
100	119
101	129
102	10
111	40
112	30
113	579
114	179
115	6539
116	779
117	259
118	10
127	99
128	40
129	699
130	90
131	30
140	10
141	50
142	90
143	419
144	60
145	20
155	20
156	10
157	239
158	30
159	10
168	20
169	60
170	99
171	149
172	20
183	20
184	10
185	10
196	10
197	239
198	80
199	9999
200	1839
201	489
202	50
213	20
215	40
227	60
228	10
254	30
255	10
282	50
283	40
284	10
