Mass Spectrum: 1,3,5,7-Tetroxane
Formula: C4 H8 O4
CAS: 293-30-1
Molecular weight: 120
Origin: Organic Synthesis Lab, MSU, Moscow.TRC 1463
m/z	RELATIVE INTENSITY
37	59
43	119
44	389
61	9999
62	119
72	99
89	219
91	1189
121	129
