Mass Spectrum: 4-n-Propylacetophenone
Formula: C11 H14 O
CAS: 2932-65-2
Molecular weight: 162
Origin: NIST Mass Spectrometry Data Center, 1994
m/z	RELATIVE INTENSITY
12	12
14	120
15	657
16	14
18	44
26	123
27	988
28	161
29	551
30	12
37	38
38	152
39	1025
40	124
41	794
42	12
43	2361
44	65
45	11
50	517
51	907
52	179
53	143
55	31
58	56
61	48
62	273
63	801
64	261
65	585
66	43
67	23
71	24
72	21
73	22
74	186
75	199
76	242
77	1014
78	390
79	413
80	31
85	18
86	53
87	92
88	18
89	1189
90	1522
91	3129
92	226
93	73
94	10
98	16
101	37
102	167
103	476
104	242
105	1266
106	114
113	20
115	411
116	85
117	303
118	561
119	1103
120	92
128	12
131	99
133	363
134	41
147	9999
148	1070
149	72
162	1901
163	231
164	19
