Mass Spectrum: Benzhydrol, 4-bromo-
Formula: C13 H11 Br O
CAS: 29334-16-5
Molecular weight: 262
Origin: NIST Mass Spectrometry Data Center, 1994
m/z	RELATIVE INTENSITY
4	17
26	138
27	652
28	8
29	815
30	35
37	87
38	362
39	957
40	75
50	2441
51	3783
52	737
53	339
54	28
55	74
61	96
62	401
63	749
64	197
65	90
68	21
70	148
73	139
74	999
75	1358
76	1906
77	7026
78	3117
79	2255
80	183
81	21
82	399
85	52
86	146
87	177
88	123
89	248
90	80
98	84
99	64
100	30
101	74
102	99
105	9999
106	1094
107	590
108	41
110	37
111	55
113	114
114	60
115	222
117	36
122	31
125	34
126	103
127	100
128	109
129	57
131	49
137	54
139	199
140	38
150	60
151	154
152	421
153	308
154	415
155	659
156	461
157	791
158	393
159	264
163	282
164	321
165	1063
166	389
167	77
181	154
183	1950
185	1650
186	259
187	290
245	55
246	28
247	64
261	291
262	522
263	324
264	550
265	76
