Mass Spectrum: Phenol, 2,4,6-tris(1-methylethyl)-
Formula: C15 H24 O
CAS: 2934-07-8
Molecular weight: 220
Origin: Japan AIST/NIMC Database- Spectrum MS-IW-3831
m/z	RELATIVE INTENSITY
27	80
29	10
39	90
40	10
41	339
42	10
43	579
44	20
50	10
51	70
52	20
53	90
55	90
57	10
58	20
63	40
64	50
65	119
66	20
67	50
69	40
70	10
71	40
72	20
73	70
74	10
75	10
76	20
77	229
78	50
79	129
80	139
81	50
83	10
86	40
87	359
88	20
89	20
90	10
91	439
92	40
93	50
94	40
95	199
101	10
102	30
103	129
104	30
105	199
106	20
107	299
108	20
109	10
115	249
116	90
117	409
118	50
119	109
120	30
121	379
122	30
123	10
127	80
128	239
129	189
130	90
131	179
132	40
133	149
134	30
135	199
136	20
139	10
141	99
142	60
143	90
144	40
145	239
146	50
147	139
148	30
149	179
150	20
152	20
153	20
154	10
155	30
156	20
157	50
158	20
159	179
160	30
161	149
162	30
163	419
164	50
165	10
169	10
171	20
172	10
173	40
174	10
175	99
176	40
177	909
178	159
179	10
181	10
187	30
189	259
190	40
191	90
201	20
203	169
205	9999
206	1559
207	129
208	10
218	30
219	109
220	2289
221	379
222	30
