Mass Spectrum: Allyl chloroformate
Formula: C4 H5 Cl O2
CAS: 2937-50-0
Molecular weight: 120
Origin: NIST Mass Spectrometry Data Center, 1990.
m/z	RELATIVE INTENSITY
12	70
13	76
14	201
15	441
16	2
17	34
18	15
24	60
25	226
26	1088
27	1978
28	1464
29	2353
30	160
31	185
34	40
35	514
36	165
37	773
38	1171
39	6207
40	2611
41	9999
42	425
43	160
44	788
45	134
47	39
51	31
53	38
55	344
56	417
57	1281
58	41
63	3781
64	177
65	1178
66	39
76	1284
77	86
78	485
79	24
80	38
81	61
84	86
85	184
91	66
92	71
93	41
94	28
120	35
