Mass Spectrum: cis-Captafol
Formula: C10 H9 Cl4 N O2 S
CAS: 2939-80-2
Molecular weight: 347
Origin: J. SHAW, BORRISTON RESEARCH, ROCKVILLE, MD, USA
m/z	RELATIVE INTENSITY
12	50
13	20
14	30
15	160
16	70
17	380
18	1211
19	10
24	20
25	90
26	490
27	2492
28	920
29	260
30	80
31	10
32	110
33	20
34	20
35	260
36	650
37	130
38	450
39	2672
40	500
41	930
42	160
43	140
44	420
45	400
46	430
47	240
48	270
49	110
50	490
51	1431
52	1151
53	1381
54	740
55	340
56	280
57	560
58	60
59	100
60	440
61	40
62	150
63	190
64	90
65	660
66	310
67	460
68	110
69	80
70	1251
71	80
72	500
73	50
74	340
75	80
76	390
77	4624
78	3013
79	9999
80	4164
81	680
82	330
83	580
84	60
85	400
86	70
87	70
88	40
89	20
90	50
91	280
92	600
93	190
94	350
95	380
96	100
97	240
98	60
99	90
100	30
101	40
102	10
103	20
104	110
105	650
106	530
107	1501
108	190
109	70
110	30
111	240
112	40
113	40
114	620
115	140
116	210
117	100
118	10
119	40
120	20
121	370
122	290
123	70
124	30
125	70
126	110
127	200
128	90
129	200
130	410
131	120
132	380
133	50
134	360
135	50
136	90
137	30
138	30
139	10
140	30
141	20
142	180
143	20
144	60
145	10
146	20
147	10
148	250
149	760
150	470
151	90
152	20
153	10
154	150
155	40
156	160
157	10
158	90
159	10
160	20
161	100
162	190
163	110
164	190
165	420
166	90
167	480
168	40
169	330
170	30
171	130
172	30
173	20
174	10
178	10
180	40
181	20
182	420
183	630
184	90
185	30
186	10
199	10
202	10
204	40
206	30
208	10
217	10
236	50
238	40
240	10
242	10
248	10
250	10
264	110
265	10
266	80
267	10
268	10
276	60
277	20
278	50
279	10
280	10
311	110
312	90
313	120
314	90
315	50
316	30
347	40
348	10
349	60
350	10
351	30
