Mass Spectrum: 1,7-Dioxa-4,10-dithiacyclododecane
Formula: C8 H16 O2 S2
CAS: 294-95-1
Molecular weight: 208
Origin: VERIFINN
m/z	RELATIVE INTENSITY
27	2772
28	1201
29	1571
35	821
41	1021
43	1251
44	761
45	5975
46	3904
47	1792
58	741
59	4054
60	6136
61	9378
62	520
63	540
72	390
73	731
74	1621
75	1672
76	540
85	1401
86	9999
87	4644
88	721
89	2712
91	651
102	651
103	1952
104	3163
105	7497
106	591
107	571
112	240
113	120
115	90
117	380
119	90
130	150
131	390
135	50
136	170
137	951
138	160
148	170
149	240
157	180
163	90
164	150
165	400
176	80
208	2682
209	250
210	200
