Mass Spectrum: Benzothiazole, 2,6-dimethyl-
Formula: C9 H9 N S
CAS: 2941-71-1
Molecular weight: 163
Origin: RADIAN CORP
m/z	RELATIVE INTENSITY
15	70
26	100
27	260
37	70
38	210
39	630
40	140
41	90
42	460
44	10
45	680
46	40
47	40
49	30
50	390
51	740
52	310
53	100
57	150
58	250
59	280
60	70
61	150
62	320
63	700
64	130
65	140
66	40
68	30
69	1330
70	280
71	230
72	20
73	40
74	150
75	190
76	210
77	1620
78	1530
79	150
80	10
81	310
82	250
83	140
84	40
85	40
86	70
87	70
88	40
89	210
90	90
91	150
92	60
93	380
94	140
95	260
96	80
97	30
102	40
103	80
104	110
105	60
106	80
107	40
108	50
109	50
110	20
116	60
117	110
118	270
119	80
120	70
121	4630
122	2520
123	430
124	110
128	40
129	30
130	450
131	90
134	50
135	130
136	40
146	40
147	10
148	830
149	80
150	30
160	30
161	40
162	4210
163	9999
164	1230
165	470
166	40
