Mass Spectrum: 2-Amino-5-methylbenzoic acid
Formula: C8 H9 N O2
CAS: 2941-78-8
Molecular weight: 151
Origin: Japan AIST/NIMC Database- Spectrum MS-NW-8102
m/z	RELATIVE INTENSITY
15	10
17	10
18	30
26	30
27	189
28	339
29	30
37	30
38	90
39	319
40	60
41	109
42	50
43	20
44	70
45	60
49	20
50	199
51	679
52	609
53	399
54	109
55	30
56	10
61	30
62	70
63	179
64	80
65	149
66	229
67	139
68	10
73	10
74	40
75	169
76	179
77	1619
78	1379
79	579
80	90
81	10
86	10
87	10
88	10
89	129
90	60
91	50
92	20
93	20
94	20
102	60
103	70
104	3839
105	1099
106	2159
107	229
108	20
117	20
122	10
130	10
131	10
132	729
133	9999
134	1059
135	70
149	50
150	129
151	7409
152	689
153	60
