Mass Spectrum: Ethiolate
Formula: C7 H15 N O S
CAS: 2941-55-1
Molecular weight: 161
Origin: FDA, Los Angeles District Laboratory
m/z	RELATIVE INTENSITY
41	250
42	400
43	550
44	950
56	350
71	750
72	4400
73	300
99	950
100	9999
101	800
118	450
132	200
160	500
161	3550
162	850
163	250
164	200
