Mass Spectrum: 2-(1-Methylpropyl)pyrazine
Formula: C8 H12 N2
CAS: 29460-93-3
Molecular weight: 136
Origin: W.V. BROWN, CSIRO, BLACK MOUNTAIN, CANBERRA CITY, AUSTRALIA
m/z	RELATIVE INTENSITY
37	64
38	204
39	1096
40	268
41	1057
42	255
43	38
49	25
50	204
51	484
52	1363
53	1783
54	726
55	255
56	102
57	153
62	25
63	76
64	89
65	204
66	344
67	344
68	89
69	64
75	25
76	38
77	76
78	153
79	1210
80	1019
81	522
82	76
91	25
92	64
93	968
94	2675
95	242
105	127
106	357
107	4841
108	9999
109	752
110	38
118	64
119	344
120	89
121	4650
122	408
133	64
135	433
136	1401
137	242
