Mass Spectrum: Pyrazine, (2-methylpropyl)-
Formula: C8 H12 N2
CAS: 29460-92-2
Molecular weight: 136
Origin: Philip Morris R&D
m/z	RELATIVE INTENSITY
38	282
39	1324
40	453
41	1517
42	408
43	879
44	72
46	21
47	44
50	60
51	182
52	462
53	444
54	99
55	50
56	28
57	28
60	65
61	25
62	24
63	48
64	74
65	143
66	477
67	967
68	293
69	44
77	31
78	75
79	152
80	131
81	107
82	27
91	21
92	45
93	1010
94	9999
95	673
96	21
106	60
107	110
108	84
118	31
119	208
120	59
121	1432
122	139
133	43
135	356
136	1412
137	153
