Mass Spectrum: Triphenylphosphonium cyclopentadienylide
Formula: C23 H19 P
CAS: 29473-30-1
Molecular weight: 326
Origin: Japan AIST/NIMC Database- Spectrum MS-NW-9633
m/z	RELATIVE INTENSITY
27	40
29	10
38	10
39	139
40	20
41	20
42	10
43	20
44	20
45	10
47	159
50	80
51	549
52	50
53	10
55	30
56	20
57	99
62	20
63	109
64	20
65	119
66	40
68	20
69	80
70	20
71	20
74	30
75	50
76	70
77	849
78	139
79	10
80	20
81	90
82	30
83	60
84	10
85	10
86	10
87	20
88	10
89	80
91	189
92	20
93	10
94	80
95	129
96	40
97	20
98	20
99	10
100	10
101	40
102	90
103	90
104	10
105	20
106	10
107	639
108	1449
109	159
110	50
111	10
113	30
114	20
115	569
116	109
117	109
118	10
120	40
121	60
122	60
123	139
124	159
125	30
126	70
127	90
128	219
129	99
130	40
131	90
132	20
133	359
134	40
135	10
138	40
139	199
140	40
141	199
142	30
144	60
145	109
146	70
147	70
148	10
149	10
150	40
151	109
152	989
153	309
154	249
155	40
156	10
157	299
158	40
159	40
160	10
162	10
163	219
164	20
165	169
166	40
167	20
168	30
169	80
170	689
171	399
172	50
173	99
174	10
176	20
177	10
178	149
179	40
180	10
181	90
182	70
183	5149
184	1089
185	1159
186	159
187	20
188	10
189	80
190	30
191	109
192	60
193	20
194	20
195	10
196	30
197	30
198	10
199	1359
200	219
201	959
202	389
203	129
204	60
205	20
207	80
208	20
209	70
210	40
211	50
212	10
213	40
214	20
215	779
216	339
217	179
218	60
219	20
220	149
221	149
222	70
223	70
224	99
225	20
226	40
227	40
228	329
229	90
230	30
231	20
232	10
233	329
234	80
235	70
236	10
239	10
243	10
244	149
245	169
246	129
247	219
248	60
249	269
250	50
252	20
253	10
254	10
255	10
257	149
258	50
259	439
260	959
261	1239
262	4339
263	849
264	80
265	20
266	10
270	10
275	10
276	50
277	6519
278	3009
279	499
280	50
281	20
282	20
283	30
284	10
285	10
287	10
289	30
290	20
291	40
292	20
293	119
294	90
295	30
296	10
297	10
298	10
299	70
300	30
301	30
303	70
304	30
307	30
308	10
309	30
310	10
311	99
312	20
317	40
318	20
319	10
320	10
321	20
322	10
323	179
324	149
325	9169
326	9999
327	2239
328	269
329	60
330	10
