Mass Spectrum: Benzeneacetonitrile, 4-methyl-
Formula: C9 H9 N
CAS: 2947-61-7
Molecular weight: 131
Origin: NIST Mass Spectrometry Data Center, 1994
m/z	RELATIVE INTENSITY
14	31
15	155
26	341
27	1063
28	276
37	254
38	656
39	2253
40	373
41	294
43	36
44	19
49	183
50	1492
51	2680
52	977
53	314
54	45
60	26
61	306
62	763
63	1795
64	698
65	1659
66	127
73	99
74	485
75	618
76	772
77	2217
78	1046
79	234
85	80
86	145
87	151
88	186
89	1238
90	80
91	9999
92	776
93	32
98	52
99	72
100	68
101	217
102	711
103	1941
104	4864
105	568
106	34
114	66
116	5912
117	535
127	43
128	205
129	182
130	1546
131	5707
132	542
