Mass Spectrum: 3-Methylbenzyl cyanide
Formula: C9 H9 N
CAS: 2947-60-6
Molecular weight: 131
Origin: NIST Mass Spectrometry Data Center, 1994
m/z	RELATIVE INTENSITY
12	28
13	38
14	101
15	453
26	599
27	1568
29	49
37	576
38	1167
39	3446
40	955
41	534
42	20
43	38
50	1593
51	2535
52	983
53	330
54	60
61	510
62	1112
63	2144
64	882
65	1814
66	170
67	15
73	129
74	538
75	670
76	861
77	2144
78	1228
79	208
80	20
84	26
85	101
86	191
87	268
88	268
89	1413
90	20
91	9999
92	796
97	21
98	76
99	79
100	69
101	210
102	840
103	2359
104	5336
105	677
106	39
114	82
116	6548
117	612
118	23
127	54
128	214
130	2055
131	7037
132	702
133	36
