Mass Spectrum: Benzamide, 2,6-difluoro-N-(1-naphthyl)-
Formula: C17 H11 F2 N O
CAS: 294852-77-0
Molecular weight: 283
Origin: Zaikin V.G., TIPS RAS, Moscow, Russia
m/z	RELATIVE INTENSITY
28	10
39	40
50	30
51	30
62	40
63	270
64	20
65	40
74	30
75	40
87	30
88	50
89	110
93	30
112	40
113	981
114	230
115	1091
116	160
126	30
127	50
139	20
140	220
141	9999
142	701
143	260
144	1131
145	120
169	30
234	20
235	30
282	30
283	4324
284	761
285	70
