Mass Spectrum: 1,3,4-Thiadiazole-2(3H)-thione, 5-methyl-
Formula: C3 H4 N2 S2
CAS: 29490-19-5
Molecular weight: 132
Origin: NIST Mass Spectrometry Data Center
m/z	RELATIVE INTENSITY
26	230
27	500
29	210
32	430
33	70
34	30
38	70
39	100
40	240
41	260
42	741
44	310
45	721
46	300
47	320
53	50
54	30
55	601
56	9999
57	550
58	851
59	2502
60	130
61	110
64	1641
65	50
66	330
69	30
70	60
71	30
72	310
73	210
74	60
76	711
77	180
78	70
88	40
90	70
91	240
99	150
100	70
132	7977
133	450
134	731
135	30
