Mass Spectrum: Stannane, tetrakis(1-methylethyl)-
Formula: C12 H28 Sn
CAS: 2949-42-0
Molecular weight: 292
Origin: M.GEILEN UNIVERSITE LIBRE DE BRUXELLES, BELGIUM
m/z	RELATIVE INTENSITY
15	70
36	110
37	110
38	140
39	760
40	250
41	1740
42	650
43	2400
44	220
115	140
116	870
117	2220
118	2400
119	3550
120	3000
121	4170
122	360
123	110
124	360
125	760
126	35
127	70
131	510
132	330
133	840
134	360
135	1160
136	35
137	290
139	220
140	20
141	35
142	20
143	110
144	35
145	220
146	70
147	290
148	70
149	260
150	35
151	180
152	35
153	140
154	35
155	250
156	35
157	470
158	250
159	1960
160	1200
161	6200
162	3050
163	9200
164	2440
165	8200
166	330
167	1700
168	110
169	1380
170	70
175	110
176	70
177	150
178	70
179	180
180	20
181	35
183	35
185	20
186	20
187	70
188	35
189	180
190	110
191	250
192	70
193	250
194	35
195	70
196	35
197	110
198	70
199	360
200	35
201	400
202	330
203	4750
204	2900
205	7800
206	3250
207	9999
208	7200
209	1490
210	150
211	1750
212	110
217	70
218	35
219	110
220	35
221	150
222	20
223	20
225	20
227	20
229	70
230	35
231	180
232	110
233	250
234	110
235	220
236	35
237	110
238	70
239	220
240	70
241	480
242	70
243	360
244	180
245	3700
246	2200
247	6200
248	2600
249	8000
250	840
251	1200
252	110
253	1380
254	140
262	20
280	35
281	70
282	70
283	140
284	70
285	140
286	35
287	110
288	180
289	110
290	250
291	150
292	330
293	35
294	70
296	70
