Mass Spectrum: Cyclotridecane
Formula: C13 H26
CAS: 295-02-3
Molecular weight: 182
Origin: NIST Mass Spectrometry Data Center, 1990.
m/z	RELATIVE INTENSITY
27	2287
28	1014
29	3497
39	2722
41	9999
42	2730
43	3995
44	234
53	988
54	1201
55	9343
56	4766
57	3653
66	221
67	1645
68	2244
69	6461
70	4311
71	1431
79	174
81	732
82	3019
83	5907
84	2383
85	655
95	230
96	1495
97	4028
98	1407
99	191
110	736
111	2441
112	900
124	330
125	1289
126	555
139	311
140	199
154	532
182	789
