Mass Spectrum: Cyclotetradecane
Formula: C14 H28
CAS: 295-17-0
Molecular weight: 196
Origin: NIST Mass Spectrometry Data Center, 1990.
m/z	RELATIVE INTENSITY
14	170
16	87
27	1092
28	268
29	1920
39	2032
41	8317
42	2559
43	3355
44	176
51	119
53	1026
54	1390
55	9999
56	4558
57	3659
58	153
65	229
66	232
67	1989
68	2504
69	7321
70	4156
71	1554
72	82
77	164
78	47
79	243
80	47
81	979
82	3213
83	6156
84	2385
85	832
86	45
91	43
95	306
96	1440
97	4352
98	1335
99	164
109	82
110	584
111	2229
112	792
113	101
123	42
124	335
125	987
126	476
127	63
138	177
139	309
140	245
152	67
153	163
154	105
167	67
168	452
169	58
196	878
197	148
