Mass Spectrum: Cyclohexadecane
Formula: C16 H32
CAS: 295-65-8
Molecular weight: 224
Origin: D.HENNEBERG, MAX-PLANCK INSTITUTE, MULHEIM, WEST GERMANY
m/z	RELATIVE INTENSITY
23	8
24	12
25	19
26	9
27	1171
28	233
29	3379
30	73
32	6
33	3
34	3
36	11
39	1043
40	220
41	8206
42	2062
43	7257
44	63
45	11
46	4
50	36
51	32
52	31
53	445
54	971
55	9999
56	5974
57	6874
58	288
59	10
60	5
62	10
65	78
66	164
67	1472
68	2821
69	7721
70	4692
71	2986
72	142
73	15
74	6
75	9
77	38
78	8
79	69
80	54
81	688
82	3737
83	8454
84	2929
85	1493
86	97
88	2
89	3
91	9
92	1
94	14
95	251
96	1495
97	6014
98	1676
99	360
100	17
109	83
110	586
111	3018
112	1088
113	162
122	5
123	39
124	355
125	1379
126	680
127	87
128	1
137	30
138	211
139	580
140	434
141	72
152	134
153	305
154	261
155	39
166	62
167	180
168	146
169	9
180	20
181	85
182	62
194	16
195	44
196	327
197	32
224	612
225	100
