Mass Spectrum: 1,4,8,11-Tetraazacyclotetradecane
Formula: C10 H24 N4
CAS: 295-37-4
Molecular weight: 200
Origin: Leung Pu, NIH, Bethesda, Maryland, U.S.
m/z	RELATIVE INTENSITY
41	141
42	5995
43	4224
44	9999
45	272
46	40
47	81
48	30
49	362
50	30
51	116
53	33
54	364
55	335
56	3880
57	2050
58	9062
59	377
67	54
68	694
69	883
70	5007
71	2536
72	970
73	118
75	80
80	47
81	42
82	608
83	924
84	1623
85	1607
86	383
87	1098
88	97
89	672
90	33
91	103
95	267
96	145
97	429
98	483
99	4934
100	1116
101	6581
102	579
103	74
106	27
109	112
110	56
111	367
112	391
113	4553
114	1378
115	343
116	52
118	1598
119	94
123	30
124	51
125	409
126	1707
127	561
128	307
129	51
130	148
132	392
133	26
141	198
142	320
143	57
144	110
146	101
155	130
156	340
157	112
158	25
166	66
168	283
169	174
170	646
171	157
182	132
183	151
185	12
197	67
198	74
199	499
200	908
201	111
