Mass Spectrum: Benzene, 2-ethoxy-1,3-dimethoxy-
Formula: C10 H14 O3
CAS: 29515-37-5
Molecular weight: 182
Origin: P. BRUCK, MAGYAR TUDOMANYOS AKADEMIA, HUNGARY
m/z	RELATIVE INTENSITY
39	757
51	462
54	319
65	3287
77	458
79	335
92	207
93	227
94	257
95	1195
107	695
108	498
109	733
110	1275
124	924
125	1291
139	4503
140	319
153	2072
154	9999
155	896
162	63
167	54
180	275
182	7451
183	849
