Mass Spectrum: Cyclohexanol, 4-chloro-, trans-
Formula: C6 H11 Cl O
CAS: 29538-77-0
Molecular weight: 134
m/z	RELATIVE INTENSITY
14	10
15	60
16	10
17	10
18	40
19	10
26	50
27	510
28	270
29	611
30	30
31	210
32	50
34	10
35	20
36	10
37	20
38	60
39	611
40	90
41	881
42	420
43	711
44	981
45	60
46	10
47	20
48	20
49	70
50	60
51	130
52	40
53	290
54	1121
55	901
56	210
57	9999
58	460
59	40
60	10
61	30
62	50
63	50
64	20
65	110
66	20
67	170
68	40
69	90
70	490
71	50
72	10
73	20
74	10
75	100
76	40
77	150
78	100
79	280
80	1151
81	971
82	60
83	390
84	30
85	30
88	50
89	20
90	50
91	50
92	20
93	10
95	10
96	10
97	160
98	1411
99	110
100	10
101	10
103	10
104	10
105	20
106	10
107	10
108	10
115	10
116	160
117	20
118	50
119	10
133	50
134	140
135	30
136	50
137	10
