Mass Spectrum: Phosphorodithioic acid, O,O,S-trimethyl ester
Formula: C3 H9 O2 P S2
CAS: 2953-29-9
Molecular weight: 172
Origin: E.SANTORO MONTECATINI EDISON RES. CENTRE, MILAN, ITALY
m/z	RELATIVE INTENSITY
15	880
31	750
44	510
45	1860
46	1040
47	4820
48	440
61	300
62	1170
63	2730
64	1010
77	710
79	3290
93	9999
94	950
95	630
109	2510
125	7800
126	2250
141	900
142	620
157	230
172	9680
