Mass Spectrum: p-Mentha-1(7),8(10)-dien-9-ol
Formula: C10 H16 O
CAS: 29548-13-8
Molecular weight: 152
m/z	RELATIVE INTENSITY
15	80
26	200
27	2772
28	981
29	2052
30	80
31	1221
37	60
38	190
39	4204
40	1111
41	6836
42	581
43	2482
44	150
45	120
50	270
51	1031
52	631
53	3153
54	921
55	3944
56	661
57	1521
58	280
59	70
62	70
63	350
64	130
65	1451
66	1081
67	5005
68	1661
69	791
70	400
71	210
75	180
77	3673
78	1692
79	9999
80	3003
81	2002
82	350
83	841
84	2162
85	170
89	150
90	200
91	7327
92	7357
93	9999
94	2762
95	1852
96	530
97	190
103	300
104	190
105	4754
106	4754
107	821
108	540
109	440
110	200
111	150
115	200
116	90
117	480
118	110
119	6326
120	661
121	1401
122	210
123	711
124	420
131	60
132	70
133	400
134	2722
135	340
136	50
137	150
152	530
153	50
