Mass Spectrum: Phenol, 2-(ethylthio)-
Formula: C8 H10 O S
CAS: 29549-60-8
Molecular weight: 154
Origin: R.I.REED CHEMISTRY DEPT., GLASGOW UNIVERSITY, GLASGOW, UK
m/z	RELATIVE INTENSITY
39	2017
40	249
41	180
42	60
43	90
44	487
45	3377
46	149
47	257
49	90
50	477
51	717
52	427
53	2207
54	119
55	219
57	139
58	357
59	307
60	110
61	277
62	427
63	1147
64	517
65	1187
66	527
67	169
68	100
69	1427
70	847
71	717
72	100
73	80
74	119
75	90
76	50
77	507
78	189
79	100
81	169
82	300
83	50
84	717
85	110
86	50
91	427
92	229
93	229
94	957
95	847
96	827
97	8357
98	2007
99	487
100	119
103	90
105	50
107	100
108	267
109	139
110	90
111	300
119	90
120	130
121	257
125	1567
126	5700
127	487
128	300
135	60
137	149
139	3100
140	307
141	169
154	9999
155	867
156	477
