Mass Spectrum: p-Menth-1(7)-en-9-ol
Formula: C10 H18 O
CAS: 29548-16-1
Molecular weight: 154
m/z	RELATIVE INTENSITY
26	70
27	1201
28	350
29	1231
30	50
31	1171
38	60
39	1832
40	520
41	3994
42	420
43	1091
44	60
45	100
50	80
51	320
52	200
53	1682
54	601
55	3233
56	320
57	460
58	380
59	140
63	90
65	601
66	480
67	3693
68	1772
69	1912
70	190
71	150
75	50
77	1381
78	350
79	4924
80	1541
81	4304
82	490
83	180
84	120
85	70
89	70
91	1241
92	881
93	9999
94	6156
95	3233
96	320
97	320
105	230
106	80
107	3533
108	921
109	110
119	80
121	2923
122	320
123	1371
124	150
135	60
136	1922
137	220
154	320
