Mass Spectrum: Hydrazine, 2-ethyl-1,1-dimethyl-
Formula: C4 H12 N2
CAS: 29559-82-8
Molecular weight: 88
Origin: ATLAS OF MASS SPECTRA OF ORGANIC COMPOUNDS, V. A. KOPTYUG, ED.
m/z	RELATIVE INTENSITY
29	750
30	1300
31	460
32	320
36	230
40	90
41	210
42	1480
43	1170
44	2220
45	1820
46	330
57	160
58	130
59	9999
60	370
71	80
73	980
74	190
87	60
88	4640
89	300
