Mass Spectrum: Prazepam
Formula: C19 H17 Cl N2 O
CAS: 2955-38-6
Molecular weight: 324
Origin: Virginia Division of Forensic Science
m/z	RELATIVE INTENSITY
15	30
16	10
26	60
27	800
29	1411
30	30
36	20
37	20
38	110
39	1161
40	80
41	340
42	140
43	40
49	40
50	260
51	790
52	180
53	540
55	4423
56	240
57	40
61	40
62	190
63	570
64	180
65	970
66	60
67	30
68	50
69	130
70	60
73	140
74	260
75	790
76	560
77	1451
78	230
79	50
80	30
82	410
84	70
85	50
86	90
87	220
88	260
89	1231
90	600
91	7576
92	560
93	50
94	10
96	400
97	90
98	100
99	290
100	310
101	230
102	1020
103	450
104	260
105	200
106	30
107	40
109	370
110	450
111	620
112	240
113	390
114	250
115	410
116	1111
117	690
118	190
119	40
120	70
121	60
122	70
123	200
124	260
125	360
126	470
127	380
128	310
129	160
130	200
131	50
132	20
133	30
134	60
136	310
137	380
138	600
139	440
140	320
141	160
142	120
143	110
144	60
145	20
146	20
147	50
148	50
149	190
150	840
151	1401
152	960
153	280
154	140
155	60
156	60
157	50
158	40
160	20
161	80
162	260
163	1821
164	1221
165	1791
166	1141
167	180
168	280
169	70
170	30
173	50
174	70
175	150
176	400
177	1341
178	1111
179	530
180	190
181	40
182	10
183	10
184	10
185	30
186	90
187	50
188	170
189	210
190	750
191	580
192	550
193	680
194	140
195	20
197	10
198	60
199	300
200	110
201	170
202	130
203	320
204	510
205	1401
206	760
207	660
208	120
211	60
212	110
213	390
214	420
215	230
216	280
217	300
218	580
219	630
220	190
221	80
222	20
224	70
225	40
226	230
227	1301
228	730
229	540
230	380
231	170
232	190
233	390
234	630
235	350
236	60
237	20
238	250
239	740
240	1791
241	4183
242	2201
243	1611
244	610
245	130
246	90
247	130
248	40
249	30
250	40
251	70
252	190
253	710
254	470
255	1381
256	390
257	360
258	80
259	70
260	140
261	220
262	50
263	20
264	60
265	80
267	2121
268	1921
269	9999
270	2322
271	3072
272	540
273	50
277	20
278	60
279	260
280	120
281	1010
282	280
283	370
284	120
285	10
287	10
288	40
289	200
290	40
291	20
293	480
295	7746
296	5765
297	3513
298	1961
299	390
300	30
305	50
306	40
307	110
308	30
309	310
310	50
311	90
323	3182
324	5314
325	2041
326	1801
327	340
328	30
