Mass Spectrum: Hexanoic acid, 4-oxo-, methyl ester
Formula: C7 H12 O3
CAS: 2955-62-6
Molecular weight: 144
m/z	RELATIVE INTENSITY
15	435
16	130
17	130
18	174
19	391
26	130
27	500
28	999
29	739
31	283
41	87
42	104
43	113
44	104
45	87
55	5655
56	1301
57	9999
58	350
59	3483
87	871
113	2612
115	7837
117	430
144	1091
