Mass Spectrum: 2-Butanol, 3,3,4,4-tetrafluoro-2-methyl-
Formula: C5 H8 F4 O
CAS: 29553-26-2
Molecular weight: 160
Origin: RADIAN CORP
m/z	RELATIVE INTENSITY
14	10
15	190
26	60
27	340
29	380
30	20
31	2260
32	50
33	100
37	50
38	120
39	780
40	80
41	1640
42	420
43	5990
44	290
45	30
46	160
47	480
48	20
49	270
50	130
51	2450
52	50
53	180
54	10
55	240
56	50
57	380
58	110
59	9999
60	380
61	200
62	30
63	240
64	110
65	1790
66	50
67	420
68	30
69	210
70	30
71	170
72	30
73	230
74	30
75	360
76	60
77	1300
78	60
79	90
81	30
82	260
83	90
87	10
88	20
89	70
90	30
91	500
92	50
93	190
94	160
95	140
97	1060
98	40
99	30
100	40
101	470
103	40
105	80
106	20
107	20
111	30
123	30
125	710
126	30
143	20
144	30
145	2680
146	120
