Mass Spectrum: Propane, 1,1,2-trichloro-2-methyl-
Formula: C4 H7 Cl3
CAS: 29559-52-2
Molecular weight: 160
Origin: Japan AIST/NIMC Database- Spectrum MS-NW-8592
m/z	RELATIVE INTENSITY
14	10
15	50
25	10
26	99
27	709
28	70
29	159
35	40
36	109
37	119
38	209
39	979
40	70
41	2659
42	99
43	10
47	70
48	60
49	429
50	159
51	339
52	60
53	1169
54	90
55	229
56	10
59	30
60	20
61	189
62	70
63	399
64	20
65	99
72	20
73	129
74	20
75	199
76	80
77	9999
78	369
79	3219
80	109
82	10
83	339
84	10
85	229
87	70
88	10
89	1009
90	99
91	329
92	30
96	10
97	50
99	30
109	289
110	40
111	179
112	30
113	30
124	10
125	789
126	40
127	509
128	20
129	80
145	90
147	80
149	20
