Mass Spectrum: N,N'-Ethylenebis-acrylamide
Formula: C8 H12 N2 O2
CAS: 2956-58-3
Molecular weight: 168
Origin: NIST Mass Spectrometry Data Center
m/z	RELATIVE INTENSITY
12	20
14	120
15	90
16	60
17	20
18	100
25	50
26	480
27	3043
28	1742
29	310
30	931
31	70
32	240
39	70
40	70
41	210
42	360
43	310
44	420
51	20
52	50
53	190
55	9999
56	460
57	150
58	40
59	50
67	70
68	380
69	691
70	70
72	450
82	40
84	4984
85	2212
86	110
87	160
95	50
97	3984
98	240
111	110
112	20
113	60
151	20
