Mass Spectrum: Methanone, (2-amino-5-chlorophenyl)(2-chlorophenyl)-
Formula: C13 H9 Cl2 N O
CAS: 2958-36-3
Molecular weight: 265
Origin: Japan AIST/NIMC Database- Spectrum MS-NW-9701
m/z	RELATIVE INTENSITY
27	10
28	50
36	20
37	10
38	50
39	99
40	10
41	50
49	20
50	119
51	129
52	139
53	30
54	10
61	40
62	129
63	479
64	149
65	109
66	20
68	10
69	90
70	30
72	20
73	169
74	139
75	719
76	129
77	90
78	10
82	139
83	99
84	20
85	60
86	50
87	80
88	50
89	90
90	639
91	279
92	30
96	20
97	60
98	90
99	739
100	189
101	279
102	40
109	10
110	60
111	1459
112	119
113	519
114	90
115	549
116	179
119	10
122	10
123	20
124	20
125	159
126	1399
127	169
128	459
129	40
132	60
133	40
134	10
135	10
136	10
137	50
138	109
139	2219
140	339
141	659
142	50
147	10
149	50
150	80
151	50
152	20
153	239
154	2889
155	309
156	959
157	70
160	10
162	10
163	10
164	159
165	109
166	619
167	889
168	149
169	10
173	90
174	40
175	50
176	30
177	80
178	20
184	10
185	20
186	20
187	10
188	10
193	10
194	179
195	2489
196	379
197	30
198	10
199	10
200	169
201	519
202	249
203	189
204	70
211	10
212	30
213	40
214	20
215	10
228	90
229	1209
230	9999
231	1819
232	3269
233	469
234	40
235	30
236	409
237	80
238	259
239	40
240	40
248	369
249	50
250	239
251	30
252	40
263	10
264	1859
265	5639
266	1989
267	3659
268	699
269	619
270	80
