Mass Spectrum: .alpha.-Phenylglutaric anhydride
Formula: C11 H10 O3
CAS: 2959-96-8
Molecular weight: 190
Origin: Japan AIST/NIMC Database- Spectrum MS-NW-6854
m/z	RELATIVE INTENSITY
14	30
15	70
16	10
17	10
18	30
26	149
27	949
28	229
29	379
30	10
31	139
37	90
38	329
39	2209
40	209
41	929
42	279
43	669
44	80
45	1449
46	40
47	20
49	40
50	779
51	2019
52	549
53	309
54	30
55	589
56	50
57	239
58	259
59	80
60	609
61	129
62	489
63	1429
64	359
65	1319
66	139
67	40
68	20
69	30
71	30
72	20
73	129
74	309
75	309
76	309
77	3239
78	1749
79	2749
80	189
81	60
82	10
83	10
84	20
85	129
86	119
87	169
88	90
89	1399
90	1249
91	5279
92	549
93	90
94	99
95	20
97	10
98	20
99	10
101	70
102	459
103	4799
104	9719
105	2559
106	209
107	1019
108	90
109	10
110	10
113	70
114	80
115	3159
116	1089
117	9989
118	2009
119	229
120	319
121	659
122	60
123	10
127	509
128	80
129	20
130	20
131	389
132	50
133	199
134	139
135	279
136	129
137	20
138	10
139	10
143	30
144	439
145	489
146	569
147	159
148	9999
149	1089
150	99
151	10
160	10
161	40
162	1609
163	549
164	169
165	20
171	10
172	80
173	10
190	9039
191	1169
192	129
193	10
