Mass Spectrum: 1,10-Dioxa-4,7,13,16-tetrathiacyclooctadecane
Formula: C12 H24 O2 S4
CAS: 296-40-2
Molecular weight: 328
Origin: VERIFINN
m/z	RELATIVE INTENSITY
27	1682
35	761
41	921
43	1061
45	4644
46	2552
47	1521
59	4044
60	5825
61	9999
64	1021
66	520
73	751
74	1441
75	1692
76	571
78	510
85	1551
86	3103
87	5605
89	2542
91	1501
92	1742
96	1251
102	1461
103	3894
104	3293
105	8768
106	1281
107	911
112	470
117	390
118	2112
119	1091
120	2502
121	1131
130	310
131	1231
133	380
136	440
137	1341
138	1832
139	390
146	210
147	140
149	140
157	120
162	450
163	921
164	2993
165	1001
166	320
167	120
177	70
178	120
182	1261
183	100
190	140
191	681
192	80
193	60
197	150
198	340
208	200
222	1682
223	170
224	991
225	130
226	80
242	751
244	80
251	170
268	901
269	230
270	160
328	1171
329	130
330	220
