Mass Spectrum: Cyclohexanone, 5-methyl-2-(1-methylethenyl)-, trans-
Formula: C10 H16 O
CAS: 29606-79-9
Molecular weight: 152
m/z	RELATIVE INTENSITY
15	170
26	190
27	3183
28	520
29	1822
31	70
37	80
38	250
39	5455
40	1431
41	7607
42	1461
43	1822
44	70
45	60
50	280
51	911
52	591
53	3523
54	851
55	2843
56	711
57	170
59	70
62	70
63	280
64	90
65	941
66	931
67	9659
68	6015
69	4554
70	651
71	110
75	50
77	1051
78	270
79	1601
80	971
81	9999
82	4084
83	591
84	170
91	661
92	150
94	761
95	3073
96	721
97	340
105	170
106	50
107	430
108	2042
109	9318
110	1341
111	180
119	300
121	160
125	60
137	2963
138	310
151	240
152	6156
153	771
154	60
