Mass Spectrum: Pyridine, 2-(1-butylpentyl)-
Formula: C14 H23 N
CAS: 2961-49-1
Molecular weight: 205
m/z	RELATIVE INTENSITY
26	150
27	1992
28	601
29	2552
38	50
39	821
40	120
41	1351
42	140
43	320
50	110
51	450
52	420
53	320
54	100
55	180
56	50
57	90
63	80
64	60
65	440
66	150
67	60
77	250
78	861
79	711
80	230
91	160
92	430
93	2352
94	240
104	270
105	150
106	9999
107	1441
117	781
118	1071
119	530
120	1251
121	450
130	200
131	60
132	500
133	90
134	130
135	20
148	2112
149	3693
150	400
162	2232
163	290
176	581
204	110
205	240
206	40
