Mass Spectrum: 1,4-Benzodioxan-6-carboxaldehyde
Formula: C9 H8 O3
CAS: 29668-44-8
Molecular weight: 164
Origin: Japan AIST/NIMC Database- Spectrum MS-NW-9948
m/z	RELATIVE INTENSITY
14	30
15	60
16	10
17	10
18	40
25	20
26	259
27	429
28	459
29	269
30	10
31	20
37	90
38	179
39	209
40	30
41	20
42	30
43	139
44	40
45	99
47	10
48	10
49	119
50	789
51	1899
52	1369
53	359
54	70
55	109
60	40
61	80
62	209
63	539
64	109
65	149
66	30
67	40
68	149
69	20
73	60
74	349
75	309
76	70
77	399
78	109
79	2529
80	2339
81	319
82	20
84	30
86	20
91	199
92	50
93	20
103	80
104	10
105	40
106	10
107	949
108	1289
109	239
110	30
119	99
120	20
121	70
133	10
134	10
135	1749
136	399
137	289
138	20
149	639
150	80
162	20
163	9259
164	9999
165	1029
166	99
