Mass Spectrum: Cyclooctacosane
Formula: C28 H56
CAS: 297-24-5
Molecular weight: 392
Origin: G.SCHILL, CHEM. LAB., ALBERT LUDWIGS UNIV., FREIBURG, W. GER
m/z	RELATIVE INTENSITY
26	200
27	500
28	800
29	1900
32	200
39	400
40	100
41	4900
42	1600
43	9600
44	300
45	100
50	100
51	100
52	100
53	300
54	800
55	8100
56	4900
57	9999
58	700
60	100
65	200
66	300
67	1100
68	1700
69	6600
70	3800
71	5300
72	400
73	100
74	100
75	100
77	100
79	100
80	100
81	700
82	2400
83	7300
84	2600
85	3500
86	300
87	100
91	200
92	100
93	100
94	100
95	600
96	1500
97	6500
98	1500
99	800
100	100
109	300
110	600
111	3300
112	1000
113	400
123	200
124	300
125	1500
126	600
127	300
137	100
138	200
139	700
140	400
141	200
152	200
153	400
154	300
155	100
166	100
167	300
168	300
169	100
181	200
182	200
183	100
194	100
195	100
196	200
197	100
202	100
205	100
207	100
208	100
209	100
210	200
211	100
222	100
223	100
224	100
225	100
236	100
237	100
238	100
239	100
250	100
251	100
252	100
253	100
264	100
265	100
266	100
267	100
278	100
279	100
280	100
281	100
292	100
293	100
294	100
295	100
306	100
307	100
308	100
321	100
322	100
334	100
335	200
336	100
348	100
349	200
350	100
362	100
363	100
364	200
365	100
392	900
393	300
394	100
