Mass Spectrum: Ethynodiol diacetate
Formula: C24 H32 O4
CAS: 297-76-7
Molecular weight: 384
Origin: AAFS Toxicology Section MS DB Committee, U. Alberta, Canada
m/z	RELATIVE INTENSITY
43	9999
44	240
53	690
55	750
65	590
66	210
67	1331
68	250
69	280
77	2071
78	650
79	2362
80	350
81	1351
82	160
83	280
91	6345
92	1691
93	1821
94	360
95	900
96	180
97	250
103	510
104	600
105	2091
106	630
107	1080
108	460
109	780
110	430
115	1131
116	520
117	2091
118	960
119	1391
120	470
121	570
122	440
123	430
124	160
127	200
128	820
129	1461
130	720
131	1791
132	560
133	750
134	270
135	300
136	170
137	220
141	790
142	690
143	1401
144	850
145	1411
146	800
147	600
148	190
149	190
153	220
154	260
155	690
156	360
157	820
158	460
159	750
160	300
161	240
162	180
165	280
167	350
168	180
169	630
170	330
171	710
172	320
173	550
174	160
178	210
179	260
181	410
182	250
183	470
184	190
185	540
186	260
187	200
193	350
194	210
195	660
196	260
197	1741
198	430
199	2632
200	530
201	330
207	520
208	260
209	370
210	340
211	350
212	460
213	530
214	1261
215	410
221	610
222	280
223	290
225	280
235	460
236	520
237	300
239	260
249	900
250	220
253	450
254	320
263	370
264	1020
265	580
267	700
268	170
281	530
282	2091
283	480
309	830
310	160
324	8227
325	2262
326	330
327	190
342	250
369	1821
370	450
384	1901
385	530
