Mass Spectrum: Racemorphan
Formula: C17 H23 N O
CAS: 297-90-5
Molecular weight: 257
Origin: HOME OFFICE, CENTRAL RES. EST., ALDERMASTON, BERKS., U.K.
m/z	RELATIVE INTENSITY
29	300
30	900
31	1800
32	300
41	1000
42	2800
43	400
44	1900
55	400
56	400
57	500
58	1500
59	9999
60	300
65	300
67	400
70	1400
77	600
79	1900
80	3200
81	1300
82	2700
91	1100
94	700
95	300
96	300
107	400
115	1500
116	300
124	500
127	700
128	1100
129	500
131	400
141	1100
142	400
143	300
144	800
145	700
146	300
147	400
148	600
150	3400
151	500
157	1200
200	2200
201	200
212	200
214	700
228	700
242	500
256	6000
257	7500
258	1000
