Mass Spectrum: Benzaldehyde, 3-bromo-4-hydroxy-
Formula: C7 H5 Br O2
CAS: 2973-78-6
Molecular weight: 200
m/z	RELATIVE INTENSITY
14	60
25	30
26	60
27	130
28	101
29	320
30	10
36	50
37	310
38	470
39	801
40	60
46	200
48	10
49	100
50	240
51	150
52	20
60	80
61	370
62	711
63	1601
64	891
65	681
66	170
67	190
68	80
69	510
70	70
71	50
72	40
73	170
74	2282
75	250
76	50
77	110
78	30
79	100
80	30
81	230
82	50
83	170
84	20
85	40
86	440
87	721
88	30
89	20
90	60
91	490
92	1281
93	260
94	60
95	160
96	40
97	450
98	60
99	20
100	20
101	80
102	100
103	20
104	30
105	20
106	50
107	60
108	60
109	20
110	50
111	40
112	60
113	10
116	30
117	50
118	280
119	60
120	320
121	80
122	220
123	210
124	60
125	30
126	520
127	60
128	10
129	30
130	10
131	30
132	40
133	40
134	40
135	20
136	20
137	10
142	751
143	100
144	1011
145	90
146	971
147	60
148	40
149	10
150	40
156	10
162	70
163	20
165	110
166	20
167	40
169	30
170	100
171	1742
172	320
173	1712
174	250
175	40
178	20
179	10
180	60
191	10
199	9579
200	6456
201	9999
202	6296
203	520
204	60
