Mass Spectrum: cis-10-Heptadecenoic acid
Formula: C17 H32 O2
CAS: 29743-97-3
Molecular weight: 268
Origin: NIST Mass Spectrometry Data Center
m/z	RELATIVE INTENSITY
15	10
26	30
27	631
28	170
29	1291
30	40
31	60
39	1041
40	210
41	5465
42	1151
43	3543
44	130
45	721
46	20
47	10
50	20
51	80
52	70
53	901
54	2182
55	9999
56	2863
57	2132
58	150
59	340
60	1541
61	130
62	10
63	20
64	10
65	320
66	220
67	3033
68	1942
69	6956
70	2752
71	1181
72	80
73	1491
74	130
75	20
77	280
78	90
79	821
80	380
81	2572
82	2242
83	5645
84	3363
85	871
86	110
87	591
88	70
89	20
91	280
92	70
93	400
94	440
95	2032
96	2923
97	4894
98	2803
99	540
100	520
101	761
102	100
103	20
104	10
105	170
106	70
107	320
108	340
109	1161
110	1792
111	2252
112	1011
113	440
114	991
115	460
116	100
117	40
118	30
119	340
120	120
121	360
122	240
123	1181
124	1041
125	1101
126	460
127	661
128	200
129	320
130	70
131	30
132	20
133	340
134	300
135	320
136	180
137	781
138	721
139	520
140	210
141	190
142	50
143	110
144	30
145	10
146	10
147	260
148	260
149	230
150	140
151	561
152	530
153	290
154	100
155	160
156	40
157	60
158	30
159	10
161	200
162	90
163	120
164	80
165	360
166	470
167	190
168	70
169	100
170	30
171	50
172	70
173	10
174	10
175	130
176	40
177	50
178	40
179	240
180	150
181	90
182	30
183	30
184	10
185	60
186	40
187	10
189	70
190	20
191	20
192	20
193	180
194	100
195	50
196	30
197	20
198	10
199	20
200	20
201	10
203	30
204	20
206	380
207	270
208	410
209	90
210	10
211	10
212	10
213	10
217	10
219	10
220	10
221	170
222	90
223	20
225	40
226	10
231	10
232	80
233	20
235	30
236	10
239	10
240	10
249	10
250	1021
251	230
252	20
264	20
265	10
266	10
268	250
269	50
270	10
