Mass Spectrum: Butane, 1-(methylsulfinyl)-
Formula: C5 H12 O S
CAS: 2976-98-9
Molecular weight: 120
m/z	RELATIVE INTENSITY
26	500
27	2702
28	2002
29	9999
30	300
31	200
32	200
33	100
34	200
35	100
37	100
38	200
39	1802
40	300
41	7807
42	400
43	200
44	400
45	801
46	500
47	1201
48	500
49	300
50	200
51	200
52	100
53	300
54	100
55	1301
56	1201
57	3203
58	200
59	100
61	801
62	100
63	1301
64	7607
65	400
66	500
75	100
76	200
78	500
103	1001
104	300
105	100
120	901
121	100
122	100
