Mass Spectrum: Methyl 4-nitrophenyl sulfone
Formula: C7 H7 N O4 S
CAS: 2976-30-9
Molecular weight: 201
Origin: J. Little, Eastman chemical company.
m/z	RELATIVE INTENSITY
30	901
38	380
39	611
45	320
50	3103
51	661
52	240
62	340
63	2722
64	1131
65	681
74	1321
75	3243
76	3013
77	641
79	891
81	390
90	410
92	2272
93	340
95	200
96	230
99	220
108	190
109	971
110	190
111	1381
112	200
113	450
122	5545
123	851
124	190
125	591
127	290
139	9999
140	871
141	220
155	500
186	3433
187	280
188	200
201	4524
202	520
203	370
204	50
