Mass Spectrum: Gorgost-5-en-3-ol, (3.beta.)-
Formula: C30 H50 O
CAS: 29782-65-8
Molecular weight: 426
Origin: CARL DJERASSI DEPT OF CHEM STANFORD UNIV STANFORD CALIF 94305
m/z	RELATIVE INTENSITY
41	6000
42	300
43	8500
44	300
50	200
51	100
52	100
53	1100
54	300
55	9999
56	700
57	2200
65	400
66	200
67	4500
68	800
69	7200
70	1300
71	2800
72	200
77	1400
78	400
79	3800
80	600
81	4800
82	1800
83	6800
84	500
85	200
91	3800
92	800
93	3900
94	1000
95	4100
96	600
97	2700
98	2300
99	200
103	200
104	200
105	4200
106	900
107	3900
108	900
109	2800
110	500
111	600
112	100
115	400
116	200
117	1300
118	500
119	2900
120	1300
121	2200
122	400
123	1100
124	300
125	200
128	400
129	800
130	500
131	1900
132	600
133	4000
134	800
135	1600
136	300
137	600
138	100
139	100
141	200
142	200
143	1500
144	700
145	3000
146	700
147	400
148	1100
149	100
150	1400
151	100
155	200
156	200
157	1200
158	900
159	3300
160	800
161	1500
162	400
163	1100
164	200
165	200
169	300
170	100
171	800
172	200
173	1300
174	300
175	800
176	300
177	600
178	200
183	300
184	100
185	800
186	300
187	1000
188	200
189	600
190	100
191	200
197	400
198	100
199	900
200	200
201	500
202	200
203	500
204	100
205	100
211	800
212	200
213	2000
214	500
215	1400
216	300
217	500
218	100
225	300
226	100
227	600
228	500
229	1400
230	400
231	800
232	200
233	100
239	400
240	200
241	600
242	200
243	300
244	200
245	200
246	300
253	600
254	300
255	2200
256	700
257	500
258	500
259	200
267	400
268	200
269	200
270	900
271	3300
272	2400
273	900
274	200
281	1900
282	700
283	1900
284	500
285	500
286	100
287	200
295	400
296	800
297	200
299	1400
300	1400
301	1000
302	300
310	200
313	300
314	3500
315	900
316	400
328	400
329	200
337	1200
338	400
355	700
356	300
365	300
383	200
393	300
408	300
411	400
412	200
426	1600
427	600
428	200
