Mass Spectrum: Cyclohexane, 1-(1,5-dimethylhexyl)-4-methyl-
Formula: C15 H30
CAS: 29799-19-7
Molecular weight: 210
Origin: J. MINYARD STATE COLLEGE, MISSISSIPPI, USA
m/z	RELATIVE INTENSITY
39	200
41	2700
42	300
43	1700
53	300
54	400
55	8200
56	2200
57	3400
65	100
66	100
67	1000
68	600
69	4600
70	800
71	1200
79	100
80	100
81	3400
82	300
83	1500
95	600
96	8300
97	9999
98	600
111	200
112	1300
113	500
123	600
124	1600
125	2200
126	200
137	100
139	100
208	100
210	900
211	100
