Mass Spectrum: Butane, 1,2:3,4-diepoxy-, (.+/-.)-
Formula: C4 H6 O2
CAS: 298-18-0
Molecular weight: 86
Origin: NIST Mass Spectrometry Data Center, 1998.
m/z	RELATIVE INTENSITY
12	10
13	30
14	170
15	370
16	10
24	10
25	120
26	1550
27	2920
28	2940
29	4360
30	1860
31	2520
32	50
33	10
36	30
37	260
38	440
39	1040
40	190
41	250
42	750
43	750
44	40
45	10
48	10
49	30
50	80
51	40
52	30
53	170
54	190
55	9999
56	760
57	1540
58	320
59	50
60	20
68	30
69	40
70	10
71	90
84	10
85	140
86	40
