Mass Spectrum: Phosphorodithioic acid, O,O-diethyl ester
Formula: C4 H11 O2 P S2
CAS: 298-06-6
Molecular weight: 186
Origin: Japan AIST/NIMC Database- Spectrum MS-NW-4196
m/z	RELATIVE INTENSITY
13	20
14	99
15	429
16	20
17	30
18	109
19	10
25	40
26	429
27	2859
28	829
29	4589
30	139
31	2119
32	309
33	269
34	599
35	179
36	50
38	10
39	20
40	20
41	30
42	109
43	679
44	119
45	2299
46	449
47	1469
48	189
49	80
50	10
51	10
55	10
56	10
57	30
58	90
59	209
60	379
61	539
62	619
63	739
64	259
65	3799
66	90
67	30
69	10
73	10
75	40
76	119
77	80
78	10
79	249
80	679
81	1709
82	189
83	109
84	10
89	10
90	10
91	109
92	80
93	1339
94	70
95	699
96	349
97	9999
98	209
99	559
100	20
101	10
102	10
106	10
107	50
108	239
109	3919
110	269
111	239
112	589
113	1609
114	2109
115	309
116	189
117	20
118	10
120	10
121	1479
122	80
123	30
124	149
125	3049
126	209
127	199
128	30
129	989
130	1179
131	579
132	119
133	50
134	10
135	10
137	359
138	40
139	40
140	60
141	819
142	3879
143	289
144	369
145	20
146	20
151	20
152	10
153	2009
154	419
155	129
156	99
157	159
158	929
159	199
160	99
161	30
166	10
169	99
170	219
171	40
172	30
182	10
183	10
184	20
185	50
186	7539
187	509
188	729
189	50
190	40
191	20
