Mass Spectrum: Bis(2-ethylhexyl)hydrogen phosphate
Formula: C16 H35 O4 P
CAS: 298-07-7
Molecular weight: 322
Origin: Japan AIST/NIMC Database- Spectrum MS-NW-5325
m/z	RELATIVE INTENSITY
15	10
18	10
26	10
27	279
28	60
29	619
30	10
31	60
39	219
40	40
41	1369
42	309
43	979
44	40
45	40
51	20
52	10
53	119
54	119
55	1499
56	569
57	1949
58	90
65	20
66	10
67	129
68	80
69	669
70	1329
71	1399
72	80
77	20
79	20
81	99
82	199
83	759
84	299
85	20
95	30
97	80
98	10
99	9999
100	20
101	80
110	20
111	50
112	1609
113	1609
114	139
125	20
137	10
139	10
149	30
152	10
153	50
167	20
181	50
211	239
212	20
293	10
