Mass Spectrum: Acetic acid, oxo-
Formula: C2 H2 O3
CAS: 298-12-4
Molecular weight: 74
Origin: Japan AIST/NIMC Database- Spectrum MS-NW-6289
m/z	RELATIVE INTENSITY
12	239
13	139
14	50
15	10
16	509
17	999
18	3209
19	20
24	20
25	30
26	20
27	20
28	5149
29	7209
30	4499
31	179
32	50
36	20
38	10
39	10
40	80
41	119
42	30
43	50
44	9999
45	3779
46	1659
47	50
48	10
50	20
51	40
55	10
56	489
57	30
58	30
73	20
74	119
75	10
