Mass Spectrum: Undecane, 4-methyl-
Formula: C12 H26
CAS: 2980-69-0
Molecular weight: 170
m/z	RELATIVE INTENSITY
26	170
27	3193
28	500
29	3974
30	90
31	10
37	20
38	40
39	1491
40	300
41	4964
42	1601
43	9999
44	330
45	10
50	20
51	70
52	40
53	340
54	170
55	2152
56	1091
57	5095
58	220
59	10
63	10
65	40
66	20
67	140
68	90
69	500
70	3023
71	6906
72	370
73	10
77	30
78	10
79	30
80	10
81	40
82	70
83	220
84	370
85	2803
86	180
87	10
91	10
93	10
94	10
95	20
96	40
97	230
98	350
99	190
100	10
105	10
109	10
110	10
111	30
112	90
113	70
114	10
119	10
123	10
124	10
125	20
126	1181
127	991
128	90
129	10
140	110
141	120
142	10
154	30
155	110
156	20
170	130
171	20
