Mass Spectrum: 2-Cyclohexen-1-ol, 1-methyl-4-(1-methylethyl)-, trans-
Formula: C10 H18 O
CAS: 29803-81-4
Molecular weight: 154
Origin: N.W. Davies, Centr. Sci. Lab., Univ. Tasmania, Hobart, Australia
m/z	RELATIVE INTENSITY
27	1870
29	460
30	100
31	60
33	80
36	50
38	130
39	1880
41	3340
42	160
43	9999
45	430
50	220
51	660
52	220
53	1100
54	250
55	2110
56	240
57	380
58	800
59	200
62	100
63	280
65	840
66	440
67	1650
68	460
69	2990
70	330
71	3210
72	130
77	2020
78	460
79	3310
80	560
81	2370
82	340
83	1720
84	1840
85	240
86	370
91	1630
92	1070
93	4600
94	2910
95	1470
96	770
97	930
98	240
99	100
101	70
105	240
106	120
107	590
108	290
109	300
110	300
111	3190
112	350
113	60
117	80
119	280
120	100
121	2490
122	320
123	100
124	60
125	260
126	260
134	100
135	70
136	1490
137	310
139	3540
140	380
154	730
155	100
