Mass Spectrum: Disparlure
Formula: C19 H38 O
CAS: 29804-22-6
Molecular weight: 282
Origin: NIST Mass Spectrometry Data Center, 1998.
m/z	RELATIVE INTENSITY
15	20
26	20
27	1050
28	230
29	2390
30	60
31	90
37	10
39	1080
40	250
41	7399
42	1470
43	8169
44	520
45	180
50	10
51	50
52	40
53	590
54	860
55	8079
56	4790
57	7109
58	580
59	180
60	10
63	10
65	130
66	380
67	2450
68	3400
69	9999
70	2670
71	2740
72	230
73	50
77	100
78	20
79	330
80	150
81	1770
82	4840
83	4310
84	1510
85	1520
86	120
87	20
91	60
92	10
93	120
94	70
95	2330
96	1250
97	4390
98	600
99	300
100	90
101	10
105	10
107	50
109	1200
110	1950
111	2740
112	500
113	400
114	50
115	10
121	30
122	20
123	590
124	370
125	170
126	140
127	140
128	90
129	110
130	10
131	10
135	10
137	90
138	70
139	30
140	10
141	780
142	110
143	30
151	40
152	340
153	100
154	60
155	60
156	20
157	30
165	80
166	30
167	10
168	10
169	180
170	70
171	80
172	10
179	10
180	20
181	10
183	1450
184	210
185	40
193	10
197	30
198	20
199	10
208	10
211	150
212	20
225	70
226	10
239	30
240	10
249	10
253	10
264	10
266	20
267	30
282	30
283	10
