Mass Spectrum: Butanoic acid, 2-methyl-, octyl ester
Formula: C13 H26 O2
CAS: 29811-50-5
Molecular weight: 214
Origin: NIST Mass Spectrometry Data Center, 2010
m/z	RELATIVE INTENSITY
15	10
26	30
27	510
28	220
29	1391
30	40
31	50
39	500
40	120
41	2833
42	781
43	2112
44	80
45	70
47	30
51	20
53	160
54	190
55	1712
56	2142
57	6746
58	330
59	40
60	10
61	20
65	20
67	200
68	350
69	1431
70	2672
71	1621
72	110
73	110
74	1281
75	370
76	20
81	60
82	601
83	2132
84	1862
85	3553
86	200
87	530
88	30
95	10
97	300
98	30
100	20
101	50
102	490
103	9999
104	561
105	50
109	10
110	20
111	110
112	2432
113	220
114	10
115	80
116	10
127	100
129	100
130	30
140	10
142	10
143	60
157	410
158	80
159	10
184	10
186	200
214	10
