Mass Spectrum: Hydroxylamine, O-decyl-
Formula: C10 H23 N O
CAS: 29812-79-1
Molecular weight: 173
Origin: B.WEBSTER ICI PHARMACEUTICALS DIVISION, ALDERLEY PARK CHESHIRE
m/z	RELATIVE INTENSITY
38	1140
39	860
41	4050
42	1570
43	9999
44	760
45	240
46	330
53	240
54	380
55	2860
56	1950
57	7140
58	380
68	710
69	1520
70	1810
71	3810
72	240
81	240
82	570
83	1000
84	710
85	2860
86	240
95	170
96	190
97	500
98	240
99	330
110	150
111	190
112	480
128	50
140	190
141	120
173	50
