Mass Spectrum: N-(1-Cyclohexen-1-yl)piperidine
Formula: C11 H19 N
CAS: 2981-10-4
Molecular weight: 165
Origin: NIST Mass Spectrometry Data Center
m/z	RELATIVE INTENSITY
14	10
15	400
17	10
18	220
26	290
27	2923
28	2432
29	2012
30	781
31	10
32	10
37	40
39	3453
40	791
41	8127
42	2582
43	390
44	270
50	160
51	641
52	641
53	2692
54	4124
55	2913
56	1391
57	280
58	100
61	40
62	30
63	90
64	70
65	591
66	540
67	2092
68	1441
69	1852
70	440
71	50
72	40
77	1201
78	320
79	1702
80	1521
81	2082
82	1621
83	841
84	1301
85	110
91	300
92	120
93	450
94	2602
95	2372
96	1601
97	611
98	701
99	70
104	80
105	130
106	350
107	250
108	2803
109	841
110	510
111	300
117	40
118	70
119	50
120	270
122	4254
123	1381
124	871
125	70
132	50
134	290
136	5695
137	2132
138	200
148	210
150	9999
151	1091
152	40
160	80
161	40
162	200
164	6316
165	7957
166	891
167	40
