Mass Spectrum: Benzene, (methylenecyclopropyl)-
Formula: C10 H10
CAS: 29817-09-2
Molecular weight: 130
Origin: D.HENNEBERG, MAX-PLANCK INSTITUTE, MULHEIM, WEST GERMANY
m/z	RELATIVE INTENSITY
27	350
28	132
29	32
31	57
32	14
35	4
36	3
37	7
38	66
39	921
40	100
41	129
42	9
43	58
44	12
45	23
48	3
49	9
50	314
51	1350
52	474
53	153
54	16
55	23
56	14
57	26
58	7
59	32
61	23
62	117
63	894
64	608
65	894
66	76
67	17
68	6
69	19
70	8
71	16
73	3
74	80
75	236
76	423
77	1353
78	849
79	82
81	25
82	7
83	11
84	5
85	10
86	15
87	60
88	60
89	813
90	137
91	1201
92	106
93	9
95	4
96	5
98	5
99	9
100	10
101	176
102	1009
103	721
104	462
105	50
106	6
107	4
108	10
109	3
111	5
112	5
113	59
114	89
115	6384
116	628
117	130
118	34
119	5
121	3
125	64
126	268
127	2547
128	5861
129	9999
130	7267
131	756
132	81
