Mass Spectrum: 2-Methoxyestradiol, 2TMS derivative
Formula: C25 H42 O3 Si2
CAS: 29825-47-6
Molecular weight: 446
Origin: NIST Mass Spectrometry Data Center
m/z	RELATIVE INTENSITY
15	10
27	20
29	60
30	10
31	20
39	40
40	10
41	230
42	20
43	190
44	110
45	701
46	50
47	120
48	10
49	10
51	10
52	10
53	100
54	20
55	380
56	30
57	120
58	80
59	701
60	70
61	180
62	10
63	10
65	50
66	20
67	320
68	40
69	90
70	20
71	40
73	7907
74	711
75	1752
76	120
77	250
78	40
79	330
80	40
81	350
82	30
83	60
84	10
85	100
86	10
87	40
88	20
89	370
90	40
91	380
92	40
93	370
94	50
95	220
96	20
97	40
98	10
99	60
101	270
102	50
103	310
104	50
105	210
106	30
107	270
108	60
109	140
110	20
111	20
112	10
113	30
115	751
116	160
117	190
118	30
119	130
120	30
121	90
122	40
123	30
124	10
125	10
126	20
127	120
128	320
129	1742
130	270
131	330
132	50
133	120
134	40
135	100
136	40
137	60
138	10
139	30
140	20
141	260
142	100
143	170
144	50
145	150
146	30
147	110
148	30
149	110
150	30
151	60
152	60
153	100
154	60
155	150
156	50
157	140
158	40
159	240
160	50
161	140
162	50
163	80
164	30
165	120
166	90
167	120
168	50
169	130
170	50
171	90
172	30
173	100
174	90
175	100
176	30
177	170
178	80
179	931
180	210
181	140
182	60
183	80
184	30
185	100
186	120
187	150
188	50
189	190
190	60
191	80
192	440
193	300
194	80
195	110
196	30
197	60
198	20
199	120
200	70
201	190
202	70
203	360
204	561
205	691
206	200
207	420
208	110
209	1381
210	270
211	110
212	30
213	60
214	40
215	130
216	510
217	741
218	941
219	320
220	100
221	80
222	140
223	240
224	60
225	50
226	20
227	50
228	30
229	540
230	460
231	611
232	601
233	220
234	90
235	761
236	180
237	70
238	20
239	30
240	30
241	80
242	100
243	230
244	320
245	220
246	100
247	310
248	510
249	190
250	50
251	40
252	10
253	80
254	70
255	120
256	120
257	180
258	120
259	460
260	220
261	911
262	500
263	120
264	30
265	10
266	20
267	70
268	70
269	120
270	100
271	110
272	110
273	170
274	380
275	160
276	40
277	30
278	10
279	10
280	10
281	50
282	50
283	120
284	120
285	260
286	180
287	310
288	140
289	60
290	20
291	10
293	10
294	10
295	20
296	20
297	70
298	60
299	210
300	150
301	180
302	140
303	30
304	10
305	10
307	10
309	30
310	20
311	40
312	30
313	320
314	210
315	1531
316	490
317	240
318	50
319	20
320	10
323	10
324	30
325	530
326	310
327	210
328	170
329	70
330	100
331	50
332	10
333	10
339	20
340	20
341	140
342	100
343	50
344	370
345	110
346	30
347	10
349	20
350	10
353	10
354	10
355	330
356	250
357	90
358	30
359	90
360	20
361	10
371	20
372	100
373	40
374	1531
375	450
376	110
377	20
387	10
401	20
402	10
403	20
404	10
413	10
416	851
417	300
418	120
419	20
420	10
429	10
431	611
432	230
433	80
434	20
435	10
444	50
446	9999
447	3783
448	1371
449	300
450	60
451	10
