Mass Spectrum: 1-Pentadecene, 2-methyl-
Formula: C16 H32
CAS: 29833-69-0
Molecular weight: 224
Origin: D. LUKE UNILEVER RESEARCH LAB., PORT SUNLIGHT
m/z	RELATIVE INTENSITY
15	118
17	132
18	500
26	103
27	1353
28	809
29	3088
30	118
31	191
32	88
39	1147
40	279
41	6324
42	1279
43	6765
44	309
45	147
53	500
54	573
55	5540
56	9999
57	7352
58	1456
59	294
60	147
65	88
66	88
67	870
68	824
69	4527
70	2074
71	2043
72	165
73	180
74	60
79	135
81	480
82	750
83	2176
84	1245
85	1095
86	90
95	270
96	375
97	1521
98	540
99	210
109	135
110	165
111	780
113	120
123	60
124	90
125	300
126	165
127	75
135	210
137	210
138	60
139	120
140	150
141	60
149	45
151	40
152	31
153	75
154	60
168	165
182	49
196	144
209	63
224	207
