Mass Spectrum: 2-Ethyl-n-butyric acid ethyl ester
Formula: C8 H16 O2
CAS: 2983-38-2
Molecular weight: 144
Origin: Japan AIST/NIMC Database- Spectrum MS-NW- 975
m/z	RELATIVE INTENSITY
14	10
15	129
17	10
18	30
26	169
27	1989
28	349
29	4759
30	99
31	149
32	40
37	10
38	50
39	949
40	139
41	2029
42	659
43	9999
44	339
45	779
46	20
47	80
50	30
51	50
52	30
53	149
54	50
55	1529
56	119
57	119
58	10
59	169
60	90
61	40
65	10
67	40
68	40
69	329
70	719
71	6719
72	389
73	1609
74	129
75	50
77	20
78	80
83	90
85	30
86	30
87	1509
88	1329
89	169
97	20
98	40
99	2649
100	169
101	2449
102	239
103	20
115	1139
116	5009
117	519
118	40
129	229
130	10
144	60
145	10
