Mass Spectrum: cis-.alpha.-Bisabolene
Formula: C15 H24
CAS: 29837-07-8
Molecular weight: 204
Origin: Flavors and Fragrances (Eds.B.Lawrence ET AL.),1986
m/z	RELATIVE INTENSITY
27	2903
28	751
29	2412
30	80
39	3423
40	1171
41	7477
42	671
43	1481
50	70
51	841
52	530
53	2722
54	400
55	2362
56	300
57	210
58	90
62	70
63	230
65	1231
66	500
67	3443
68	1041
69	2112
70	200
71	90
74	90
75	90
77	3033
78	871
79	3443
80	1862
81	1231
82	621
83	130
84	90
88	100
89	130
91	3483
92	2332
93	9999
94	2332
95	1271
96	190
97	90
102	100
103	290
105	2272
106	951
107	2112
108	500
109	1852
110	260
115	360
116	160
117	350
119	1822
120	621
121	1972
122	520
123	160
127	120
128	190
129	160
130	110
131	180
133	1251
134	470
135	420
136	280
141	90
147	691
148	460
149	250
150	110
161	891
162	230
163	110
175	220
176	230
177	110
189	480
190	100
204	1501
205	260
206	100
