Mass Spectrum: 1,3-Butadiene, 1,4-dichloro-
Formula: C4 H4 Cl2
CAS: 2984-42-1
Molecular weight: 122
Origin: D.HENNEBERG, MAX-PLANCK INSTITUTE, MULHEIM, WEST GERMANY
m/z	RELATIVE INTENSITY
26	1483
27	733
28	39
29	15
34	15
35	83
36	242
37	137
38	261
39	354
40	27
41	12
42	14
43	135
44	56
47	70
48	108
49	444
50	2305
51	6722
52	498
53	21
59	7
60	398
61	1173
62	601
63	347
64	124
72	25
73	704
74	32
75	264
76	15
77	17
83	68
84	144
85	511
86	515
87	9999
88	638
89	3067
90	127
91	12
95	20
96	239
97	22
98	140
100	26
107	22
109	16
121	23
122	4444
123	208
124	2787
125	129
126	508
127	22
