Mass Spectrum: 2-Methyl-5-nonanol
Formula: C10 H22 O
CAS: 29843-62-7
Molecular weight: 158
Origin: NIST Mass Spectrometry Data Center, 1990.
m/z	RELATIVE INTENSITY
15	183
27	2105
28	1230
29	3305
30	197
31	739
32	144
39	1568
41	6568
42	807
43	3644
44	827
45	943
53	430
55	5612
56	1661
57	3654
58	1289
59	364
67	340
69	9999
70	816
71	370
72	161
81	366
83	9522
84	850
85	447
87	4781
88	291
99	134
100	358
101	2168
102	174
112	192
125	188
140	204
