Mass Spectrum: Oxirane, hexyl-
Formula: C8 H16 O
CAS: 2984-50-1
Molecular weight: 128
Origin: NIST Mass Spectrometry Data Center, 1990.
m/z	RELATIVE INTENSITY
15	157
26	333
27	2704
28	646
29	3065
30	178
31	996
32	20
39	3746
40	920
41	7898
42	3297
43	3757
44	953
45	646
51	384
52	200
53	1040
54	1574
55	6463
56	3777
57	2926
58	3881
59	429
65	262
66	277
67	2329
68	2756
69	2749
70	2336
71	9999
72	760
77	178
79	418
81	3015
82	751
83	350
84	570
85	1685
86	185
95	446
96	289
97	176
98	111
99	462
100	194
110	247
