Mass Spectrum: Perhydroanthracene, (4a.alpha., 8a.beta., 9a.alpha., 10a.beta.)-
Formula: C14 H24
CAS: 29863-91-0
Molecular weight: 192
m/z	RELATIVE INTENSITY
53	1401
54	1301
55	4403
56	720
57	100
67	6706
68	1401
69	2201
77	2101
79	2502
80	910
81	3703
82	930
83	970
91	840
93	2502
94	2302
95	3703
96	4103
97	2602
107	870
108	920
109	1000
110	1101
111	630
121	3202
122	1601
123	2101
135	9999
136	1801
149	520
150	1901
163	700
164	540
177	670
192	7306
193	1121
194	80
