Mass Spectrum: 3,4-Dimethoxy-5-hydroxybenzaldehyde
Formula: C9 H10 O4
CAS: 29865-90-5
Molecular weight: 182
Origin: Chuck Anderson, Aldrich Chemical Co.
m/z	RELATIVE INTENSITY
14	61
15	249
18	7
25	29
26	105
27	281
28	186
29	776
30	55
31	161
32	6
33	24
34	19
36	31
37	263
38	829
39	2552
40	550
41	226
42	172
43	305
44	24
45	69
49	139
50	691
51	1053
52	335
53	1276
54	166
55	632
56	51
57	39
59	44
60	4
61	162
62	316
63	382
64	186
65	1882
66	755
67	1499
68	1042
69	308
70	45
71	202
72	19
73	16
74	48
75	52
76	43
77	340
78	226
79	840
80	166
81	478
82	202
83	160
84	22
85	37
90	42
91	103
92	236
93	1584
94	178
95	654
96	1744
97	142
98	20
104	15
105	11
106	47
107	276
108	172
109	158
110	297
111	1499
112	106
119	92
120	69
121	289
122	56
123	212
124	111
125	156
126	24
134	19
135	303
136	132
137	137
138	244
139	1467
140	124
141	10
151	47
152	29
153	161
154	24
165	134
167	3957
168	332
169	47
181	1393
182	9999
183	946
184	121
