Mass Spectrum: Cyclopentane, 1,2-dimethoxy-, trans-
Formula: C7 H14 O2
CAS: 29887-56-7
Molecular weight: 130
m/z	RELATIVE INTENSITY
41	5505
42	2002
43	2002
45	3603
46	300
47	200
51	100
52	100
53	500
54	200
55	2002
56	300
57	2502
58	3103
59	601
60	200
65	300
66	601
67	5005
68	500
69	500
70	100
71	8708
72	2602
73	601
74	300
75	400
77	100
78	100
79	100
83	1601
84	500
85	701
87	300
88	100
89	200
91	200
96	801
97	9208
98	9999
99	801
100	100
101	400
102	100
130	1702
131	100
