Mass Spectrum: Cyclopentane, 1,2,3,4,5-pentamethoxy-, stereoisomer
Formula: C10 H20 O5
CAS: 29887-59-0
Molecular weight: 220
m/z	RELATIVE INTENSITY
41	300
42	100
43	200
45	1201
47	100
53	100
55	100
56	100
57	100
58	100
59	200
69	100
71	100
73	300
74	200
75	901
85	200
86	100
88	500
89	100
95	100
101	9999
102	601
103	100
114	300
117	100
131	300
157	200
220	200
