Mass Spectrum: Ronnel
Formula: C8 H8 Cl3 O3 P S
CAS: 299-84-3
Molecular weight: 320
m/z	RELATIVE INTENSITY
15	2253
29	563
31	563
45	563
47	3239
61	507
62	1493
63	2281
69	197
73	507
74	760
79	3098
83	253
85	648
93	3324
94	676
97	1549
99	676
100	225
107	789
109	3831
111	507
125	7718
166	1183
169	1408
269	620
271	535
285	9999
287	8056
289	2479
320	789
322	789
324	225
