Mass Spectrum: 2,5-Difluorobenzoic acid
Formula: C7 H4 F2 O2
CAS: 2991-28-8
Molecular weight: 158
Origin: Japan AIST/NIMC Database- Spectrum MS-IW-5
m/z	RELATIVE INTENSITY
17	10
18	30
20	10
26	10
28	99
29	10
31	209
36	10
37	129
38	70
39	60
44	60
45	299
47	10
49	60
50	359
51	90
53	30
55	70
56	149
57	329
58	10
60	20
61	239
62	419
63	2169
64	149
65	90
68	329
69	189
70	329
71	40
72	10
73	70
74	279
75	179
76	10
77	10
79	40
80	60
81	299
82	249
83	99
86	60
87	109
88	249
89	10
91	10
92	139
93	329
94	769
95	70
99	10
100	10
101	99
102	50
109	10
110	279
111	90
112	299
113	4659
114	659
115	30
123	10
128	10
129	10
130	149
131	10
137	10
138	329
139	99
140	50
141	9999
142	779
143	50
157	20
158	8839
159	679
160	60
