Mass Spectrum: Propyl Ethylphosphonofluoridate
Formula: C5 H12 F O2 P
CAS: 2992-95-2
Molecular weight: 154
Origin: VERIFIN - Methodology B1-1979
m/z	RELATIVE INTENSITY
26	50
27	300
28	200
29	500
31	100
39	300
40	50
41	600
42	400
43	300
47	50
59	60
65	100
67	400
68	50
84	600
85	400
93	100
95	1000
96	500
97	80
98	100
111	300
112	800
113	9999
114	200
125	1301
126	70
127	50
139	200
153	20
