Mass Spectrum: 4H-Pyran-4-one, tetrahydro-
Formula: C5 H8 O2
CAS: 29943-42-8
Molecular weight: 100
Origin: Japan AIST/NIMC Database- Spectrum MS-IW- 921
m/z	RELATIVE INTENSITY
13	20
14	199
15	509
16	20
17	20
18	70
25	30
26	429
27	1409
28	5999
29	2009
30	1719
31	869
32	10
35	40
37	40
38	60
39	279
40	209
41	419
42	9749
43	4019
44	709
45	549
46	20
49	20
50	60
51	60
52	30
53	99
54	109
55	1799
56	409
57	2559
58	3079
59	159
60	50
61	60
67	10
68	10
69	179
70	689
71	559
72	4649
73	2759
74	109
75	20
81	40
82	109
83	50
84	70
85	60
86	10
98	50
99	229
100	9999
101	689
102	60
