Mass Spectrum: 1,5,7-Octatrien-3-ol, 3,7-dimethyl-
Formula: C10 H16 O
CAS: 29957-43-5
Molecular weight: 152
Origin: N.W. Davies, Centr. Sci. Lab., Univ. Tasmania, Hobart, Australia
m/z	RELATIVE INTENSITY
26	100
27	1740
29	460
31	190
39	1380
40	330
41	2180
42	230
43	4970
44	240
45	150
50	80
51	250
52	150
53	960
54	260
55	1370
56	100
57	90
65	230
66	180
67	3030
68	200
69	130
71	9999
72	470
77	270
79	410
80	100
81	700
82	6640
83	450
91	130
93	100
