Mass Spectrum: Ethylene glycol bis(3-aminopropyl) ether
Formula: C8 H20 N2 O2
CAS: 2997-01-5
Molecular weight: 176
Origin: Japan AIST/NIMC Database- Spectrum MS-NW-8607
m/z	RELATIVE INTENSITY
15	149
16	20
17	70
18	809
19	50
26	50
27	339
28	1179
29	559
30	9999
31	639
32	10
33	10
38	10
39	179
40	30
41	1459
42	549
43	999
44	1089
45	3169
46	90
47	10
49	10
50	10
51	30
52	20
53	10
54	80
55	109
56	2589
57	2639
58	2939
59	3439
60	149
61	20
62	10
63	30
65	10
68	10
69	20
70	149
71	60
72	399
73	109
74	1209
75	1579
76	789
77	189
78	30
79	40
81	10
83	20
84	60
85	20
86	609
87	50
88	159
89	1319
90	70
91	40
95	40
96	10
97	10
98	20
99	20
100	50
101	499
102	259
103	969
104	60
105	60
106	10
107	20
108	20
111	10
112	10
113	10
114	10
115	50
116	10
117	10
118	159
119	80
120	1749
121	109
122	10
123	30
124	10
125	20
126	10
127	40
132	10
133	189
134	10
138	20
139	20
140	20
141	20
143	40
144	50
146	70
147	99
148	10
154	199
155	20
156	60
160	30
161	20
175	20
176	10
177	109
178	10
