Mass Spectrum: 2-Propenoic acid, pentyl ester
Formula: C8 H14 O2
CAS: 2998-23-4
Molecular weight: 142
Origin: Vladimir Zaikin,TIPS RAS, Moscow, Russia
m/z	RELATIVE INTENSITY
39	600
40	190
41	1401
42	1951
43	1131
44	610
45	450
51	80
53	100
54	120
55	9999
56	530
57	220
58	30
69	700
70	3653
71	270
72	920
73	2712
74	60
82	60
83	120
85	380
86	60
87	40
113	60
114	10
