Mass Spectrum: 2-Propenoic acid, 1-methylpropyl ester
Formula: C7 H12 O2
CAS: 2998-08-5
Molecular weight: 128
m/z	RELATIVE INTENSITY
14	20
15	130
18	40
25	20
26	340
27	2432
28	581
29	1291
30	40
31	110
32	10
36	20
37	50
38	90
39	581
40	90
41	1581
42	80
43	561
44	80
45	360
50	160
51	190
52	190
53	100
54	70
55	9999
56	2492
57	891
58	50
59	50
68	20
69	260
70	270
71	50
72	40
73	1261
74	90
79	50
82	50
83	50
84	50
85	70
86	20
87	70
95	10
99	881
100	80
101	50
102	10
110	30
111	10
113	280
114	10
128	10
