Mass Spectrum: Isoxazole, 3,5-dimethyl-
Formula: C5 H7 N O
CAS: 300-87-8
Molecular weight: 97
Origin: James Little,Eastman Chem.Co.,Kingsport,TN
m/z	RELATIVE INTENSITY
27	681
29	270
39	881
41	841
42	480
43	3193
52	390
54	4084
55	2232
57	360
60	260
65	230
68	280
69	520
71	180
73	290
81	230
82	8327
83	530
96	210
97	9999
98	701
99	90
