Mass Spectrum: Thiophene, 3,4-dichlorotetrahydro-, 1,1-dioxide
Formula: C4 H6 Cl2 O2 S
CAS: 3001-57-8
Molecular weight: 188
Origin: NIST Mass Spectrometry Data Center, 1998.
m/z	RELATIVE INTENSITY
14	10
15	10
25	30
26	440
27	2510
28	310
29	80
32	30
33	20
34	10
35	60
36	70
37	140
38	230
39	1620
40	90
41	790
42	40
43	40
44	20
45	230
46	70
47	60
48	430
49	540
50	790
51	1380
52	460
53	4110
54	690
55	40
56	10
57	70
58	90
59	50
60	90
61	490
62	9999
63	550
64	3760
65	180
66	20
68	20
69	60
70	10
71	20
72	20
73	140
74	10
75	2860
76	100
77	1010
78	110
79	40
80	10
81	10
82	10
83	80
84	70
85	90
86	30
87	200
88	2300
89	1750
90	820
91	550
92	30
93	10
95	10
96	40
97	10
98	30
99	10
100	10
103	10
104	10
105	80
106	10
107	30
109	70
110	50
111	50
112	20
113	10
117	10
121	10
123	360
124	200
125	230
126	190
127	40
128	50
139	30
141	10
153	30
155	10
188	140
189	10
190	90
191	10
192	20
