Mass Spectrum: 4,4'-Diiododiphenyl
Formula: C12 H8 I2
CAS: 3001-15-8
Molecular weight: 406
Origin: Japan AIST/NIMC Database- Spectrum MS-IW-5438
m/z	RELATIVE INTENSITY
38	10
39	40
50	169
51	129
52	20
61	20
62	80
63	329
64	10
73	10
74	159
75	289
76	1579
77	60
78	20
85	10
86	40
87	60
88	10
89	10
98	60
99	60
100	30
101	99
102	109
103	10
110	10
111	10
113	30
114	10
122	10
123	10
125	80
126	289
127	40
128	30
135	10
139	129
140	20
149	30
150	379
151	729
152	3249
153	419
154	20
203	819
228	20
278	30
279	159
280	60
406	9999
407	1319
408	80
