Mass Spectrum: 1,5-Diazabicyclo[4.3.0]non-5-ene
Formula: C7 H12 N2
CAS: 3001-72-7
Molecular weight: 124
Origin: Japan AIST/NIMC Database- Spectrum MS-NW-3072
m/z	RELATIVE INTENSITY
14	20
15	229
26	199
27	819
28	1039
29	189
30	549
32	10
37	40
38	109
39	909
40	369
41	3159
42	1749
43	719
44	169
47	80
48	10
49	10
50	10
51	50
52	159
53	139
54	769
55	1009
56	1199
57	139
58	20
60	10
61	70
64	40
65	40
66	129
67	619
68	3509
69	3009
70	589
71	119
73	60
75	30
76	10
77	80
78	20
79	80
80	209
81	579
82	329
83	389
84	159
85	369
86	30
92	20
93	60
94	359
95	969
96	1799
97	639
98	389
99	129
106	40
107	30
108	60
109	929
110	80
118	20
119	30
121	209
122	90
123	9999
124	8569
125	759
126	30
