Mass Spectrum: 2,4-Heptanedione, 6-methyl-
Formula: C8 H14 O2
CAS: 3002-23-1
Molecular weight: 142
Origin: Japan AIST/NIMC Database- Spectrum MS-NW-3312
m/z	RELATIVE INTENSITY
14	40
15	319
26	60
27	789
28	90
29	759
30	20
31	199
32	20
36	60
37	20
38	80
39	769
40	139
41	1619
42	349
43	6499
44	149
45	50
50	30
51	50
52	10
53	119
54	20
55	189
56	189
57	2449
58	1009
59	90
60	20
61	10
62	10
63	10
65	20
66	10
67	159
68	30
69	419
70	20
71	279
72	219
73	20
77	10
79	30
81	90
82	30
83	80
84	129
85	9999
86	469
87	60
97	20
98	10
99	20
100	2429
101	149
102	10
109	119
110	10
111	30
113	30
114	40
119	10
124	30
125	20
127	1419
128	119
129	10
142	1079
143	109
144	10
