Mass Spectrum: 2-Chloro-1,4-dibenzamido benzene
Formula: C20 H15 Cl N2 O2
CAS: 300360-38-7
Molecular weight: 350
Origin: A.A.Kutin, Moscow, Russia
m/z	RELATIVE INTENSITY
50	226
51	959
52	140
53	69
54	17
55	88
56	42
57	114
58	8
60	14
61	3
62	18
63	55
64	23
65	34
66	12
67	19
68	9
69	53
70	40
71	51
72	4
73	31
74	45
75	52
76	187
77	4981
78	365
79	63
80	11
81	24
82	11
83	29
84	22
85	24
86	16
87	35
88	11
89	17
90	11
91	66
92	19
93	7
94	8
96	25
97	22
98	11
99	8
100	9
101	7
102	9
104	145
105	9999
106	828
107	51
108	5
109	6
110	10
111	20
112	22
113	10
114	26
115	12
116	10
118	4
119	15
120	13
121	12
122	11
124	8
125	39
126	10
127	20
128	14
129	27
130	7
131	20
134	3
135	14
138	6
139	10
140	11
141	33
142	8
143	32
144	6
145	8
146	3
148	2
149	57
150	6
151	14
152	22
153	6
154	23
155	12
156	5
164	2
165	10
167	25
169	6
171	48
178	2
179	7
181	28
182	12
183	20
191	7
194	4
199	2
205	2
209	16
210	13
211	4
212	18
213	5
217	3
228	3
231	2
232	3
233	8
241	4
244	4
245	13
246	155
247	42
248	56
249	8
279	3
283	6
288	8
290	3
315	1105
316	235
317	26
350	1383
351	282
352	445
353	91
354	10
