Mass Spectrum: s-Triazine, 2-chloro-4-(isopropylamino)-6-(methylamino)-
Formula: C7 H12 Cl N5
CAS: 3004-71-5
Molecular weight: 201
Origin: P.A. Leclercq, Lab. Instrum. Anal., Eindhoven Univ. Technol., Netherlands
m/z	RELATIVE INTENSITY
41	3999
42	3699
43	4599
44	699
45	99
50	99
51	99
52	199
53	1099
54	499
55	3499
56	1499
57	9999
58	9100
59	299
60	99
61	199
62	1399
63	99
64	299
65	99
66	99
67	899
68	2999
69	2799
70	199
71	99
73	99
75	99
76	399
77	99
78	299
79	99
80	199
81	399
82	4199
83	1099
84	99
87	899
88	199
89	299
91	199
92	99
93	899
94	499
96	199
97	99
103	99
104	299
105	699
106	199
107	399
108	1399
109	499
110	99
116	99
117	199
118	1599
119	299
120	399
122	99
123	199
124	899
125	199
128	99
129	199
130	499
131	99
132	199
143	99
144	299
145	199
146	199
147	99
149	99
150	199
151	99
155	99
157	99
158	199
159	1299
160	199
161	399
162	99
172	99
173	99
184	99
186	2599
187	199
188	799
189	99
200	99
201	1099
202	199
203	299
204	99
