Mass Spectrum: N-(4-Bromo-phenyl)-4-ethyl-benzamide
Formula: C15 H14 Br N O
CAS: 300670-74-0
Molecular weight: 303
Origin: Zaikin V.G., TIPS RAS, Moscow, Russia
m/z	RELATIVE INTENSITY
27	70
28	30
39	80
50	50
51	90
52	30
53	30
63	140
64	80
65	110
75	30
76	60
77	561
78	130
79	571
80	30
89	140
90	220
91	220
92	50
102	40
103	420
104	190
105	691
106	70
118	30
119	30
131	40
132	50
133	9999
134	801
135	50
143	40
145	40
170	40
171	80
172	40
173	70
223	30
303	951
304	160
305	911
306	150
