Mass Spectrum: Ethyl .beta.-naphthoate
Formula: C13 H12 O2
CAS: 3007-91-8
Molecular weight: 200
Origin: NIST Mass Spectrometry Data Center, 1994
m/z	RELATIVE INTENSITY
14	54
15	281
16	40
18	61
26	273
27	1328
28	499
29	1398
30	122
38	87
39	281
42	50
43	217
44	46
45	126
50	609
51	1071
52	130
53	46
61	80
62	299
63	1516
65	47
74	948
75	1299
76	688
77	2077
85	34
86	173
87	330
88	75
89	96
98	238
99	224
100	276
101	925
102	195
113	37
114	68
115	314
116	49
122	41
125	246
126	2181
127	9056
128	1488
129	144
141	87
144	49
153	53
155	9999
156	1601
157	143
172	2654
173	320
182	114
183	61
185	557
186	71
200	4346
201	654
202	66
