Mass Spectrum: Benzenebutanol, .alpha.-phenyl-
Formula: C16 H18 O
CAS: 30078-89-8
Molecular weight: 226
Origin: D.HENNEBERG, MAX-PLANCK INSTITUTE, MULHEIM, WEST GERMANY
m/z	RELATIVE INTENSITY
27	97
28	410
29	82
30	29
31	15
32	37
39	96
41	166
42	12
43	77
44	100
46	3
48	3
49	4
50	29
51	142
52	54
53	66
54	3
55	74
56	14
57	22
58	33
59	25
60	9
63	23
64	10
65	369
66	33
67	9
68	6
69	11
71	7
73	2
74	3
75	36
76	34
77	1448
78	469
79	4173
80	295
81	13
82	6
89	44
90	33
91	2649
92	474
93	34
94	19
101	5
102	36
103	252
104	9999
105	1382
106	333
107	7751
108	597
109	25
113	9
115	249
116	94
117	1006
118	149
119	35
120	238
121	27
122	10
127	19
128	36
129	55
130	42
131	61
132	10
133	78
134	10
141	4
147	39
148	9
152	6
153	5
154	6
155	6
165	32
166	12
167	22
178	19
179	25
180	25
181	6
182	4
190	6
192	12
202	7
203	7
205	8
206	12
207	9
208	1826
209	296
210	52
211	6
224	1
225	19
226	167
227	18
