Mass Spectrum: 1-Dodecanamine, N-dodecyl-
Formula: C24 H51 N
CAS: 3007-31-6
Molecular weight: 353
Origin: Japan AIST/NIMC Database- Spectrum MS-IW-3877
m/z	RELATIVE INTENSITY
27	60
28	60
29	239
30	949
31	20
32	10
39	40
41	529
42	159
43	1149
44	2399
45	109
46	10
53	20
54	30
55	599
56	379
57	739
58	179
59	30
67	60
68	50
69	319
70	319
71	239
72	99
73	20
79	10
81	50
82	60
83	159
84	239
85	99
86	90
87	10
93	30
95	30
96	60
97	80
98	309
99	50
100	60
107	30
109	10
110	20
111	20
112	239
113	30
114	30
120	10
124	20
125	10
126	90
127	10
128	20
138	10
140	80
141	10
142	60
152	10
154	50
155	10
156	30
166	10
168	70
169	10
170	60
182	60
183	20
184	409
185	229
186	169
187	20
190	10
194	20
196	1579
197	239
198	9999
199	1479
200	99
205	10
210	40
211	209
212	279
213	50
224	159
225	30
226	189
227	40
236	10
238	50
239	10
240	80
241	10
252	40
254	99
255	20
266	20
268	70
269	10
280	30
282	40
283	10
294	10
296	40
297	10
308	20
310	50
311	10
322	10
323	10
324	40
325	10
338	30
339	10
350	60
351	30
352	329
353	379
354	99
355	10
