Mass Spectrum: Benzoic acid, 3-chloro-, anhydride
Formula: C14 H8 Cl2 O3
CAS: 30070-63-4
Molecular weight: 294
Origin: Japan AIST/NIMC Database- Spectrum MS-IW-7804
m/z	RELATIVE INTENSITY
28	50
36	10
37	10
38	30
39	10
49	10
50	279
51	139
55	10
61	20
63	10
69	10
73	20
74	139
75	1049
76	239
77	30
84	20
85	99
86	10
87	30
104	60
110	40
111	2289
112	169
113	729
114	50
138	20
139	9999
140	799
141	3309
142	259
143	10
149	10
155	90
156	279
157	50
158	90
215	20
250	50
251	10
252	30
259	10
266	179
267	20
268	109
269	10
270	20
294	1829
295	289
296	1209
297	179
298	199
299	20
