Mass Spectrum: 3,5-Octadien-2-one, (E,E)-
Formula: C8 H12 O
CAS: 30086-02-3
Molecular weight: 124
Origin: FOOD RESEARCH REPORT 122, K.E. MURRAY & COLLEAGUES, DIV OF FOOD RESEARCH, CSIRO, AUSTRALIA
m/z	RELATIVE INTENSITY
26	400
27	3500
29	1100
31	100
37	200
38	500
39	4200
40	700
41	3900
42	400
43	9800
44	300
45	100
46	100
49	100
50	700
51	1300
52	700
53	3300
54	500
55	1100
56	100
61	100
62	100
63	400
64	100
65	1000
66	800
67	700
68	100
69	100
73	100
74	100
75	100
77	1100
78	300
79	2200
80	400
81	5600
82	700
83	100
91	300
94	100
95	9999
96	600
97	100
107	200
109	1800
110	200
122	100
123	200
124	1900
125	200
