Mass Spectrum: 4,4-Dimethyl-2-oxazoline
Formula: C5 H9 N O
CAS: 30093-99-3
Molecular weight: 99
Origin: NIST Mass Spectrometry Data Center
m/z	RELATIVE INTENSITY
14	390
15	1141
16	40
17	20
18	20
19	20
20	10
24	20
26	781
27	2722
28	4444
29	3423
30	390
31	140
32	130
33	10
36	20
37	310
38	611
39	3023
40	1101
41	3803
42	9999
43	751
44	20
46	20
49	30
50	100
51	200
52	240
53	150
54	290
55	280
56	971
57	2632
58	150
64	10
69	6926
70	460
71	20
72	10
84	5625
85	280
86	20
99	2222
100	120
101	10
