Mass Spectrum: Oxirane, 2-ethyl-2-methyl-
Formula: C5 H10 O
CAS: 30095-63-7
Molecular weight: 86
Origin: SHELL RESEARCH LIMITED THORNTON RESEARCH CENTRE
m/z	RELATIVE INTENSITY
26	772
27	3621
28	3631
29	5353
30	307
31	493
37	251
38	391
39	3640
40	1033
41	9999
42	996
43	3324
50	381
51	381
52	195
53	763
54	810
55	4767
56	5325
57	2374
58	996
59	670
71	6368
72	400
85	2607
86	5521
87	409
