Mass Spectrum: Benzoic acid, 2-amino-, pentyl ester
Formula: C12 H17 N O2
CAS: 30100-15-3
Molecular weight: 207
Origin: NIST Mass Spectrometry Data Center, 2010
m/z	RELATIVE INTENSITY
15	20
26	20
27	300
28	110
29	420
30	20
31	20
37	20
38	60
39	550
40	80
41	661
42	250
43	530
44	120
45	10
46	20
50	30
51	60
52	180
53	90
54	30
55	210
56	30
57	10
58	70
60	10
61	10
62	50
63	230
64	300
65	1651
66	220
67	30
68	10
69	30
70	50
71	30
72	10
74	20
75	20
76	40
77	40
78	10
79	10
80	30
81	10
84	10
85	10
88	10
89	20
90	100
91	370
92	2542
93	490
94	50
103	10
104	10
105	10
106	20
107	10
108	10
117	20
118	40
119	9999
120	3743
121	380
122	30
128	20
130	10
131	10
132	60
133	10
135	10
136	60
137	3563
138	360
139	20
143	10
144	10
146	90
147	20
150	10
158	10
160	40
161	30
164	10
165	10
170	10
172	10
174	50
189	20
207	2102
208	270
209	20
