Mass Spectrum: 1-Piperidineacetonitrile
Formula: C7 H12 N2
CAS: 3010-03-5
Molecular weight: 124
Origin: NIST Mass Spectrometry Data Center, 1994
m/z	RELATIVE INTENSITY
12	44
13	89
14	215
15	1600
16	32
18	80
25	59
26	837
27	3947
28	4636
29	1495
30	737
37	127
38	410
39	3553
40	2954
41	8484
42	7254
43	4316
44	264
47	30
49	27
50	184
51	327
52	382
53	723
54	1176
55	2444
56	1737
57	1096
58	54
63	44
64	37
65	101
66	348
67	2594
68	1728
69	1493
70	382
71	102
78	32
79	84
80	265
81	286
82	3094
83	4124
84	2039
85	125
93	65
94	121
95	1029
96	1921
97	369
98	532
99	30
107	68
109	358
110	23
119	22
121	60
123	9999
124	3761
125	327
