Mass Spectrum: 2-(Diethylamino)acetonitrile
Formula: C6 H12 N2
CAS: 3010-02-4
Molecular weight: 112
Origin: NIST Mass Spectrometry Data Center
m/z	RELATIVE INTENSITY
12	10
13	30
14	100
15	651
16	10
18	110
26	440
27	2142
28	2412
29	1361
30	731
37	20
38	80
39	260
40	1111
41	931
42	9999
43	220
44	140
50	10
51	40
52	120
53	110
54	500
55	280
56	2232
57	310
58	270
66	90
67	490
69	4334
70	420
71	40
72	40
79	10
80	10
81	50
82	30
83	120
84	200
85	70
86	510
87	30
93	10
94	10
95	40
97	9228
98	520
99	10
111	370
112	1702
113	120
