Mass Spectrum: 4-Hydroxy-3-nitrobenzaldehyde
Formula: C7 H5 N O4
CAS: 3011-34-5
Molecular weight: 167
Origin: Japan AIST/NIMC Database- Spectrum MS-NW-6561
m/z	RELATIVE INTENSITY
12	10
14	20
15	10
16	10
18	10
25	30
26	139
27	269
28	399
29	449
30	449
31	40
32	20
36	40
37	329
38	709
39	1919
40	90
41	30
42	50
43	80
44	119
45	40
46	50
48	30
49	109
50	449
51	649
52	279
53	1209
54	90
55	99
60	60
61	339
62	739
63	1889
64	919
65	1799
66	239
67	99
68	50
69	50
70	20
72	10
73	60
74	169
75	329
76	129
77	109
78	169
79	159
80	129
81	379
82	30
85	10
86	10
87	10
90	40
91	679
92	1179
93	309
94	109
95	20
96	40
103	10
104	30
105	20
106	40
107	40
108	249
109	129
110	20
118	10
119	799
120	2669
121	669
122	139
123	20
124	10
133	10
134	149
135	40
136	149
137	159
138	30
139	40
146	10
149	129
150	99
151	129
152	10
163	10
165	40
166	9999
167	8499
168	799
169	109
170	10
