Mass Spectrum: Aklomide
Formula: C7 H5 Cl N2 O3
CAS: 3011-89-0
Molecular weight: 200
Origin: NIST Mass Spectrometry Data Center, 1994
m/z	RELATIVE INTENSITY
14	40
16	147
26	47
27	70
28	399
29	40
30	980
32	58
36	97
37	373
38	336
39	153
40	49
41	70
44	3002
45	80
46	236
47	44
48	38
49	259
50	1116
51	417
52	331
53	151
55	50
60	85
61	305
62	478
63	946
64	234
65	142
66	34
72	117
73	719
74	2845
75	4387
76	482
77	77
78	61
79	47
84	392
85	186
86	190
87	156
88	89
89	115
90	523
91	235
92	38
97	43
98	126
99	692
100	182
101	282
102	53
103	136
108	90
109	575
110	1785
111	797
112	659
113	224
114	129
116	35
118	67
119	97
126	1742
127	164
128	530
129	56
137	946
138	2947
139	526
140	967
141	88
142	112
144	31
154	1001
155	89
156	347
157	107
184	9999
185	846
186	3213
187	273
188	40
200	6141
201	536
202	2055
203	181
