Mass Spectrum: Thiocyanic acid, phenylmethyl ester
Formula: C8 H7 N S
CAS: 3012-37-1
Molecular weight: 149
Origin: Japan AIST/NIMC Database- Spectrum MS-NW-4246
m/z	RELATIVE INTENSITY
26	30
27	60
28	60
32	40
37	40
38	119
39	629
40	50
41	139
43	10
44	20
45	239
46	10
47	10
49	20
50	159
51	309
52	99
53	20
58	80
59	10
60	10
61	50
62	139
63	389
64	109
65	1279
66	80
69	30
74	30
75	20
76	30
77	119
78	30
79	30
85	10
86	30
87	20
89	299
90	149
91	9999
92	809
93	30
104	10
121	80
122	10
123	20
149	319
150	30
151	20
