Mass Spectrum: Methanone, 1,4-phenylenebis[phenyl-
Formula: C20 H14 O2
CAS: 3016-97-5
Molecular weight: 286
Origin: Japan AIST/NIMC Database- Spectrum MS-IW-1109
m/z	RELATIVE INTENSITY
27	40
28	80
29	10
39	30
41	20
43	30
50	189
51	619
52	40
53	10
55	20
56	10
57	40
62	10
63	40
65	10
69	20
70	10
71	30
74	50
75	109
76	359
77	3669
78	269
79	10
81	10
82	10
83	20
85	20
86	10
87	10
89	10
91	20
95	10
97	20
98	10
99	10
101	10
102	10
103	10
104	199
105	9999
106	809
107	50
109	10
111	10
113	10
115	10
119	40
120	20
125	10
126	30
127	40
135	10
143	30
149	20
150	40
151	209
152	929
153	969
154	119
155	10
163	10
164	10
165	40
166	10
167	40
177	10
179	10
180	90
181	1599
182	239
183	20
195	109
196	10
207	10
208	10
209	5599
210	869
211	90
212	10
223	10
226	10
228	10
229	10
254	10
257	50
258	80
259	10
285	30
286	5579
287	1229
288	149
289	10
