Mass Spectrum: N-(3-Methylphenyl)-1-naphthamide
Formula: C18 H15 N O
CAS: 301822-81-1
Molecular weight: 261
Origin: Zaikin V.G., TIPS RAS, Moscow, Russia
m/z	RELATIVE INTENSITY
28	20
39	50
50	40
51	100
52	30
63	50
65	40
74	40
75	110
76	60
77	440
78	80
79	60
91	40
101	220
102	40
106	110
107	140
115	30
123	50
125	30
126	520
127	4644
128	641
129	40
130	70
131	80
153	30
154	50
155	9999
156	1161
157	80
217	60
260	60
261	3303
262	671
263	70
