Mass Spectrum: Acetonitrile, dichloro-
Formula: C2 H Cl2 N
CAS: 3018-12-0
Molecular weight: 109
Origin: NIST Mass Spectrometry Data Center, 1998.
m/z	RELATIVE INTENSITY
12	90
13	40
14	10
24	60
25	100
26	130
27	90
35	1110
36	90
37	390
38	1030
39	780
40	20
41	10
47	3080
48	980
49	1080
50	330
51	10
59	60
60	60
61	60
62	60
63	10
64	10
70	40
72	30
73	750
74	9999
75	520
76	3460
77	90
82	5159
83	120
84	3360
85	80
86	550
87	10
108	140
109	100
110	90
111	60
112	20
113	10
