Mass Spectrum: Naphthalene, 1,2,3,4-tetrahydro-1-phenyl-
Formula: C16 H16
CAS: 3018-20-0
Molecular weight: 208
Origin: D.HENNEBERG, MAX-PLANCK INSTITUTE, MULHEIM, WEST GERMANY
m/z	RELATIVE INTENSITY
23	15
26	42
27	612
30	21
31	15
32	19
34	37
36	3
37	31
38	66
39	1043
40	40
41	165
42	21
43	5
44	46
45	11
47	54
48	39
49	46
50	452
51	1328
52	351
53	372
54	15
56	37
57	27
58	33
59	29
60	31
61	76
62	220
63	1043
64	393
65	1098
66	107
68	42
69	54
72	48
73	29
74	208
75	475
76	1792
77	1745
78	754
79	247
81	245
82	485
83	473
84	54
85	37
86	95
87	290
88	856
89	3961
90	587
91	7290
92	536
94	115
95	261
96	241
98	115
99	103
100	243
101	844
102	639
103	708
104	3830
105	417
106	33
107	35
108	37
110	62
111	76
112	48
113	169
114	165
115	2822
116	1029
117	2120
118	200
119	25
120	19
121	37
122	35
123	46
124	74
125	146
126	390
127	1062
128	2328
129	3161
130	8689
131	3360
132	384
133	64
137	62
138	37
139	290
140	44
141	144
143	27
144	23
146	31
147	54
148	52
150	286
151	571
152	990
153	315
154	167
155	148
156	239
157	89
159	27
161	52
162	148
163	304
164	304
165	3746
166	692
167	284
168	89
171	101
172	132
174	236
175	473
176	807
177	961
178	3904
179	7786
180	9804
181	1433
182	134
183	27
186	39
187	89
188	109
189	425
190	241
191	571
192	236
193	438
194	111
197	68
198	72
200	230
201	251
202	709
203	706
204	509
205	251
206	308
207	926
208	9999
209	1862
210	156
