Mass Spectrum: Phenol, 5-(1,5-dimethyl-4-hexenyl)-2-methyl-, (R)-
Formula: C15 H22 O
CAS: 30199-26-9
Molecular weight: 218
Origin: NIST Mass Spectrometry Data Center, 2010
m/z	RELATIVE INTENSITY
27	220
29	190
39	480
40	120
41	2082
42	80
43	490
50	70
51	270
52	120
53	430
55	1271
57	90
58	50
63	120
64	50
65	450
66	80
67	581
69	671
75	30
77	1241
78	290
79	701
80	70
81	200
82	200
83	400
89	110
91	2322
92	480
94	170
102	80
103	370
104	90
105	751
106	110
107	861
108	340
115	1001
116	280
117	450
118	110
120	240
121	6616
122	581
125	40
127	50
128	130
129	100
130	40
133	851
134	631
135	4304
136	9999
144	40
145	180
146	90
147	1221
148	2712
149	861
150	60
159	80
160	90
161	931
162	150
173	50
174	40
175	300
203	50
218	2823
219	430
