Mass Spectrum: Trichloroacetyl isocyanate
Formula: C3 Cl3 N O2
CAS: 3019-71-4
Molecular weight: 187
Origin: Japan AIST/NIMC Database- Spectrum MS-IW-1266
m/z	RELATIVE INTENSITY
26	30
28	199
30	10
35	109
36	40
37	30
38	30
40	20
42	179
43	50
44	439
47	479
48	10
49	159
54	80
61	90
63	219
65	60
70	9999
71	299
72	50
73	20
75	10
82	559
83	40
84	359
85	20
86	60
89	10
96	20
98	20
108	10
110	169
112	99
114	10
117	949
118	10
119	919
120	10
121	299
123	30
124	379
125	10
126	249
128	40
145	10
147	10
152	319
153	10
154	209
156	30
