Mass Spectrum: Ethanone, 1-cyclobutyl-
Formula: C6 H10 O
CAS: 3019-25-8
Molecular weight: 98
Origin: CARL DJERASSI DEPT OF CHEM STANFORD UNIV STANFORD CALIF 94305
m/z	RELATIVE INTENSITY
15	714
26	306
27	2245
28	408
29	1633
39	1122
41	204
42	204
43	9999
44	102
53	510
55	7959
56	408
59	408
83	1837
98	816
