Mass Spectrum: Chlormadinone acetate
Formula: C23 H29 Cl O4
CAS: 302-22-7
Molecular weight: 404
Origin: NIST Mass Spectrometry Data Center, 1998.
m/z	RELATIVE INTENSITY
15	30
27	40
29	100
36	20
39	130
41	490
42	70
43	9999
44	240
45	90
51	80
53	240
54	20
55	730
56	30
57	50
59	50
63	40
65	170
66	40
67	360
68	40
69	120
71	40
75	50
77	460
78	90
79	530
80	40
81	270
82	60
83	100
85	50
87	30
89	70
90	10
91	760
92	80
93	350
94	50
95	260
96	30
97	250
98	20
99	50
101	70
102	80
103	210
104	50
105	350
106	50
107	700
108	70
109	170
110	40
111	40
112	20
115	550
116	230
117	240
118	40
119	160
120	10
121	110
122	30
123	100
124	20
125	120
126	50
127	200
128	450
129	460
130	160
131	340
132	80
133	450
134	60
135	160
136	40
137	30
138	50
139	120
140	20
141	310
142	160
143	230
144	130
145	180
146	50
147	70
149	230
150	50
151	120
152	140
153	210
154	100
155	220
156	60
157	160
158	60
159	140
160	60
161	40
163	80
164	50
165	380
166	130
167	240
168	120
169	140
170	140
171	180
172	80
173	180
174	30
175	240
176	40
177	110
178	120
179	250
180	100
181	260
182	80
183	160
184	30
185	70
189	80
190	30
191	160
192	80
193	270
194	160
195	290
196	90
197	160
198	20
199	30
203	70
204	20
205	170
206	60
207	970
208	340
209	430
210	150
211	60
212	20
213	60
215	40
217	70
218	40
219	80
220	50
221	120
222	30
223	260
224	50
225	170
226	30
227	40
229	40
231	40
232	50
233	170
234	60
235	40
236	20
237	100
238	30
239	80
241	50
243	60
244	50
245	130
246	50
247	120
248	60
249	80
250	220
251	460
252	110
253	40
257	30
259	90
260	30
261	200
262	60
263	110
264	20
265	400
266	880
267	1240
268	250
269	60
273	30
276	240
277	50
278	50
283	70
285	40
287	30
293	50
300	120
301	8339
302	1840
303	2830
304	600
305	60
308	40
309	330
310	70
319	840
320	180
321	320
322	50
329	190
330	20
331	50
344	220
345	30
346	80
347	20
362	70
404	70
406	20
