Mass Spectrum: Hydrazine
Formula: H4 N2
CAS: 302-01-2
Molecular weight: 32
m/z	RELATIVE INTENSITY
14	490
15	811
16	2923
17	2612
27	30
28	2142
29	4014
30	3133
31	4734
32	9999
33	90
