Mass Spectrum: Benzoyl chloride, 3,4-dichloro-
Formula: C7 H3 Cl3 O
CAS: 3024-72-4
Molecular weight: 208
Origin: Japan AIST/NIMC Database- Spectrum MS-NW-2900
m/z	RELATIVE INTENSITY
12	20
14	20
18	10
25	30
26	30
27	10
28	129
29	10
35	90
36	199
37	439
38	179
39	40
43	40
44	30
45	10
47	70
48	50
49	249
50	559
51	99
53	60
54	339
55	329
56	109
60	109
61	209
62	119
63	90
65	10
69	10
71	30
72	209
73	469
74	1629
75	1409
76	90
77	10
78	20
79	20
80	10
81	10
82	20
83	30
84	499
85	259
86	429
87	249
88	40
90	60
91	60
92	20
94	10
95	20
96	40
97	60
98	20
99	20
101	10
103	20
107	40
108	109
109	1699
110	599
111	619
112	189
113	30
118	10
119	50
120	10
121	40
122	10
123	129
124	10
125	50
133	30
135	10
137	30
138	99
139	129
140	40
141	40
143	10
144	60
145	3609
146	279
147	2249
148	159
149	369
150	20
157	60
158	40
159	90
160	30
161	30
164	10
172	10
173	9999
174	859
175	6599
176	529
177	1069
178	90
179	10
180	30
181	10
182	30
184	10
190	10
207	10
208	989
209	90
210	979
211	80
212	309
213	20
214	30
