Mass Spectrum: 4-Acetamidobutyric acid
Formula: C6 H11 N O3
CAS: 3025-96-5
Molecular weight: 145
Origin: Japan AIST/NIMC Database- Spectrum MS-NW-3251
m/z	RELATIVE INTENSITY
14	70
15	629
17	30
18	109
26	90
27	449
28	709
29	189
30	9999
31	259
32	10
37	10
38	30
39	269
40	80
41	859
42	459
43	5799
44	2949
45	409
46	20
51	10
52	30
53	10
54	70
55	109
56	509
57	379
58	489
59	90
60	599
61	40
68	169
69	229
70	30
71	20
72	2079
73	419
74	70
75	10
82	20
83	10
84	1269
85	759
86	2489
87	169
88	30
96	10
98	30
99	329
100	429
101	50
102	3219
103	179
104	20
112	179
113	10
123	10
127	509
128	40
145	689
146	70
