Mass Spectrum: 2,4-Decadienoic acid, ethyl ester, (E,Z)-
Formula: C12 H20 O2
CAS: 3025-30-7
Molecular weight: 196
Origin: Chuck Anderson, Aldrich Chemical Co.
m/z	RELATIVE INTENSITY
14	14
15	113
16	12
19	22
25	15
26	251
27	3520
28	599
29	9284
30	229
31	110
37	31
38	182
39	3826
40	1160
41	6223
42	1351
43	1568
44	106
45	411
46	18
47	36
50	117
51	433
52	267
53	1466
54	516
55	1976
56	165
57	449
58	30
59	18
60	37
61	47
62	25
63	149
64	67
65	1543
66	2563
67	6529
68	892
69	1237
70	1237
71	274
72	23
73	302
74	22
75	14
76	12
77	1441
78	433
79	2997
80	1109
81	8009
82	1402
83	1071
84	816
85	162
86	813
87	82
88	154
89	72
90	11
91	733
92	125
93	1913
94	1555
95	1772
96	2282
97	9590
98	6376
99	3048
100	529
101	1096
102	105
103	58
104	25
105	172
106	134
107	1237
108	2321
109	781
110	129
111	1415
112	790
113	198
114	1237
115	169
116	43
117	39
119	45
120	16
121	1313
122	2270
123	1466
124	146
125	9999
126	1364
127	2831
128	1862
129	178
130	16
131	64
132	38
133	65
135	155
136	19
137	13
138	18
139	462
140	290
141	116
142	110
149	117
150	379
151	3239
152	414
153	506
154	127
155	60
167	341
168	73
181	31
196	2244
197	322
198	24
