Mass Spectrum: L-5-Oxoproline, , 2TMS derivative
Formula: C11 H23 N O3 Si2
CAS: 30274-77-2
Molecular weight: 273
Origin: NIST Mass Spectrometry Data Center
m/z	RELATIVE INTENSITY
15	10
27	20
28	30
29	50
31	20
39	30
40	10
41	70
42	40
43	250
44	160
45	781
46	50
47	120
51	10
52	20
53	20
54	30
55	160
56	50
57	90
58	270
59	350
60	50
61	90
62	10
66	130
67	90
68	30
69	30
70	90
71	60
72	270
73	5375
74	520
75	721
76	50
77	20
80	20
81	10
82	30
83	30
84	100
85	110
86	150
87	40
88	10
89	10
93	60
95	10
96	10
97	20
98	50
99	60
100	130
101	30
102	30
103	40
104	10
105	20
107	30
110	30
111	20
112	150
113	50
114	70
115	60
116	20
117	90
118	20
119	30
121	240
124	10
126	30
127	30
128	30
129	40
130	10
131	180
132	40
133	340
134	50
135	30
139	20
140	210
141	80
142	60
143	20
144	10
145	10
147	2382
148	390
149	220
150	20
151	10
152	10
153	10
154	110
156	9999
157	2002
158	671
159	50
160	10
161	10
168	20
170	10
172	20
173	10
174	30
175	10
183	10
184	10
186	10
190	20
213	10
214	70
215	20
216	10
228	60
230	1051
231	220
232	90
233	10
258	1101
259	240
260	100
261	10
273	40
274	10
