Mass Spectrum: Thiazolo[3,2-a]pyridinium, 8-hydroxy-3-methyl-, hydroxide, inner salt
Formula: C8 H7 N O S
CAS: 30276-99-4
Molecular weight: 165
m/z	RELATIVE INTENSITY
39	4300
44	675
45	725
51	450
52	625
67	325
68	250
69	300
70	675
71	1200
72	850
92	450
93	200
94	200
95	350
96	200
97	400
104	1125
105	1300
109	450
110	500
136	2575
137	5674
138	675
139	425
148	250
164	400
165	9999
166	1200
167	400
