Mass Spectrum: 3-Methoxyphenyl acetone
Formula: C10 H12 O2
CAS: 3027-13-2
Molecular weight: 164
Origin: NIST Mass Spectrometry Data Center, 1994
m/z	RELATIVE INTENSITY
13	15
14	103
15	862
18	28
26	70
27	228
29	107
30	22
31	20
37	54
38	216
39	921
40	92
41	178
42	20
43	9999
44	218
45	33
50	463
51	966
52	653
53	196
54	27
55	83
61	67
62	225
63	578
64	207
65	852
66	79
67	33
74	97
75	86
76	129
77	1321
78	1257
79	289
80	33
86	42
87	35
89	399
90	394
91	2195
92	300
93	69
102	20
103	55
104	19
105	120
106	182
107	362
108	34
115	16
118	14
119	20
121	3183
122	1613
123	159
124	10
148	12
149	30
164	2344
165	265
166	27
