Mass Spectrum: 1-Hexanamine, N-butyl-
Formula: C10 H23 N
CAS: 30278-08-1
Molecular weight: 157
Origin: CARL DJERASSI DEPT OF CHEM STANFORD UNIV STANFORD CALIF 94305
m/z	RELATIVE INTENSITY
27	1000
28	700
29	2200
30	6000
39	400
40	100
41	2100
42	800
43	3300
44	8100
45	200
53	100
54	100
55	900
56	1100
57	1800
58	200
68	100
69	100
70	500
71	100
72	300
73	200
82	100
83	100
84	1100
85	100
86	9999
87	600
98	100
99	200
100	200
112	1000
113	100
114	4800
115	400
156	100
157	800
158	100
