Mass Spectrum: 1-Pyrenecarboxaldehyde
Formula: C17 H10 O
CAS: 3029-19-4
Molecular weight: 230
Origin: NIST Mass Spectrometry Data Center, 1990.
m/z	RELATIVE INTENSITY
16	31
17	52
18	84
28	93
29	247
39	124
50	172
51	163
61	71
62	192
63	231
67	29
74	618
75	478
76	118
77	51
85	116
86	285
87	1008
88	676
94	35
97	61
98	400
99	1183
100	4193
101	3326
105	74
109	42
110	179
111	166
113	26
115	418
121	39
122	215
123	174
124	96
125	56
126	80
134	88
135	77
137	42
146	92
147	65
148	77
149	259
150	473
151	244
152	62
161	51
162	61
163	51
172	25
173	176
174	723
175	394
176	119
187	42
197	191
198	987
199	1355
200	5578
201	8590
202	5856
203	929
204	86
211	48
213	35
227	73
229	6679
230	9999
231	1536
232	147
