Mass Spectrum: 1,8-Diphenyl-1,3,5,7-octatetraene
Formula: C20 H18
CAS: 3029-40-1
Molecular weight: 258
Origin: Pu Leung, NIH, Bethesda, MD
m/z	RELATIVE INTENSITY
41	517
42	24
43	231
44	115
45	90
46	12
47	204
48	82
49	931
50	680
51	2676
52	639
53	306
54	12
55	138
56	33
57	180
59	18
60	44
61	37
62	249
63	1479
64	305
65	1817
66	112
67	73
68	17
69	89
70	50
71	71
72	5
73	52
74	217
75	405
76	665
77	2409
78	1107
79	198
80	7
81	49
82	66
83	32
84	48
86	457
87	186
88	223
89	1039
91	5976
92	545
93	51
94	95
95	106
96	19
97	32
98	47
99	57
100	71
101	441
102	1045
103	830
104	1112
105	438
106	121
107	56
108	425
109	14
110	16
111	43
112	29
113	333
114	415
115	5570
116	516
117	9599
118	770
120	533
121	78
122	32
123	11
124	28
125	43
126	354
127	950
128	2582
129	2682
130	130
131	76
132	6
133	22
137	22
138	22
139	460
141	1775
142	589
143	210
144	34
145	8
147	17
148	18
149	26
150	108
151	403
152	2236
153	1468
154	4484
155	807
156	119
157	26
159	6
161	6
162	12
163	114
164	111
165	2833
166	1285
167	4635
168	583
169	47
174	5
175	13
176	127
177	105
178	710
179	784
180	546
181	199
182	27
187	22
188	17
189	98
190	43
191	92
192	38
193	48
200	26
201	28
202	208
203	108
204	100
205	26
213	48
214	7
215	411
216	152
217	367
218	73
219	6
224	21
225	14
226	122
227	108
228	319
229	273
230	135
231	43
232	23
237	10
238	5
239	175
240	86
241	217
242	125
243	280
244	53
255	35
256	72
257	89
258	9999
259	2202
260	314
261	24
