Mass Spectrum: Prothipendyl
Formula: C16 H19 N3 S
CAS: 303-69-5
Molecular weight: 285
Origin: R RYHAGE MS-LAB KAROLINSKA INSTITUTET STOCKHOLM SWEDEN
m/z	RELATIVE INTENSITY
12	5
15	51
17	5
18	98
25	19
26	93
27	158
28	335
29	177
30	446
31	98
32	46
36	9
38	56
39	390
40	51
41	242
42	822
43	381
44	386
45	316
46	28
47	42
48	19
49	28
50	102
51	177
52	79
53	42
54	33
55	98
56	139
57	330
58	9999
59	530
60	28
61	9
62	51
63	112
64	60
65	79
66	23
67	46
68	51
69	214
70	734
71	242
72	534
73	79
74	19
75	46
76	93
77	167
78	153
79	60
80	33
81	37
82	93
83	172
84	748
85	1496
86	1998
87	139
88	28
89	112
90	65
91	70
92	9
93	56
94	23
95	33
96	19
97	9
98	28
99	28
100	65
101	84
102	98
103	65
104	42
105	37
106	28
107	37
108	112
109	70
110	46
111	5
112	23
113	60
114	65
115	125
116	51
117	46
119	23
120	28
121	37
122	33
123	23
124	9
126	42
127	70
128	130
129	60
130	33
131	28
132	23
133	65
134	51
135	42
136	37
137	19
138	28
139	37
140	163
141	112
142	23
143	23
144	14
145	88
146	56
147	56
148	28
149	28
150	9
151	5
152	46
153	60
154	60
155	237
156	125
157	23
158	46
159	28
160	23
161	23
162	5
163	23
165	19
166	70
167	93
168	465
169	139
170	28
171	42
172	218
173	112
174	51
175	28
177	42
178	19
179	93
180	79
181	720
182	158
183	14
184	74
185	158
186	79
187	42
188	14
189	23
190	9
193	14
194	37
195	70
196	23
197	33
198	214
199	1073
200	2691
201	553
202	177
203	51
204	23
205	19
206	19
210	5
211	46
212	181
213	1213
214	2756
215	460
216	209
217	46
218	14
219	19
220	14
221	14
223	14
224	79
225	437
226	153
227	1515
228	260
229	84
230	9
231	51
232	14
233	270
234	56
237	37
238	33
239	344
240	260
241	121
242	42
243	14
245	5
246	9
247	23
253	19
259	23
260	19
261	5
262	42
267	14
270	14
271	19
275	14
281	28
283	19
284	28
285	3341
286	716
287	218
288	23
289	9
