Mass Spectrum: Desmethylclomipramine
Formula: C18 H21 Cl N2
CAS: 303-48-0
Molecular weight: 300
Origin: AAFS Toxicology Section MS DB Committee, U. Alberta, Canada
m/z	RELATIVE INTENSITY
41	480
42	1311
43	680
44	9188
45	340
50	160
51	480
52	120
53	60
54	70
55	50
56	780
57	470
58	200
62	120
63	580
64	180
65	420
66	40
68	110
70	1030
71	4193
72	660
73	120
74	100
75	300
76	220
77	720
78	230
79	40
82	50
84	100
85	10
86	50
87	100
88	160
89	1191
90	370
91	840
92	70
93	20
96	150
97	80
98	10
99	150
101	200
102	360
103	270
104	150
105	80
106	430
107	110
109	60
110	20
111	60
112	50
113	130
114	160
115	450
116	310
117	640
118	400
119	70
120	10
123	100
124	60
125	390
126	180
127	290
128	310
129	510
130	1421
131	210
132	40
136	10
137	60
138	110
139	330
140	450
141	190
142	120
143	90
144	80
149	110
150	300
151	550
152	620
153	240
154	180
155	20
156	10
161	20
162	120
163	420
164	1211
165	1651
166	840
167	480
168	80
173	20
174	50
175	70
176	510
177	510
178	1261
179	630
180	280
181	50
186	10
187	10
188	120
189	240
190	1010
191	2242
192	2782
193	2642
194	910
195	150
199	150
200	120
201	330
202	190
203	240
204	1361
205	650
206	990
207	730
208	330
209	40
212	300
213	660
214	850
215	370
216	360
217	450
218	720
219	720
220	520
221	490
222	170
223	20
224	20
225	150
226	940
227	5274
228	4494
229	7626
230	2272
231	2041
232	640
233	450
234	280
235	130
236	20
238	210
239	50
240	1241
241	80
242	4664
243	1060
244	1521
245	300
251	40
252	230
253	180
254	1791
255	700
256	1361
257	350
258	280
259	30
266	90
268	9999
269	8928
270	4804
271	2982
272	480
273	20
285	80
287	10
298	10
300	2292
301	460
302	740
303	140
