Mass Spectrum: Clomipramine
Formula: C19 H23 Cl N2
CAS: 303-49-1
Molecular weight: 314
Origin: Tox21 Consortium/NIST Mass Spectrometry Data Center, 2012
m/z	RELATIVE INTENSITY
15	30
26	10
27	40
28	50
29	80
30	280
31	10
36	10
38	10
39	140
40	20
41	160
42	861
43	320
44	721
45	40
46	20
50	40
51	160
52	50
53	20
54	20
55	20
56	270
57	350
58	9999
59	500
60	10
62	40
63	180
64	50
65	170
66	20
67	10
68	30
70	881
71	230
72	250
73	30
74	30
75	100
76	70
77	270
78	90
79	20
80	10
82	40
84	781
85	4644
86	571
87	90
88	50
89	500
90	160
91	400
92	40
93	20
94	10
95	60
98	10
99	60
101	90
102	130
103	130
104	80
105	60
106	300
107	90
108	20
110	10
111	30
112	20
113	50
114	60
115	210
116	140
117	360
118	220
119	60
120	10
123	30
124	30
125	150
126	70
127	130
128	160
129	330
130	981
131	140
132	70
136	10
137	20
138	50
139	140
140	210
141	100
142	80
143	60
144	50
145	10
146	10
149	40
150	90
151	210
152	260
153	110
154	80
155	20
156	10
157	50
158	30
161	10
162	40
163	160
164	591
165	591
166	340
167	160
168	30
173	10
174	20
175	30
176	160
177	160
178	430
179	210
180	90
181	20
186	10
187	10
188	30
189	70
190	280
191	641
192	811
193	771
194	180
195	20
199	40
200	30
201	80
202	40
203	60
204	410
205	190
206	260
207	140
208	70
209	10
212	70
213	160
214	140
215	80
216	70
217	110
218	200
219	230
220	160
221	140
222	20
224	10
225	30
226	210
227	931
228	851
229	701
230	340
231	150
232	120
233	140
234	100
235	30
238	50
239	30
240	320
241	100
242	621
243	200
244	190
245	50
246	10
251	10
252	60
253	50
254	500
255	160
256	310
257	70
258	50
259	10
264	10
265	10
266	30
268	3213
269	3233
270	1551
271	1061
272	180
273	10
279	10
299	10
301	10
314	741
315	160
316	260
317	60
318	10
