Mass Spectrum: Naphthalene, 1,2,3,4-tetrahydro-2,5,8-trimethyl-
Formula: C13 H18
CAS: 30316-17-7
Molecular weight: 174
Origin: NIST Mass Spectrometry Data Center, 1994
m/z	RELATIVE INTENSITY
14	6
15	263
18	26
27	598
28	103
29	487
39	694
40	101
41	446
42	194
43	33
50	127
51	480
52	141
53	258
54	26
55	48
58	66
62	82
63	323
64	193
65	395
66	56
67	109
68	11
71	188
72	37
74	60
75	117
76	191
77	734
78	265
79	208
80	23
81	20
82	18
85	16
86	40
87	53
88	30
89	192
90	16
91	1214
92	131
93	41
98	12
99	11
100	11
101	51
102	185
103	271
104	116
105	592
106	95
107	17
113	36
115	2036
116	627
117	2465
118	859
119	3447
120	364
121	25
126	92
127	608
128	1956
129	1593
130	519
131	1897
132	5660
133	763
134	48
139	125
141	939
142	611
143	851
144	854
145	855
146	638
147	77
151	42
152	162
153	152
154	52
155	99
156	92
157	345
158	42
159	9999
160	1321
161	86
165	27
170	13
171	33
174	7899
175	1111
176	69
