Mass Spectrum: 3-Hexyne-2,5-diol
Formula: C6 H10 O2
CAS: 3031-66-1
Molecular weight: 114
Origin: RADIAN CORP
m/z	RELATIVE INTENSITY
15	240
25	50
26	240
27	820
29	1530
30	20
31	120
37	70
38	190
39	890
40	130
41	1670
42	620
43	9999
44	1530
45	1330
46	20
47	10
48	20
49	100
50	550
51	720
52	510
53	3660
54	330
55	1630
56	110
57	190
58	20
61	130
62	70
63	130
64	20
65	200
66	90
67	490
68	80
69	730
70	620
71	2810
72	150
74	30
77	200
78	30
79	120
80	20
81	1980
82	160
83	40
84	150
85	330
95	210
96	80
97	50
99	1030
100	40
