Mass Spectrum: Hydroperoxide, 1-methylethyl
Formula: C3 H8 O2
CAS: 3031-75-2
Molecular weight: 76
m/z	RELATIVE INTENSITY
14	200
15	2300
17	100
18	500
19	200
25	100
26	400
27	1900
28	300
29	1000
31	300
39	800
40	200
41	4800
42	1000
43	9999
44	600
45	3100
46	100
57	100
58	2200
59	200
61	300
76	500
