Mass Spectrum: 2,4-Hexadiyne-1,6-diol
Formula: C6 H6 O2
CAS: 3031-68-3
Molecular weight: 110
Origin: NIST Mass Spectrometry Data Center, 1994
m/z	RELATIVE INTENSITY
14	33
17	137
25	101
26	362
27	3102
28	33
29	2500
30	219
31	483
36	219
37	1091
38	1216
39	7626
40	444
41	68
42	262
43	171
44	14
45	101
46	61
48	264
49	899
50	2601
51	2430
52	1025
53	9999
54	1520
55	932
56	126
60	461
61	1587
62	1909
63	3420
64	2128
65	2829
66	386
67	86
73	406
74	1264
75	603
76	425
77	456
78	113
79	528
80	86
81	6788
82	460
90	118
92	897
93	278
109	476
110	3874
111	299
