Mass Spectrum: 5-Hexenenitrile, 2-methyl-
Formula: C7 H11 N
CAS: 30316-00-8
Molecular weight: 109
Origin: A.E.WILLIAMS ICI DYESTUFFS DIVISION. BLACKLEY
m/z	RELATIVE INTENSITY
15	84
26	108
27	1042
28	675
29	1012
38	86
39	1450
40	225
41	1833
42	550
43	89
44	106
51	183
52	233
53	542
54	908
55	9999
56	442
57	84
63	29
64	492
65	100
66	141
67	625
68	608
69	107
71	492
77	56
79	59
80	108
81	250
82	128
92	47
94	433
95	138
108	107
109	112
110	102
