Mass Spectrum: Naphthalene, 1,2-dihydro-2,5,8-trimethyl-
Formula: C13 H16
CAS: 30316-23-5
Molecular weight: 172
Origin: CONTINENTAL OIL CO., PONCA CITY, OKLA, USA
m/z	RELATIVE INTENSITY
13	23
14	74
15	899
16	61
25	15
26	151
27	1167
28	387
29	410
30	38
37	30
38	130
39	1188
40	141
41	391
42	47
43	138
44	16
49	16
50	359
51	1053
52	257
53	334
54	30
55	83
56	39
57	95
58	117
61	40
62	218
63	810
64	600
65	475
66	69
67	34
68	26
69	129
70	241
71	471
72	93
73	26
74	186
75	314
76	713
77	1098
78	332
79	183
80	32
81	57
82	191
83	199
84	273
85	248
86	178
87	138
88	78
89	244
90	44
91	574
92	64
93	25
95	6
97	20
98	78
99	54
100	27
101	97
102	265
103	206
104	68
105	163
106	27
107	6
109	18
110	27
111	33
112	13
113	86
114	86
115	1858
116	360
117	310
118	69
119	141
120	27
121	6
122	18
123	13
124	10
125	38
126	163
127	681
128	1879
129	1164
130	270
131	69
132	48
133	41
134	27
135	17
137	33
138	48
139	418
140	248
141	2766
142	4145
143	1820
144	401
145	134
146	100
149	54
150	80
151	220
152	704
153	754
154	378
155	2276
156	1015
157	9999
158	1658
159	128
160	27
162	26
163	46
164	38
165	167
166	58
167	85
168	6
169	16
170	100
171	787
172	4331
173	611
174	40
