Mass Spectrum: 1,3-Propanediol, 2-methyl-2-[(nitrooxy)methyl]-, dinitrate (ester)
Formula: C5 H9 N3 O9
CAS: 3032-55-1
Molecular weight: 255
Origin: MINISTRY OF TECH. E.R.D.E., WALTHAM ABBEY, UK
m/z	RELATIVE INTENSITY
15	130
27	390
28	730
29	1110
30	1500
31	710
39	250
40	70
41	570
42	230
43	1170
44	180
45	120
46	9999
50	20
51	20
55	150
56	190
57	340
58	150
59	70
62	60
71	100
72	150
73	50
76	1160
90	20
