Mass Spectrum: Thiazole, 2-bromo-5-nitro-
Formula: C3 H Br N2 O2 S
CAS: 3034-48-8
Molecular weight: 208
Origin: MASS SPECTROMETRY CENTER, UNIV. OF UTAH ALDRICH B07437-2
m/z	RELATIVE INTENSITY
12	416
13	66
14	17
16	182
17	193
18	659
24	155
25	291
26	267
27	449
28	267
29	160
30	3746
32	1756
33	37
34	94
37	52
38	1442
39	1084
40	51
43	69
44	1963
45	1255
46	558
47	63
48	148
50	198
51	436
52	139
53	25
55	325
56	1483
57	9999
58	1047
59	728
60	152
65	104
70	709
71	271
72	53
73	262
76	187
79	341
80	145
81	759
82	1737
83	7277
84	411
85	392
91	377
93	422
97	122
99	782
105	84
106	51
107	184
109	116
111	38
113	1208
118	64
120	33
123	910
125	950
134	248
135	165
136	257
137	174
162	8718
163	444
164	8630
165	436
166	418
192	63
194	102
208	3469
209	179
210	3494
211	188
212	176
