Mass Spectrum: 1H-Imidazole, 4-nitro-
Formula: C3 H3 N3 O2
CAS: 3034-38-6
Molecular weight: 113
Origin: Japan AIST/NIMC Database- Spectrum MS-NW-6756
m/z	RELATIVE INTENSITY
14	28
16	55
24	55
25	83
26	206
27	1226
28	1378
29	564
30	3185
31	28
37	14
38	1130
39	2399
40	5447
41	468
42	371
43	178
44	69
45	14
46	261
50	28
51	55
52	124
53	564
54	261
55	3102
56	274
57	41
58	14
64	55
65	83
66	606
67	3254
68	164
69	454
70	399
71	28
77	14
79	14
81	28
83	606
84	28
85	14
96	28
97	799
98	41
111	14
113	9999
114	523
115	55
