Mass Spectrum: 1H-Imidazole, 1-methyl-5-nitro-
Formula: C4 H5 N3 O2
CAS: 3034-42-2
Molecular weight: 127
Origin: W. LUIJTEN, GORLAEUS LAB., LEIDEN UNIV., NETHERL NET
m/z	RELATIVE INTENSITY
38	100
39	200
40	300
41	200
42	900
43	200
51	100
52	300
53	400
54	900
55	200
66	200
67	100
80	100
81	200
82	100
83	100
84	100
94	100
97	100
98	300
110	200
111	200
127	9999
128	600
