Mass Spectrum: Tridecane, 2,2,4,10,12,12-hexamethyl-7-(3,5,5-trimethylhexyl)-
Formula: C28 H58
CAS: 3035-75-4
Molecular weight: 394
Origin: SHELL OIL CO., HOUSTON, TEXAS, USA
m/z	RELATIVE INTENSITY
38	3
39	83
40	21
41	902
42	76
43	88
44	30
45	2
49	1
50	2
51	3
52	2
53	36
54	40
55	611
56	1410
57	9999
58	445
59	10
63	1
65	6
66	4
67	75
68	41
69	332
70	130
71	666
72	37
73	1
76	1
77	7
78	2
79	13
80	4
81	64
82	24
83	284
84	39
85	370
86	25
87	1
88	1
91	4
92	1
93	6
94	2
95	36
96	15
97	131
98	53
99	206
100	16
101	1
105	2
106	1
107	2
108	2
109	16
110	6
111	55
112	89
113	178
114	17
115	1
119	1
121	1
122	1
123	5
124	3
125	22
126	11
127	127
128	13
129	1
133	1
135	1
137	3
138	1
139	10
140	4
141	106
142	12
143	1
151	1
152	2
153	9
154	39
155	105
156	6
157	1
165	1
166	2
167	3
168	31
169	61
170	7
171	1
179	1
180	1
181	2
182	2
183	48
184	7
185	1
193	1
194	1
195	2
196	1
197	52
198	8
199	1
200	1
201	1
202	2
207	1
208	2
209	3
210	33
211	63
212	10
213	1
221	1
222	1
223	1
224	45
225	43
226	7
227	1
238	1
239	15
240	3
241	1
251	3
252	1
253	24
254	5
255	1
264	1
265	1
266	19
267	18
268	3
279	1
280	27
281	28
282	6
283	1
294	1
295	4
296	1
309	1
321	1
322	1
323	4
324	1
336	31
337	28
338	7
339	1
379	4
380	1
