Mass Spectrum: Cyclohexane, 1,2-dimethoxy-, cis-
Formula: C8 H16 O2
CAS: 30363-80-5
Molecular weight: 144
m/z	RELATIVE INTENSITY
39	1501
41	4704
42	701
43	1301
45	3803
46	200
47	200
51	200
52	200
53	601
54	500
55	1301
56	400
57	500
58	2803
59	801
61	100
63	100
65	300
66	300
67	801
68	300
69	1301
70	200
71	9909
72	801
73	400
74	100
75	400
77	200
78	200
79	500
80	500
81	1301
82	1702
83	300
84	9999
85	1001
86	200
87	400
91	500
93	200
97	1702
98	200
99	300
101	300
102	100
103	100
111	601
112	2702
113	601
129	200
144	4704
145	400
