Mass Spectrum: Naphthalene, 1,2-dihydro-1,1,6-trimethyl-
Formula: C13 H16
CAS: 30364-38-6
Molecular weight: 172
Origin: MASS SPECTRA OF ORGANIC COMPOUNDS, CSIRO, B.H. KENNETT ET AL
m/z	RELATIVE INTENSITY
27	500
29	200
39	900
40	100
41	300
43	600
50	100
51	500
52	300
53	200
54	100
55	300
56	100
57	300
58	100
63	500
64	500
65	300
67	100
68	100
69	200
70	100
71	400
72	100
74	100
75	200
76	200
77	800
78	200
79	200
83	100
85	200
86	100
89	200
91	500
93	200
101	100
102	100
103	100
105	100
106	600
107	100
108	300
115	1300
116	200
117	100
119	100
126	100
127	400
128	800
129	700
130	300
135	100
139	200
140	300
141	2000
142	4300
143	700
144	100
149	100
151	100
152	100
153	200
155	400
156	300
157	9999
158	1200
159	500
172	2600
173	400
