Mass Spectrum: 2-(Trifluoromethyl)phenyl acetonitrile
Formula: C9 H6 F3 N
CAS: 3038-47-9
Molecular weight: 185
Origin: Chuck Anderson, Aldrich Chemical Co.
m/z	RELATIVE INTENSITY
26	57
27	102
28	36
31	84
33	17
36	18
37	103
38	203
39	397
40	66
41	34
43	17
44	24
45	9
49	39
50	397
51	310
52	75
53	2
56	39
57	190
58	45
59	24
60	12
61	147
62	307
63	538
64	147
65	73
66	10
68	56
69	437
70	47
73	47
74	171
75	422
76	131
77	65
78	13
79	37
80	25
81	106
82	63
83	152
84	13
85	47
86	86
87	238
88	303
89	874
90	136
92	27
93	49
94	57
95	198
96	33
98	14
99	201
100	59
101	50
102	18
105	22
106	37
107	332
108	142
109	213
110	13
111	31
112	65
113	57
114	274
116	9999
117	754
118	60
119	205
120	50
121	17
123	3
124	44
125	183
126	94
127	90
132	91
133	13
134	354
135	65
137	116
138	386
139	137
140	34
143	13
144	99
145	321
146	90
152	14
156	35
157	67
158	173
159	74
163	10
164	72
165	982
166	650
167	56
183	11
184	136
185	2918
186	270
187	10
