Mass Spectrum: 1-Piperidineethanol
Formula: C7 H15 N O
CAS: 3040-44-6
Molecular weight: 129
Origin: Japan AIST/NIMC Database- Spectrum MS-NW-6403
m/z	RELATIVE INTENSITY
14	10
15	269
17	30
18	109
19	10
26	90
27	489
28	429
29	259
30	529
31	109
36	10
37	10
38	30
39	289
40	60
41	1469
42	1879
43	279
44	969
45	209
50	20
51	40
52	60
53	80
54	159
55	1499
56	509
57	189
58	40
60	10
65	20
66	10
67	80
68	109
69	539
70	569
71	40
72	30
73	40
74	30
78	10
79	60
80	30
81	20
82	90
83	99
84	309
85	30
86	10
88	10
94	20
95	10
96	179
97	60
98	9999
99	769
100	99
108	10
109	20
110	50
111	50
112	30
126	40
127	20
128	199
129	199
130	20
