Mass Spectrum: Pentanoic acid, 3-oxo-, methyl ester
Formula: C6 H10 O3
CAS: 30414-53-0
Molecular weight: 130
Origin: Japan AIST/NIMC Database- Spectrum MS-IW-6974
m/z	RELATIVE INTENSITY
13	10
14	90
15	1029
16	10
18	10
25	10
26	149
27	979
28	489
29	4739
30	129
31	389
32	179
33	70
37	20
38	30
39	149
40	20
41	239
42	999
43	1479
44	149
45	99
50	20
51	20
52	10
53	90
54	30
55	249
56	469
57	9999
58	399
59	3529
60	80
61	10
68	10
69	1659
70	129
71	40
72	50
73	20
74	289
75	10
81	10
83	10
84	20
85	70
86	10
87	40
88	90
89	20
97	40
98	529
99	969
100	90
101	4239
102	219
103	30
115	10
130	1839
131	179
132	20
