Mass Spectrum: Hexanoic acid, 3-oxo-, methyl ester
Formula: C7 H12 O3
CAS: 30414-54-1
Molecular weight: 144
m/z	RELATIVE INTENSITY
41	2800
42	2200
43	9999
57	1200
59	3200
69	2000
71	8999
74	800
84	800
85	600
101	4000
113	600
116	1100
129	200
144	1200
