Mass Spectrum: Malononitrile, phenyl-
Formula: C9 H6 N2
CAS: 3041-40-5
Molecular weight: 142
Origin: James Little,Eastman Chem.Co.,Kingsport,TN
m/z	RELATIVE INTENSITY
27	1291
28	3753
37	681
38	1291
39	2472
41	270
49	340
50	2602
51	3733
52	641
61	781
62	1371
63	2182
64	971
65	480
74	751
75	721
76	641
77	2863
78	510
87	691
88	1311
89	1902
90	651
91	240
113	210
114	1561
115	9999
116	2522
117	691
141	941
142	7637
143	871
