Mass Spectrum: 1H-Pyrrole, 2-phenyl-
Formula: C10 H9 N
CAS: 3042-22-6
Molecular weight: 143
Origin: James Little,Eastman Chem.Co.,Kingsport,TN
m/z	RELATIVE INTENSITY
38	200
39	691
41	160
44	310
50	380
51	571
59	671
62	370
63	811
65	340
71	360
72	921
74	240
76	270
77	530
86	160
87	220
88	230
89	931
90	300
91	140
102	150
103	220
104	540
113	230
114	390
115	5365
116	2702
117	961
118	90
140	190
141	320
142	871
143	9999
144	1271
145	80
