Mass Spectrum: 2,4-Dinitroso-1,3-naphthalenediol
Formula: C10 H6 N2 O4
CAS: 30436-87-4
Molecular weight: 218
Origin: Leung Pu, NIH, Bethesda, Maryland, U.S.
m/z	RELATIVE INTENSITY
48	68
49	804
50	5810
51	1904
52	798
53	525
54	239
55	245
56	137
57	261
58	31
59	63
60	316
61	828
62	1212
63	1188
64	747
65	592
66	259
67	62
68	226
69	710
70	153
71	31
72	27
73	973
74	3724
75	4181
76	9999
77	2122
78	526
79	106
81	34
83	42
84	81
85	311
86	459
87	615
88	1725
89	818
90	831
91	293
92	305
93	104
95	27
96	29
97	37
98	334
99	365
100	638
101	1860
102	2933
103	3859
104	8998
105	1506
106	228
107	92
113	28
114	3815
115	969
116	262
117	184
118	109
119	221
120	59
121	101
122	414
124	84
126	63
127	119
128	559
129	673
130	3938
131	800
132	729
133	332
134	26
142	1047
143	255
144	282
145	85
146	1411
147	3970
148	1635
149	625
150	85
154	27
156	164
157	196
158	337
159	165
160	259
161	96
162	131
163	166
170	1604
171	317
172	207
173	270
174	377
175	144
176	29
177	99
188	128
189	192
190	443
199	33
200	145
201	102
202	75
203	141
204	28
205	27
215	234
216	344
217	518
218	1629
219	422
