Mass Spectrum: Cyclobutanecarboxylic acid, phenyl ester
Formula: C11 H12 O2
CAS: 30466-31-0
Molecular weight: 176
Origin: Zaikin V.G., TIPS RAS, Moscow, Russia
m/z	RELATIVE INTENSITY
26	160
27	941
28	20
29	691
38	100
39	951
40	130
41	30
50	110
51	300
52	40
53	350
54	270
55	9999
56	400
62	40
63	150
64	70
65	641
66	350
77	470
78	40
79	60
82	290
83	4264
84	230
91	50
93	100
94	1592
95	120
107	170
120	140
148	50
176	941
177	120
