Mass Spectrum: 2,7-Octadien-1-ol, acetate, (E)-
Formula: C10 H16 O2
CAS: 30460-73-2
Molecular weight: 168
Origin: D.HENNEBERG, MAX-PLANCK INSTITUTE, MULHEIM, WEST GERMANY
m/z	RELATIVE INTENSITY
26	126
27	524
28	163
29	603
30	15
31	42
37	9
38	21
39	919
40	158
41	1574
42	185
43	9999
44	245
45	57
49	5
50	26
51	60
52	63
53	495
54	2220
55	1194
56	105
57	370
58	111
59	36
60	31
61	95
62	4
63	14
64	8
65	214
66	734
67	3073
68	384
69	128
70	351
71	192
72	48
73	72
74	5
75	5
76	3
77	215
78	192
79	1481
80	969
81	379
82	912
83	342
84	233
85	55
86	20
87	28
89	5
91	170
92	39
93	1272
94	119
95	185
96	30
97	117
98	98
99	49
100	44
101	88
102	7
103	5
105	21
106	10
107	119
108	752
109	160
110	31
111	64
112	47
113	45
114	20
121	5
122	4
123	5
124	34
125	64
126	454
127	54
128	7
135	6
138	3
139	4
140	3
147	3
150	3
153	3
