Mass Spectrum: 2-Amino-5-nitrobenzanilide
Formula: C13 H11 N3 O3
CAS: 30481-54-0
Molecular weight: 257
Origin: NIST Mass Spectrometry Data Center, 1994
m/z	RELATIVE INTENSITY
14	49
27	116
28	323
29	49
30	273
37	85
38	302
39	1208
40	278
41	605
42	77
44	54
50	249
51	709
52	1655
53	298
54	117
61	93
62	359
63	1257
64	1453
65	1960
66	649
67	106
74	97
75	140
76	135
77	671
78	299
79	348
80	148
83	68
88	74
89	172
90	738
91	3224
92	68
93	9999
94	782
97	53
99	112
101	39
104	52
105	156
106	196
107	441
119	4523
120	446
127	52
128	60
129	60
134	101
135	101
137	93
149	194
154	58
163	45
165	7384
166	711
167	113
181	109
182	73
210	80
227	142
240	84
241	90
257	5185
258	886
259	123
