Mass Spectrum: Chlorambucil
Formula: C14 H19 Cl2 N O2
CAS: 305-03-3
Molecular weight: 303
Origin: USAF ACADEMY, COLORADO SPRINGS, COLORADO 80840; J LLOYD PFLUG
m/z	RELATIVE INTENSITY
16	16
17	50
27	220
28	93
31	84
36	169
38	101
42	8
44	661
45	373
51	169
63	568
64	101
65	237
75	84
77	296
78	161
89	280
90	373
91	373
92	118
103	271
104	229
105	84
106	118
116	25
117	466
118	1738
119	195
128	110
130	262
131	585
132	585
133	76
144	186
145	144
146	271
152	93
156	93
158	84
166	135
168	135
174	127
180	127
181	271
182	127
183	118
186	25
190	118
191	152
192	110
194	322
195	101
196	144
205	101
218	152
230	483
231	84
232	288
234	84
254	9999
255	1518
256	2688
257	390
258	93
268	169
303	958
304	186
305	627
306	135
307	118
