Mass Spectrum: 2,6-Diiodo-4-nitrophenol
Formula: C6 H3 I2 N O3
CAS: 305-85-1
Molecular weight: 391
Origin: Japan AIST/NIMC Database- Spectrum MS-IW- 591
m/z	RELATIVE INTENSITY
28	80
29	10
30	99
37	60
38	30
39	60
44	10
49	10
50	60
51	60
52	20
53	349
54	10
60	20
61	269
62	709
63	819
64	90
65	10
66	10
73	20
74	40
75	10
77	10
78	10
79	129
80	10
89	10
90	319
91	1179
92	159
93	10
107	70
108	20
126	30
127	159
128	179
137	20
152	10
164	20
165	10
177	40
178	50
179	70
181	10
188	30
189	189
190	209
191	20
195	20
205	129
206	80
207	10
217	299
218	1919
219	139
233	139
234	139
235	90
247	10
254	109
265	329
266	20
269	20
299	129
301	40
305	30
315	10
316	10
317	139
333	329
334	20
344	70
345	429
346	30
361	1269
362	80
375	70
391	9999
392	699
393	80
