Mass Spectrum: Hydrazine, (2,5-dichlorophenyl)-
Formula: C6 H6 Cl2 N2
CAS: 305-15-7
Molecular weight: 176
Origin: Japan AIST/NIMC Database- Spectrum MS-IW- 722
m/z	RELATIVE INTENSITY
14	10
15	10
16	30
17	169
18	89
26	30
27	80
28	549
29	279
30	80
31	549
32	20
35	10
36	159
37	169
38	209
39	109
40	20
41	20
42	20
43	50
44	149
45	219
46	80
47	40
48	20
49	129
50	379
51	359
52	299
53	40
54	20
55	60
56	20
57	10
60	50
61	229
62	339
63	559
64	139
65	60
66	10
67	10
70	60
71	30
72	80
73	549
74	579
75	1299
76	309
77	719
78	259
79	30
80	30
81	20
83	99
84	129
85	209
86	99
87	119
88	349
89	219
90	319
91	50
92	10
95	10
96	30
97	249
98	149
99	219
100	60
101	50
103	40
105	99
106	20
107	70
108	30
109	369
110	259
111	1939
112	399
113	629
114	299
115	30
116	70
119	10
120	10
121	10
122	10
123	30
124	1499
125	469
126	629
127	209
128	60
129	20
132	10
133	3509
134	239
135	2229
136	149
137	359
138	30
139	109
140	20
141	2589
142	199
143	829
144	60
145	189
146	1789
147	369
148	1159
149	179
150	209
151	30
153	10
158	10
159	769
160	3009
161	2209
162	2049
163	1179
164	399
165	169
166	10
173	30
174	109
175	199
176	9999
177	849
178	6359
179	489
180	1029
181	70
