Mass Spectrum: Benzoic acid, 2-chloro-, 4-benzyloxyphenyl ester
Formula: C20 H15 Cl O3
CAS: 305374-05-4
Molecular weight: 338
Origin: Zaikin V.G., TIPS RAS, Moscow, Russia
m/z	RELATIVE INTENSITY
28	10
36	30
65	330
75	270
76	70
91	6506
92	440
111	1261
112	60
113	430
119	30
135	50
139	9999
140	721
141	3393
142	200
156	30
338	2722
339	530
340	951
341	180
