Mass Spectrum: 2-Propanamine, N-methyl-N-nitroso-
Formula: C4 H10 N2 O
CAS: 30533-08-5
Molecular weight: 102
Origin: W.T.RAINEY OAK RIDGE NATIONAL LABORATORY,OAK RIDGE,TN.USA
m/z	RELATIVE INTENSITY
30	2203
31	169
32	338
37	254
38	423
39	2372
40	677
41	4236
42	9999
43	8558
44	1271
45	84
51	84
52	169
53	84
54	593
55	423
56	7626
57	6355
58	677
59	169
60	593
61	254
70	508
71	762
72	338
73	84
85	338
87	423
88	84
102	6863
103	423
