Mass Spectrum: 3-Pentanol, 2,3,4-trimethyl-
Formula: C8 H18 O
CAS: 3054-92-0
Molecular weight: 130
m/z	RELATIVE INTENSITY
18	160
19	10
27	2342
28	340
29	931
30	30
31	390
32	10
33	10
41	3533
42	430
43	4344
44	210
45	2783
46	60
55	1141
56	130
57	761
58	70
59	591
60	20
67	100
68	60
69	3113
70	370
71	1311
72	170
73	1081
74	50
81	30
82	10
83	90
84	10
85	60
86	140
87	9999
88	540
96	10
97	120
98	20
99	40
100	40
101	110
102	10
112	20
113	10
114	10
115	220
116	20
129	10
130	10
