Mass Spectrum: Benzene, 1-methyl-3,5-bis(1-methylethyl)-
Formula: C13 H20
CAS: 3055-14-9
Molecular weight: 176
Origin: NIST Mass Spectrometry Data Center, 1990.
m/z	RELATIVE INTENSITY
15	312
27	1099
28	906
29	276
32	149
39	926
40	182
41	1931
42	149
43	2349
44	142
50	134
51	543
52	163
53	314
55	168
58	101
63	355
64	335
65	807
66	111
69	97
71	846
72	700
73	274
76	143
77	951
78	287
79	413
89	237
91	2061
92	185
93	361
102	179
103	392
105	2626
106	240
115	1371
116	444
117	1078
118	179
119	3727
120	381
127	229
128	565
129	500
130	272
131	369
132	229
133	3074
134	346
145	320
147	152
159	111
161	9999
162	1341
176	2626
177	359
