Mass Spectrum: Benzonitrile, 4-iodo-
Formula: C7 H4 I N
CAS: 3058-39-7
Molecular weight: 229
Origin: RADIAN CORP
m/z	RELATIVE INTENSITY
25	30
26	120
27	270
36	70
37	660
38	660
39	240
48	60
49	500
50	2850
51	2030
52	440
60	40
61	250
62	320
63	160
64	80
72	30
73	410
74	1230
75	3830
76	1800
77	60
99	410
100	170
102	9999
103	790
114	120
115	130
127	3260
128	50
229	7970
230	240
