Mass Spectrum: Homovanillic acid
Formula: C9 H10 O4
CAS: 306-08-1
Molecular weight: 182
Origin: Japan AIST/NIMC Database- Spectrum MS-NW-2063
m/z	RELATIVE INTENSITY
14	20
15	109
17	30
18	159
26	50
27	159
28	139
29	90
31	50
32	10
37	40
38	109
39	609
40	159
41	169
42	30
43	129
44	90
45	169
46	10
49	20
50	169
51	519
52	149
53	169
54	30
55	339
56	10
61	20
62	60
63	119
64	60
65	439
66	369
67	199
68	30
69	30
71	10
74	30
75	30
76	30
77	429
78	159
79	129
80	10
81	50
82	30
83	10
89	10
90	10
91	60
92	20
93	80
94	799
95	239
96	20
97	50
105	149
106	109
107	279
108	40
109	30
110	20
111	30
121	50
122	1069
123	179
124	10
125	189
126	10
135	50
136	60
137	9999
138	919
139	90
149	30
153	10
164	20
167	40
181	40
182	4719
183	469
184	60
