Mass Spectrum: Ethane, 2,2-dichloro-1,1,1-trifluoro-
Formula: C2 H Cl2 F3
CAS: 306-83-2
Molecular weight: 152
Origin: Thomas J.Bruno
m/z	RELATIVE INTENSITY
31	4273
35	3593
37	1131
43	270
44	870
47	2272
48	2742
49	830
50	2031
51	1000
63	290
64	10
66	320
67	2222
69	4003
78	100
83	9999
85	6535
87	1050
97	170
98	590
100	180
101	90
116	60
117	330
119	90
133	1381
135	880
137	120
152	590
153	10
154	360
