Mass Spectrum: 2-(1-Methylvinyl)thiophene
Formula: C7 H8 S
CAS: 30616-73-0
Molecular weight: 124
Origin: V. KADENTSEV,ZELINSKII INST. ORG. CHEM.,ACAD. SCI.,MOSCOW,USSR
m/z	RELATIVE INTENSITY
39	2900
43	300
45	3200
51	800
53	600
58	800
59	200
65	2400
77	800
78	400
79	1200
84	2400
91	900
97	1800
109	8400
111	600
123	2400
124	9999
