Mass Spectrum: Benzene, 1,4-diphenoxy-
Formula: C18 H14 O2
CAS: 3061-36-7
Molecular weight: 262
Origin: G.A.M.S., PARIS, FRANCE.
m/z	RELATIVE INTENSITY
25	10
26	50
27	150
29	60
30	10
37	10
38	90
39	360
40	30
41	10
42	10
43	70
45	170
46	50
50	400
51	1930
52	130
53	60
54	80
55	70
58	20
61	10
62	60
63	320
64	210
65	180
66	40
74	70
75	130
76	190
77	5520
78	490
79	50
80	20
81	40
82	30
87	20
88	20
89	60
90	10
91	100
92	50
93	10
94	80
101	20
102	90
103	120
104	20
105	70
108	20
109	60
110	30
113	20
114	30
115	630
116	60
117	10
126	20
127	160
128	400
129	730
130	60
131	250
132	10
139	250
140	70
141	960
142	100
143	10
144	10
151	10
152	20
153	10
154	10
155	30
156	20
157	190
158	20
160	10
165	10
168	380
169	150
170	40
183	10
184	10
185	1000
186	310
187	30
189	10
191	20
202	20
203	20
204	10
205	20
215	20
231	20
233	110
234	60
235	10
260	10
261	30
262	9999
263	1700
264	170
265	10
