Mass Spectrum: 2-Hexen-4-yne, (Z)-
Formula: C6 H8
CAS: 30626-48-3
Molecular weight: 80
Origin: D.HENNEBERG, MAX-PLANCK INSTITUTE, MULHEIM, WEST GERMANY
m/z	RELATIVE INTENSITY
23	16
25	30
26	302
27	1630
28	158
29	152
30	4
31	62
32	11
33	23
34	41
35	23
36	45
37	463
38	722
39	3600
40	589
41	1103
42	110
43	322
44	33
45	16
46	4
47	11
48	65
49	252
50	1633
51	2320
52	2269
53	1482
54	326
55	124
56	228
57	131
58	16
59	12
60	38
61	161
62	315
63	590
64	101
65	1439
66	86
67	35
68	10
69	57
70	142
71	90
72	16
73	139
74	448
75	558
76	157
77	6657
78	1622
79	7611
80	9999
81	654
82	19
