Mass Spectrum: Hexafluoroisopropyl methacrylate
Formula: C7 H6 F6 O2
CAS: 3063-94-3
Molecular weight: 236
Origin: NIST Mass Spectrometry Data Center, 1998.
m/z	RELATIVE INTENSITY
15	40
25	10
26	80
27	80
29	260
30	10
31	80
32	10
33	10
36	10
37	200
38	530
39	4230
40	1080
41	6989
42	410
43	100
44	60
45	120
47	70
49	10
50	120
51	370
52	20
53	180
54	60
55	150
56	60
57	100
59	120
60	30
61	10
63	80
64	10
66	20
67	50
68	440
69	9999
70	390
71	50
72	180
73	10
74	30
75	10
77	20
78	30
79	20
81	10
82	210
83	30
85	50
87	20
89	10
90	10
91	20
93	50
95	10
97	20
99	20
100	20
101	40
102	10
103	230
104	10
107	20
108	10
112	10
113	340
114	10
119	20
120	70
121	40
123	60
126	10
127	20
129	20
131	10
132	80
133	10
139	30
140	30
145	80
146	10
147	10
148	40
149	30
150	10
151	190
152	20
157	10
167	120
168	80
169	120
170	10
171	40
172	330
173	30
174	10
181	10
190	10
191	10
194	10
195	10
197	460
198	30
207	20
208	20
216	30
217	200
218	20
221	450
222	30
235	220
236	2170
237	170
238	10
