Mass Spectrum: 2-Pyridinecarboxylic acid, 5-nitro-
Formula: C6 H4 N2 O4
CAS: 30651-24-2
Molecular weight: 168
m/z	RELATIVE INTENSITY
41	205
44	274
45	1337
46	584
49	616
50	2602
51	4667
52	1096
53	342
66	411
75	649
76	1027
77	991
78	2602
79	342
94	274
104	447
105	176
122	616
123	479
124	9999
125	685
126	173
151	274
