Mass Spectrum: 1-Nonen-3-one, 1-phenyl-
Formula: C15 H20 O
CAS: 30669-47-7
Molecular weight: 216
m/z	RELATIVE INTENSITY
27	119
28	667
29	286
30	643
39	429
40	833
41	762
42	238
43	643
50	190
51	667
52	71
54	190
56	167
63	190
65	119
69	119
74	95
75	190
76	238
77	2428
78	238
91	429
101	119
102	714
103	4047
104	667
105	190
115	238
116	381
117	524
118	119
126	143
127	71
128	190
129	167
130	95
131	9999
132	952
133	119
144	167
145	1071
146	6237
147	762
148	95
159	405
160	71
173	190
174	119
187	190
215	190
216	1381
217	230
218	20
