Mass Spectrum: Benzoic acid, 3-methoxy-, 4-benzyloxyphenyl ester
Formula: C21 H18 O4
CAS: 306743-72-6
Molecular weight: 334
Origin: Zaikin V.G., TIPS RAS, Moscow, Russia
m/z	RELATIVE INTENSITY
63	30
64	100
65	150
76	30
77	621
78	40
79	30
91	2312
92	561
107	1271
108	90
135	9999
136	891
137	50
334	2823
335	591
336	70
