Mass Spectrum: Benzoic acid, 2-methyl-, 4-benzyloxyphenyl ester
Formula: C21 H18 O3
CAS: 306743-69-1
Molecular weight: 318
Origin: Zaikin V.G., TIPS RAS, Moscow, Russia
m/z	RELATIVE INTENSITY
28	60
39	160
41	70
50	30
51	80
52	30
54	30
57	30
63	120
64	50
65	821
66	40
81	30
89	170
90	160
91	3954
92	330
110	40
118	50
119	9999
120	831
121	50
318	571
319	120
