Mass Spectrum: 4-Methyl-5-trifluoromethyl-4H-1,2,4-tri- azolin-3(2H)-thione
Formula: C4 H4 F3 N3 S
CAS: 30682-81-6
Molecular weight: 183
Origin: Japan AIST/NIMC Database- Spectrum MS-NW-9013
m/z	RELATIVE INTENSITY
15	80
27	20
28	179
29	279
30	119
31	20
32	40
33	10
40	10
41	10
42	70
43	10
44	70
45	159
46	70
47	50
50	20
51	10
53	50
54	20
55	369
56	90
57	10
58	139
59	199
60	1349
61	50
62	60
63	10
64	10
69	599
70	189
71	20
72	109
73	369
74	219
75	40
76	99
77	10
78	10
82	30
85	20
87	10
90	40
91	199
92	10
94	10
95	10
96	80
105	20
106	50
110	669
111	40
113	50
114	50
115	10
118	109
120	10
123	30
124	99
125	219
126	10
130	10
134	20
135	10
138	149
139	10
150	60
151	20
153	119
154	10
155	20
162	10
163	10
164	229
165	10
166	10
182	169
183	9999
184	889
185	479
186	30
