Mass Spectrum: 1,1,2-Trimethyl-1-silacyclobutane
Formula: C6 H14 Si
CAS: 30681-90-4
Molecular weight: 114
Origin: L.E.GUSEL'NIKOV, TOPCHIEV INST. PETROCHEM. SYNTH., MOSCOW,USSR
m/z	RELATIVE INTENSITY
26	100
27	300
28	500
29	700
30	100
31	800
32	100
39	200
41	100
42	400
43	2500
44	2400
45	900
46	200
53	300
54	100
55	500
56	200
57	300
58	6000
59	3900
60	500
61	100
65	100
66	100
67	100
68	100
69	100
70	500
71	1100
72	9999
73	1700
74	400
75	100
83	100
85	600
86	8600
87	800
88	300
97	200
99	500
100	100
114	1400
115	200
116	100
