Mass Spectrum: 2-Oxetanone, 4-methyl-
Formula: C4 H6 O2
CAS: 3068-88-0
Molecular weight: 86
Origin: NIST Mass Spectrometry Data Center
m/z	RELATIVE INTENSITY
12	10
13	50
14	270
15	571
16	20
19	10
20	10
24	10
25	70
26	380
27	961
29	751
30	10
31	30
35	10
36	40
37	270
38	430
39	1411
40	601
41	2232
42	9999
43	4814
44	370
45	100
53	20
55	10
68	20
69	20
71	180
