Mass Spectrum: 2-Propenoic acid, 2,2,3,3,4,4,5,5,6,6,7,7,8,8,8-pentadecafluorooctyl ester
Formula: C11 H5 F15 O2
CAS: 307-98-2
Molecular weight: 454
Origin: RADIAN CORP
m/z	RELATIVE INTENSITY
25	30
26	410
27	2520
28	30
29	290
30	130
31	320
33	30
42	20
44	20
51	100
53	200
55	9999
56	50
57	90
64	120
75	10
85	540
86	10
91	10
93	30
95	60
100	70
119	40
135	40
435	50
454	10
455	20
