Mass Spectrum: 1-Ethyl-3-pyrrolidinol
Formula: C6 H13 N O
CAS: 30727-14-1
Molecular weight: 115
Origin: Chuck Anderson, Aldrich Chemical Co.
m/z	RELATIVE INTENSITY
14	32
15	460
26	267
27	1677
28	2220
29	1924
30	1743
31	419
32	24
36	5
37	18
38	55
39	448
40	203
41	1513
42	5262
43	9999
44	1545
45	75
50	70
51	46
52	59
53	123
54	308
55	341
56	1085
57	538
58	1513
59	75
60	48
65	5
67	75
68	493
69	127
70	497
71	5723
72	542
73	19
80	92
81	11
82	686
83	53
84	83
85	30
86	136
87	15
94	35
95	18
96	501
97	35
98	186
100	8222
101	382
102	22
112	39
114	756
115	2960
116	181
