Mass Spectrum: 1,1':4',1'':4'',1''':4''',1''''-Quinquephenyl
Formula: C30 H22
CAS: 3073-05-0
Molecular weight: 382
Origin: LAC, NIDDK, NIH, Bethesda, MD 20892
m/z	RELATIVE INTENSITY
49	134
51	209
63	53
65	65
76	53
77	844
78	245
84	47
89	54
91	399
102	128
103	45
115	472
126	110
127	248
128	424
129	169
139	122
141	50
150	218
151	354
152	617
153	232
156	56
158	48
163	131
165	295
167	355
168	134
169	45
170	139
175	94
176	212
177	45
178	275
179	386
182	135
183	56
187	48
188	144
189	408
190	305
191	2411
200	116
201	45
202	396
203	307
204	204
215	116
226	400
227	223
228	420
229	117
230	140
239	256
241	123
243	373
250	51
252	289
254	90
256	319
263	100
265	224
267	234
269	115
276	118
278	53
279	45
280	99
281	47
282	118
289	235
300	101
302	256
303	102
304	108
341	49
380	72
382	9999
383	2817
384	475
