Mass Spectrum: Cyclohexane, 1,1,3-trimethyl-
Formula: C9 H18
CAS: 3073-66-3
Molecular weight: 126
Origin: NIST Mass Spectrometry Data Center, 1990.
m/z	RELATIVE INTENSITY
14	23
15	167
27	1416
28	336
29	1213
39	2021
40	458
41	4306
42	792
43	1149
44	48
45	27
46	30
47	27
50	94
51	207
52	114
53	686
54	27
55	4798
56	2099
57	871
58	41
63	48
64	26
65	183
66	86
67	622
68	26
69	8803
70	1360
71	116
77	160
78	43
79	159
80	43
81	117
82	220
83	2284
84	324
85	85
91	94
93	36
95	126
96	27
97	31
98	76
111	9999
112	977
113	37
125	32
126	238
127	28
