Mass Spectrum: 2-Amino-5-nitropyrimidine
Formula: C4 H4 N4 O2
CAS: 3073-77-6
Molecular weight: 140
Origin: Japan AIST/NIMC Database- Spectrum MS-NW-6961
m/z	RELATIVE INTENSITY
12	20
13	30
14	20
15	10
16	20
18	20
24	20
25	60
26	99
27	349
28	2699
29	60
30	779
32	10
37	40
38	339
39	559
40	1679
41	189
42	879
43	1789
44	1699
45	50
46	90
48	10
50	40
51	369
52	2469
53	1009
54	309
55	689
56	30
64	50
65	199
66	679
67	4029
68	219
69	90
70	549
71	40
72	50
76	10
77	50
78	10
79	30
80	1049
81	109
82	749
83	129
92	50
93	589
94	429
95	30
96	70
97	319
98	20
107	329
108	20
110	419
111	20
122	20
123	60
124	199
125	10
140	9999
141	629
142	60
