Mass Spectrum: 1-Heptene, 2,6-dimethyl-
Formula: C9 H18
CAS: 3074-78-0
Molecular weight: 126
Origin: Japan AIST/NIMC Database- Spectrum MS-NW-3489
m/z	RELATIVE INTENSITY
15	70
26	50
27	1009
28	30
29	1189
30	30
37	20
38	60
39	1229
40	289
41	3589
42	939
43	3169
44	109
50	60
51	119
52	60
53	449
54	189
55	4429
56	9999
57	1849
58	90
59	30
62	10
63	30
65	70
66	30
67	379
68	279
69	3399
70	2649
71	319
72	20
77	60
78	20
79	60
80	10
81	80
82	70
83	639
84	239
85	40
91	30
93	20
95	60
97	20
98	179
99	20
108	10
109	20
110	20
111	209
112	20
126	1229
127	119
