Mass Spectrum: 2,3-Dimethyl-2-heptene
Formula: C9 H18
CAS: 3074-64-4
Molecular weight: 126
Origin: NIST Mass Spectrometry Data Center, 1990.
m/z	RELATIVE INTENSITY
15	84
27	1036
28	358
29	800
39	2071
40	450
41	4112
42	454
43	852
50	131
51	351
52	188
53	929
54	131
55	9999
56	730
57	177
63	86
65	344
67	1356
69	3710
70	1424
71	138
77	253
78	57
79	298
80	52
81	386
82	52
83	8073
84	2192
85	153
91	93
95	74
96	76
97	471
111	159
126	2477
127	260
