Mass Spectrum: Hexane, 3-ethyl-4-methyl-
Formula: C9 H20
CAS: 3074-77-9
Molecular weight: 128
Origin: NIST Mass Spectrometry Data Center, 1990.
m/z	RELATIVE INTENSITY
12	6
14	14
15	100
16	2
26	174
27	2211
28	416
29	3347
30	82
37	17
39	1673
41	5601
42	1650
43	7524
44	249
50	55
51	147
52	66
53	484
54	17
55	3468
56	3681
57	9999
58	457
59	10
62	12
63	30
65	88
66	34
67	173
68	10
69	716
70	7731
71	3044
72	150
77	53
79	44
80	8
81	22
83	72
84	42
85	153
86	20
98	952
99	1628
100	107
128	255
129	24
