Mass Spectrum: Hexane, 4-ethyl-2-methyl-
Formula: C9 H20
CAS: 3074-75-7
Molecular weight: 128
m/z	RELATIVE INTENSITY
25	10
26	130
27	2662
28	380
29	2612
30	60
36	10
37	30
38	60
39	1381
40	200
41	3493
42	691
43	7527
44	250
45	10
49	10
50	40
51	80
52	40
53	270
54	100
55	1381
56	1091
57	9999
58	440
59	10
62	10
63	20
64	10
65	30
66	20
67	80
68	50
69	500
70	1321
71	1461
72	80
73	10
77	20
78	10
79	20
80	10
81	10
82	10
83	110
84	260
85	420
86	30
91	10
97	20
98	881
99	1221
100	90
101	10
113	10
127	10
128	90
129	10
