Mass Spectrum: Dibenzo[b,e][1,4]dioxin, 1,2,3,4-tetrachloro-
Formula: C12 H4 Cl4 O2
CAS: 30746-58-8
Molecular weight: 320
Origin: CHEM. RES. LAB., WRIGHT-PATTERSON AIR FORCE BASE, OHIO, USA
m/z	RELATIVE INTENSITY
26	635
27	129
35	120
36	573
37	123
38	597
39	483
47	114
49	117
50	2060
51	848
52	1258
53	363
61	193
62	219
63	974
64	509
74	644
75	764
76	831
77	143
79	152
80	260
83	120
85	138
87	334
89	114
92	266
95	316
97	492
98	527
99	140
104	208
107	202
109	164
110	102
111	413
113	114
114	158
115	281
118	263
120	380
121	138
122	152
123	260
125	357
129	187
132	304
133	222
135	129
142	424
153	132
155	231
159	413
160	1314
161	1568
181	187
183	140
187	184
194	1504
195	310
196	892
198	219
222	155
229	477
231	483
233	138
240	173
243	140
250	310
252	120
257	2118
258	351
259	1946
260	336
261	688
264	114
266	211
285	260
286	334
287	211
288	295
293	146
320	7343
322	9999
324	4567
326	945
