Mass Spectrum: Hexane, 3-ethyl-3-methyl-
Formula: C9 H20
CAS: 3074-76-8
Molecular weight: 128
m/z	RELATIVE INTENSITY
25	10
26	110
27	2152
28	280
29	2542
30	60
37	20
38	40
39	1041
40	140
41	3103
42	330
43	6176
44	210
45	10
49	10
50	30
51	90
52	40
53	300
54	70
55	1161
56	260
57	9999
58	440
59	10
62	10
63	20
64	10
65	40
66	20
67	90
68	30
69	661
70	350
71	681
72	40
77	20
78	10
79	20
80	10
81	20
82	10
83	70
84	791
85	2853
86	180
87	10
91	10
97	10
98	811
99	1912
100	140
101	10
112	10
113	150
114	10
128	10
