Mass Spectrum: Heptane, 2,3-dimethyl-
Formula: C9 H20
CAS: 3074-71-3
Molecular weight: 128
Origin: Japan AIST/NIMC Database- Spectrum MS-NW-3917
m/z	RELATIVE INTENSITY
15	40
26	30
27	799
28	69
29	889
30	20
38	20
39	529
40	90
41	1759
42	999
43	9999
44	349
45	10
50	10
51	40
52	10
53	129
54	70
55	1069
56	1269
57	2109
58	99
59	10
65	10
67	40
68	20
69	689
70	509
71	1799
72	99
77	10
83	30
84	3979
85	3429
86	229
98	20
99	50
113	30
127	10
128	129
129	10
