Mass Spectrum: 1,2-Dimethylaziridine
Formula: C4 H9 N
CAS: 30757-96-1
Molecular weight: 71
Origin: A.Pleshkova, Nesmeyanov Inst.Org.Elem.Cpds, Moscow
m/z	RELATIVE INTENSITY
26	100
27	1491
28	3703
29	2202
30	1551
31	110
39	771
40	140
41	1722
42	8338
43	1992
44	1171
45	90
54	1011
55	540
56	9999
57	891
58	90
68	220
70	2963
71	7056
72	651
73	40
