Mass Spectrum: 1,1'-Biphenyl, 2,2',5,5'-tetramethyl-
Formula: C16 H18
CAS: 3075-84-1
Molecular weight: 210
Origin: A.A.Kutin, Moscow, Russia
m/z	RELATIVE INTENSITY
37	3
39	155
40	15
41	46
42	1
43	4
50	58
51	169
52	48
53	77
54	7
55	5
56	2
58	12
62	41
63	177
64	54
65	104
66	14
67	14
70	57
74	46
75	106
76	421
77	365
78	130
79	103
80	14
83	323
85	7
86	25
87	59
89	1087
90	577
91	203
95	261
96	528
99	18
100	19
101	87
102	189
103	507
104	434
105	312
107	2
109	1
110	7
111	12
112	4
113	31
115	413
116	65
117	43
118	29
119	11
120	2
121	3
122	5
123	3
124	2
125	13
126	68
127	176
128	375
129	155
130	26
131	6
132	2
134	2
135	1
137	8
139	178
140	39
141	246
142	92
143	28
144	5
149	5
150	73
151	212
152	693
153	519
154	134
155	152
156	50
157	10
158	2
161	5
162	18
163	105
165	3185
166	761
167	543
168	92
169	48
170	13
171	3
174	11
176	265
177	328
178	2132
179	2515
180	3898
181	1011
182	150
183	18
184	2
185	2
186	3
187	24
189	333
190	189
191	390
192	246
193	606
195	9999
196	2350
197	193
198	11
199	2
200	9
201	10
202	38
203	20
204	7
205	18
206	12
207	41
210	8497
211	2002
212	182
213	9
