Mass Spectrum: Diethyl (4-biphenylylmethyl)phosphonate
Formula: C17 H21 O3 P
CAS: 30818-70-3
Molecular weight: 304
Origin: NIST Mass Spectrometry Data Center, 1994
m/z	RELATIVE INTENSITY
15	140
17	7
18	48
19	59
26	156
27	1205
28	358
29	3148
30	88
31	23
39	380
40	28
41	15
42	24
43	144
44	34
45	253
47	210
49	14
50	99
51	237
52	57
58	31
62	82
63	362
65	718
71	28
75	105
76	128
77	228
78	74
79	20
80	20
81	1710
82	122
84	91
87	82
88	68
89	324
90	53
91	651
92	28
93	103
96	83
97	299
101	41
102	140
103	31
109	988
110	46
113	98
114	61
115	667
116	66
124	339
126	98
127	108
128	408
129	48
137	100
139	413
140	68
141	163
150	60
151	256
152	1593
153	334
154	79
155	71
162	35
163	240
164	456
165	3420
166	35
167	9999
168	1534
169	137
170	23
178	38
179	121
181	1173
182	157
183	116
193	372
194	595
195	307
196	43
230	96
247	81
248	379
249	57
261	110
275	170
276	877
277	136
289	91
304	2478
305	483
306	56
