Mass Spectrum: Diisopropylcyanamide
Formula: C7 H14 N2
CAS: 3085-76-5
Molecular weight: 126
Origin: Japan AIST/NIMC Database- Spectrum MS-IW-1899
m/z	RELATIVE INTENSITY
14	10
15	149
26	40
27	749
28	209
29	50
30	40
37	20
38	50
39	569
40	159
41	1659
42	899
43	5709
44	289
52	10
53	99
54	60
55	229
56	90
57	30
58	319
59	10
66	10
67	169
68	129
69	9999
70	519
71	10
72	10
73	10
81	10
82	20
83	369
84	159
85	50
86	20
95	10
98	10
100	20
101	30
111	819
112	60
126	1879
127	169
