Mass Spectrum: Benzamide, 3,4,5-trimethoxy-
Formula: C10 H13 N O4
CAS: 3086-62-2
Molecular weight: 211
Origin: Japan AIST/NIMC Database- Spectrum MS-NW-8217
m/z	RELATIVE INTENSITY
14	10
15	179
16	10
26	10
27	99
28	30
29	60
36	10
37	50
38	239
39	529
40	30
41	60
42	30
43	99
44	569
45	60
49	30
50	269
51	259
52	109
53	399
54	129
55	60
56	10
57	20
58	10
59	40
60	10
61	40
62	99
63	169
64	129
65	269
66	579
67	589
68	70
69	109
70	20
71	10
74	50
75	129
76	169
77	379
78	169
79	199
80	139
81	409
82	99
83	30
85	10
89	20
90	40
91	80
92	189
93	459
94	169
95	279
96	189
97	169
98	70
99	10
102	20
103	60
104	60
105	50
106	109
107	199
108	269
109	359
110	729
111	70
112	20
113	10
117	10
118	50
119	159
120	99
121	109
122	289
123	249
124	149
125	729
126	60
127	10
132	20
133	50
134	60
135	239
136	399
137	309
138	499
139	169
140	1899
141	179
142	20
147	30
148	20
149	129
150	219
151	529
152	329
153	349
154	40
155	10
162	10
163	40
164	99
165	189
166	70
167	159
168	429
169	50
177	10
178	169
179	179
180	70
181	90
182	169
183	20
193	209
194	60
195	1409
196	4449
197	479
198	60
210	70
211	9999
212	1139
213	139
214	10
