Mass Spectrum: 2-Hydroxyethyl vinyl sulfide
Formula: C4 H8 O S
CAS: 3090-56-0
Molecular weight: 104
Origin: Dennis Rohrbaugh, CBDCOM/ERDEC, Edgewood, MD
m/z	RELATIVE INTENSITY
41	899
42	499
43	1329
44	1059
45	9999
46	1359
47	2339
57	1339
58	2869
59	3079
60	4339
61	1469
62	239
71	149
73	4059
74	499
75	549
76	90
85	229
86	80
104	2819
105	169
106	139
