Mass Spectrum: Hydrazine, (1-methylpropyl)-
Formula: C4 H12 N2
CAS: 30924-14-2
Molecular weight: 88
Origin: ATLAS OF MASS SPECTRA OF ORGANIC COMPOUNDS, V. A. KOPTYUG, ED.
m/z	RELATIVE INTENSITY
26	210
27	1420
28	1770
29	2920
30	920
31	1690
32	4300
33	220
38	80
39	770
40	150
41	1920
42	3000
43	640
44	450
45	3690
46	80
51	70
53	110
54	140
55	260
56	770
57	550
58	250
59	9999
60	480
70	130
71	80
72	80
73	1080
74	60
87	60
88	2000
89	500
