Mass Spectrum: Perillartine
Formula: C10 H15 N O
CAS: 30950-27-7
Molecular weight: 165
Origin: NIST Mass Spectrometry Data Center, 1994
m/z	RELATIVE INTENSITY
14	30
15	290
16	113
17	84
27	2921
28	1965
29	1030
30	699
31	150
32	7
37	120
39	4725
40	1203
41	3794
42	812
43	738
44	427
45	47
46	135
50	620
51	1644
52	1250
53	3945
54	674
55	1391
56	742
57	159
59	99
61	61
62	169
63	547
64	232
65	1723
66	814
67	5184
68	5740
69	1030
70	359
71	63
72	192
73	109
74	153
75	157
76	61
77	3206
78	1266
79	3190
80	2543
81	1071
82	529
83	170
84	203
85	103
86	75
87	39
88	35
89	244
90	35
91	3290
92	937
93	2016
94	1389
95	897
96	3853
97	524
98	375
99	49
101	45
102	128
103	519
104	1058
105	2924
106	2727
107	1221
108	514
109	1897
110	1710
111	168
112	64
115	448
116	542
117	873
118	820
119	808
120	1830
121	921
122	1862
123	841
124	1125
125	115
127	25
128	80
129	280
130	342
131	2456
132	1380
133	1372
134	295
135	118
136	485
137	320
138	382
143	27
144	76
146	502
148	9999
149	1181
150	692
151	74
165	1546
166	200
