Mass Spectrum: 4-Phenoxybenzonitrile
Formula: C13 H9 N O
CAS: 3096-81-9
Molecular weight: 195
Origin: NIST Mass Spectrometry Data Center, 1994
m/z	RELATIVE INTENSITY
14	19
18	42
26	280
27	973
28	269
29	50
37	722
38	1239
39	3950
40	308
41	97
42	37
50	2891
51	8546
52	682
53	210
54	28
55	119
57	34
61	259
62	779
63	1938
64	1222
65	1498
66	311
67	28
68	90
69	28
70	748
73	168
74	890
75	1482
76	1435
77	9999
78	740
79	36
83	278
84	618
86	76
87	125
88	176
89	172
90	463
91	107
92	88
93	83
94	316
98	310
99	97
100	88
101	93
102	487
103	60
111	26
112	32
113	172
114	130
115	248
116	54
119	89
127	68
128	57
137	46
138	100
139	607
140	1212
141	232
153	39
154	30
164	127
166	2564
167	4583
168	630
169	97
180	39
194	1502
195	7660
196	1149
197	115
