Mass Spectrum: 2-Nitro-9-fluorenone
Formula: C13 H7 N O3
CAS: 3096-52-4
Molecular weight: 225
Origin: Japan AIST/NIMC Database- Spectrum MS-NW-2157
m/z	RELATIVE INTENSITY
18	10
26	10
27	30
28	269
30	189
32	10
37	30
38	40
39	119
42	20
43	20
44	40
45	10
46	20
49	20
50	199
51	319
52	30
53	20
55	10
60	10
61	99
62	239
63	219
64	20
65	20
69	30
73	50
74	449
75	949
76	239
77	309
78	20
81	10
82	10
85	60
86	159
87	189
88	50
89	80
97	20
98	259
99	279
100	129
101	219
102	20
109	20
110	70
111	99
112	20
113	70
114	10
115	10
121	10
122	80
123	70
124	60
125	409
126	50
127	10
129	10
137	40
138	80
139	1069
140	129
141	10
146	10
149	179
150	2279
151	6309
152	839
153	70
162	10
163	60
164	139
165	309
166	50
167	829
168	109
169	10
177	10
178	50
179	2239
180	319
181	50
193	10
194	90
195	2309
196	349
197	30
209	99
210	20
224	20
225	9999
226	1439
227	159
228	10
