Mass Spectrum: Nonanoic acid, 2-methylpropyl ester
Formula: C13 H26 O2
CAS: 30982-03-7
Molecular weight: 214
Origin: Insect Chem. Ecol. Lab., USDA, Beltsville, MD 20705
m/z	RELATIVE INTENSITY
41	3980
42	1111
43	3452
45	237
47	5
50	9
51	29
52	16
53	201
54	92
55	2479
56	9999
57	2934
58	295
60	2037
61	489
62	17
63	6
65	28
66	3
67	263
68	170
69	636
70	254
71	1277
73	1247
74	135
75	22
77	20
78	7
79	50
80	27
81	274
82	46
83	293
84	286
85	124
86	100
87	364
88	5
89	122
91	10
93	34
94	29
95	64
96	127
97	267
98	330
99	79
100	5
101	268
102	32
103	74
104	3
105	2
107	10
108	5
109	24
110	14
111	56
112	97
113	79
114	15
115	579
116	743
117	146
118	9
119	3
120	5
121	49
122	30
123	91
124	2
125	45
127	378
129	591
130	54
131	34
132	2
135	6
137	4
138	59
139	132
141	5212
142	505
143	73
144	55
145	300
146	24
147	2
153	2
155	74
156	10
157	172
158	1265
159	5020
160	458
161	43
169	8
170	8
171	69
172	28
173	76
174	3
175	7
178	15
184	8
185	119
186	30
187	8
199	115
200	17
212	27
213	275
214	1311
215	187
216	20
