Mass Spectrum: Nicametate
Formula: C12 H18 N2 O2
CAS: 3099-52-3
Molecular weight: 222
Origin: Patti Price, Georgia Bureau of Investigation, Decatur, Georgia
m/z	RELATIVE INTENSITY
44	160
50	270
51	910
56	390
57	150
58	740
68	10
69	30
70	130
71	220
78	1301
82	30
84	200
85	40
86	9999
87	580
98	30
99	470
105	40
106	860
115	30
123	50
150	720
207	80
208	20
222	60
