Mass Spectrum: 2-Chloro-1,1,2-trifluoroethyl ethyl ether
Formula: C4 H6 Cl F3 O
CAS: 310-71-4
Molecular weight: 162
Origin: NIST Mass Spectrometry Data Center
m/z	RELATIVE INTENSITY
13	20
14	50
15	230
19	10
20	10
25	10
26	280
27	1792
28	831
29	9999
30	230
31	540
32	130
33	40
35	20
36	10
38	10
41	30
42	40
43	160
44	50
45	510
46	10
47	170
48	50
49	330
50	40
51	300
59	20
60	90
61	250
62	10
63	30
65	10
67	941
68	20
69	300
77	40
79	10
80	20
81	10
82	220
85	10
93	10
95	2432
96	70
97	60
98	60
99	20
100	20
115	10
117	1111
118	30
119	360
147	240
148	10
149	80
161	100
163	30
