Mass Spectrum: 1-Methylcyclopropene
Formula: C4 H6
CAS: 3100-04-7
Molecular weight: 54
Origin: Randolph Beaudry, Michigan State University, MI
m/z	RELATIVE INTENSITY
12	50
13	60
14	90
15	110
18	40
24	40
25	350
26	1852
27	8037
28	2803
29	60
36	160
37	881
38	1091
39	9999
40	340
41	50
48	150
49	831
50	2562
51	2813
52	891
53	4314
54	7056
55	310
70	20
