Mass Spectrum: Manganese, [5,10,15,20-tetraphenyl-21H,23H-porphinato(2-)-N21,N22,N23,N24]-, (SP-4-1)-
Formula: C44 H28 Mn N4
CAS: 31004-82-7
Molecular weight: 667
Origin: ORMSBG,9(1)72(1974); ADLER
m/z	RELATIVE INTENSITY
256	350
293	350
294	450
295	350
330	90
331	90
332	120
333	240
334	620
511	190
512	90
513	230
514	130
585	160
586	110
587	350
588	160
589	590
590	250
663	180
664	110
665	350
666	230
667	9999
668	5050
669	1180
