Mass Spectrum: 2-Cyclohexen-1-one, 2-methyl-5-(1-methylethenyl)-, (2,4-dinitrophenyl)hydrazone
Formula: C16 H18 N4 O4
CAS: 3102-61-2
Molecular weight: 330
Origin: J.CASSAN FACULTY OF SCIENCE, UNIV. OF NICE, NICE, FRANCE
m/z	RELATIVE INTENSITY
38	186
39	1045
40	259
41	1954
42	368
43	313
44	168
45	245
50	199
51	463
52	395
53	1908
54	327
55	999
56	136
59	163
62	204
63	490
64	327
65	727
66	299
67	818
68	381
69	259
75	340
76	268
77	1363
78	381
79	1818
80	772
81	477
82	272
90	245
91	2499
92	586
93	1318
94	772
95	290
103	299
104	281
105	1590
106	1590
107	2045
108	490
109	272
115	340
116	322
117	559
118	409
119	177
120	268
121	259
122	336
123	136
128	140
129	172
130	254
131	627
132	709
133	899
134	409
135	149
137	163
143	163
144	172
146	368
147	218
148	381
149	190
151	122
152	299
153	295
154	131
164	109
165	227
166	113
167	249
168	222
169	140
170	104
179	136
180	177
181	213
182	213
183	599
184	268
190	113
193	109
194	149
195	295
196	159
197	113
206	140
207	313
208	222
209	177
220	109
221	181
222	213
223	118
228	163
229	104
235	118
236	140
237	104
239	168
240	145
241	159
242	145
243	204
249	327
250	118
252	113
253	340
254	190
255	190
267	199
268	190
269	136
270	140
271	104
273	136
281	218
282	127
287	281
288	199
289	9999
290	1590
291	259
295	295
296	168
300	227
313	81
314	72
315	99
316	13
330	2954
331	572
332	186
