Mass Spectrum: 9-Nonadecene
Formula: C19 H38
CAS: 31035-07-1
Molecular weight: 266
Origin: NIST Mass Spectrometry Data Center, 1990.
m/z	RELATIVE INTENSITY
14	27
16	6
18	195
27	1528
28	512
29	3991
30	53
32	57
39	1203
41	9070
42	1685
43	8431
44	331
51	52
53	890
54	3060
55	9999
56	4558
57	6937
58	282
65	277
66	320
67	2768
68	1541
69	6937
70	4318
71	2922
72	164
77	226
79	512
80	226
81	1323
82	2021
83	7167
84	2545
85	1713
86	80
91	136
93	101
95	542
96	1253
97	6258
98	1532
99	435
100	51
109	186
110	635
111	3102
112	883
113	241
123	138
124	408
125	1424
126	533
127	105
137	84
138	209
139	486
140	323
141	65
152	130
153	262
154	181
166	95
167	138
168	125
181	80
182	75
238	64
266	813
267	171
