Mass Spectrum: Tetracyclo[3.3.1.0(2,8).0(4,6)]nonane
Formula: C9 H12
CAS: 3105-29-1
Molecular weight: 120
m/z	RELATIVE INTENSITY
26	60
27	1245
28	161
29	141
37	60
38	221
39	4036
40	402
41	4096
42	60
50	321
51	1084
52	422
53	622
54	181
55	321
62	201
63	462
64	141
65	1265
66	5461
67	462
68	100
74	60
75	181
76	80
77	3514
78	6104
79	9999
80	1345
81	201
89	181
90	161
91	6425
92	1928
93	502
102	100
103	502
104	201
105	2891
106	241
107	161
108	201
115	402
116	161
117	442
119	562
120	9979
121	964
