Mass Spectrum: Thiophene, 2-methoxy-5-methyl-
Formula: C6 H8 O S
CAS: 31053-55-1
Molecular weight: 128
m/z	RELATIVE INTENSITY
41	601
44	400
45	3303
47	300
50	200
51	601
52	300
53	701
54	100
55	100
57	200
58	701
59	2002
60	100
61	100
63	100
65	300
67	100
68	200
69	1301
70	400
71	200
75	100
76	100
77	100
78	300
79	100
82	100
83	100
84	400
85	6606
86	400
87	300
95	200
96	100
97	300
98	100
99	100
112	400
113	9609
114	701
115	601
127	100
128	9999
129	901
130	601
