Mass Spectrum: Nonane, 3-methyl-5-propyl-
Formula: C13 H28
CAS: 31081-18-2
Molecular weight: 184
Origin: D.HENNEBERG, MAX-PLANCK INSTITUTE, MULHEIM, WEST GERMANY
m/z	RELATIVE INTENSITY
26	73
27	800
28	170
29	1766
30	46
31	13
32	91
33	5
38	39
39	453
40	79
41	2868
42	580
43	6219
45	10
52	6
53	239
54	73
55	1739
56	1076
57	9999
58	469
63	10
65	18
67	129
68	97
69	539
70	1201
71	8068
72	423
74	26
77	14
79	34
81	28
82	143
83	376
84	403
85	4095
86	248
87	33
95	8
96	76
97	286
98	126
99	511
100	15
110	26
111	290
112	691
113	240
114	9
126	431
127	670
128	46
140	328
141	650
142	78
155	66
184	19
