Mass Spectrum: (R)-(-)-2-Pentanol
Formula: C5 H12 O
CAS: 31087-44-2
Molecular weight: 88
Origin: Japan AIST/NIMC Database- Spectrum MS-NW-5345
m/z	RELATIVE INTENSITY
14	20
15	199
17	30
18	109
19	10
26	80
27	879
28	119
29	449
30	10
31	529
32	10
35	10
37	30
38	60
39	459
40	60
41	619
42	279
43	1059
44	719
45	9999
46	229
47	30
50	20
51	30
52	10
53	50
54	10
55	1969
56	90
57	80
58	30
59	30
69	30
70	149
71	60
72	10
73	769
74	40
87	50
