Mass Spectrum: Diethyl p-nitrophenyl phosphate
Formula: C10 H14 N O6 P
CAS: 311-45-5
Molecular weight: 275
Origin: Japan AIST/NIMC Database- Spectrum MS-NW-6784
m/z	RELATIVE INTENSITY
14	40
15	189
16	30
17	60
18	299
19	40
25	20
26	359
27	1659
28	549
29	3609
30	1489
31	209
32	139
35	10
36	10
37	99
38	589
39	1009
40	60
41	149
42	90
43	509
44	90
45	1149
46	70
47	789
48	40
49	40
50	779
51	459
52	399
53	379
54	189
55	129
56	40
57	50
59	20
60	20
61	109
62	529
63	2219
64	1719
65	2049
66	189
67	50
68	119
69	40
70	20
71	119
72	10
73	60
74	389
75	1539
76	889
77	329
78	90
79	379
80	279
81	5359
82	429
83	239
84	30
85	50
86	10
87	20
88	20
89	40
90	60
91	1429
92	759
93	1129
94	409
95	99
96	50
97	20
98	20
99	4179
100	70
101	80
102	129
103	529
104	80
105	40
106	99
107	179
108	199
109	9999
110	899
111	269
112	20
113	30
115	50
116	20
117	179
118	30
119	1359
120	259
121	209
122	339
123	719
124	90
125	129
126	139
127	2809
128	119
129	50
130	10
131	1369
132	499
133	80
134	119
135	40
136	70
137	409
138	50
139	3759
140	349
141	70
142	10
143	99
144	20
145	60
146	10
147	20
148	40
149	5019
150	689
151	149
152	449
153	60
154	30
155	659
156	659
157	99
158	30
159	80
160	10
161	30
162	20
163	20
164	20
165	20
166	219
167	80
168	10
169	20
170	10
171	359
172	299
173	939
174	349
175	90
176	10
177	20
179	10
181	30
182	30
183	60
184	109
185	249
186	189
187	60
188	20
189	429
190	40
191	20
193	10
194	10
195	20
196	10
197	10
198	10
199	139
200	329
201	689
202	389
203	999
204	119
205	30
206	10
207	20
211	20
212	30
213	50
214	40
215	40
216	30
217	80
218	40
219	1649
220	1859
221	189
222	50
223	10
225	10
226	10
227	30
228	149
229	229
230	639
231	549
232	1529
233	159
234	30
235	20
237	10
239	10
240	10
242	10
243	20
244	20
245	70
246	819
247	2649
248	739
249	99
250	20
256	10
257	50
258	429
259	279
260	349
261	60
271	10
273	10
274	169
275	4369
276	519
277	80
278	10
