Mass Spectrum: Ethyl n-propyl sulfone
Formula: C5 H12 O2 S
CAS: 31110-65-3
Molecular weight: 136
Origin: NIST Mass Spectrometry Data Center, 1994
m/z	RELATIVE INTENSITY
12	11
13	12
14	49
15	448
16	15
18	23
19	14
26	699
27	5974
28	889
29	3301
30	62
32	18
33	28
34	26
35	22
37	65
38	201
39	1848
40	303
41	5318
42	1185
43	9999
44	307
45	160
46	71
47	84
48	243
49	85
50	89
51	16
55	18
56	26
57	82
58	53
59	28
60	13
61	28
62	27
63	211
64	82
65	254
66	2282
67	95
68	126
69	14
71	12
73	22
75	28
76	69
77	155
78	75
79	32
80	355
81	14
82	16
92	9
94	1402
95	1150
96	93
97	53
106	13
107	75
108	217
109	17
136	72
137	33
