Mass Spectrum: Benzene, [(methylsulfonyl)methyl]-
Formula: C8 H10 O2 S
CAS: 3112-90-1
Molecular weight: 170
Origin: NIST Mass Spectrometry Data Center, 1990.
m/z	RELATIVE INTENSITY
15	296
17	5
18	50
26	25
27	50
28	9
32	18
37	27
38	109
39	591
40	48
41	128
45	59
48	40
49	23
50	127
51	294
52	81
61	39
62	137
63	455
64	197
65	1387
66	71
76	27
77	66
78	35
79	59
87	38
89	370
91	9999
92	720
93	30
170	283
171	35
