Mass Spectrum: Benzyl phenyl sulfone
Formula: C13 H12 O2 S
CAS: 3112-88-7
Molecular weight: 232
Origin: NIST Mass Spectrometry Data Center
m/z	RELATIVE INTENSITY
13	10
16	20
27	100
28	10
37	30
38	100
39	811
40	50
41	180
44	30
45	60
50	410
51	1261
52	100
53	40
62	90
63	430
64	140
65	1641
66	90
69	40
74	100
75	70
77	801
78	80
89	360
91	9999
92	761
93	30
97	40
115	30
125	30
152	120
153	70
165	180
166	70
167	210
168	40
232	350
233	50
