Mass Spectrum: Butane, 1-(ethylsulfonyl)-
Formula: C6 H14 O2 S
CAS: 31124-38-6
Molecular weight: 150
m/z	RELATIVE INTENSITY
25	100
26	500
27	3003
28	2002
29	9308
30	300
32	100
34	100
38	100
39	801
40	200
41	5605
42	300
43	300
44	200
45	200
46	100
47	100
48	200
49	100
50	200
51	100
53	200
54	100
55	801
56	1702
57	9999
58	400
59	100
61	100
63	300
64	200
65	200
66	1101
67	200
68	100
75	100
76	200
77	200
78	400
80	701
94	400
95	3303
96	200
97	200
108	200
121	701
122	100
123	100
133	140
134	40
135	10
150	180
151	20
152	10
