Mass Spectrum: 3-Methyl-4-nitrobenzoic acid
Formula: C8 H7 N O4
CAS: 3113-71-1
Molecular weight: 181
Origin: Japan AIST/NIMC Database- Spectrum MS-NW-3692
m/z	RELATIVE INTENSITY
15	40
16	10
17	10
18	30
25	10
26	99
27	549
28	369
29	259
30	579
31	70
32	10
36	20
37	249
38	539
39	2509
40	269
41	519
42	40
43	659
44	90
45	549
46	80
47	10
48	10
49	109
50	829
51	1629
52	669
53	1449
54	99
55	519
56	20
57	30
58	10
59	10
60	40
61	329
62	1019
63	2789
64	959
65	3029
66	329
67	469
68	90
69	70
70	20
71	219
72	20
73	90
74	399
75	399
76	209
77	5069
78	1299
79	1579
80	1119
81	639
82	60
83	20
84	30
85	139
86	269
87	279
88	149
89	2729
90	1259
91	659
92	4329
93	499
94	119
95	199
96	40
97	20
99	10
101	10
102	30
103	60
104	50
105	909
106	429
107	1909
108	839
109	459
110	40
111	20
116	30
117	399
118	889
119	429
120	469
121	99
122	60
123	99
124	20
133	90
134	189
135	729
136	1439
137	179
138	20
146	109
147	30
148	30
149	40
150	20
151	239
152	30
153	10
162	10
163	20
164	9999
165	989
166	109
167	30
180	10
181	3149
182	289
183	40
