Mass Spectrum: D-Campholic acid
Formula: C10 H18 O2
CAS: 31147-56-5
Molecular weight: 170
Origin: NIST Mass Spectrometry Data Center, 1994
m/z	RELATIVE INTENSITY
15	407
16	1
17	9
18	47
19	40
26	117
27	2384
28	458
29	1964
30	57
31	75
37	22
38	168
39	3136
40	553
41	6900
42	949
43	2325
44	145
45	1175
46	64
47	31
50	132
51	432
52	178
53	1311
54	322
55	3822
56	1008
57	527
58	70
59	1010
60	61
62	31
63	90
65	387
66	120
67	1481
68	581
69	9652
70	1332
71	318
72	45
73	90
74	114
75	25
76	25
77	385
78	79
79	393
80	74
81	627
82	346
83	944
84	9999
85	822
86	25
87	1995
88	116
89	28
91	215
92	32
93	120
94	44
95	428
96	1395
97	1087
98	109
99	488
100	352
101	177
105	32
107	49
109	1265
110	224
111	56
112	32
113	547
114	423
115	162
116	53
123	85
124	119
125	117
127	251
128	72
137	93
152	344
153	40
155	95
170	342
171	41
