Mass Spectrum: 2'-Benzyloxyacetophenone
Formula: C15 H14 O2
CAS: 31165-67-0
Molecular weight: 226
Origin: NIST Mass Spectrometry Data Center, 1994
m/z	RELATIVE INTENSITY
4	44
14	26
15	174
26	39
27	134
28	1
29	33
37	54
38	288
39	1091
40	77
41	211
42	1
43	997
44	26
46	9
50	330
51	578
52	160
53	137
54	8
55	13
61	51
62	240
63	834
64	531
65	2039
66	140
73	9
74	76
75	71
76	175
77	520
78	124
79	145
86	18
87	19
89	358
91	9999
92	1276
93	80
94	10
104	22
105	107
107	123
108	11
113	16
115	16
120	162
121	472
122	35
127	11
128	12
133	14
135	18
148	66
149	11
152	46
153	20
155	17
165	22
181	35
183	173
184	91
185	10
208	173
209	36
211	135
212	22
226	252
227	44
