Mass Spectrum: 2-(Trifluoromethyl)benzoyl chloride
Formula: C8 H4 Cl F3 O
CAS: 312-94-7
Molecular weight: 208
Origin: NIST Mass Spectrometry Data Center
m/z	RELATIVE INTENSITY
12	10
16	10
18	30
20	10
25	20
26	90
27	70
28	60
31	170
32	10
35	150
36	50
37	340
38	330
39	220
40	10
47	30
48	20
49	230
50	1501
51	390
52	20
53	80
55	10
56	60
57	230
58	10
60	30
61	180
62	190
63	320
64	10
65	30
68	140
69	771
70	30
71	10
73	200
74	811
75	1712
76	450
77	230
79	40
80	90
81	120
82	10
84	30
85	70
87	180
88	40
91	10
92	40
93	100
94	180
95	1341
96	80
97	10
99	450
100	90
101	40
103	10
104	60
105	30
106	30
107	90
108	10
111	40
112	20
113	10
114	20
117	10
118	30
119	170
120	10
122	10
123	60
125	931
126	330
127	20
130	20
137	10
141	10
143	150
145	5975
146	480
147	10
154	10
157	10
161	180
162	10
163	50
173	9999
174	881
175	50
179	20
180	10
189	360
190	30
191	110
192	10
