Mass Spectrum: 2(3H)-Furanone, dihydro-5,5-dimethyl-
Formula: C6 H10 O2
CAS: 3123-97-5
Molecular weight: 114
m/z	RELATIVE INTENSITY
37	600
38	1133
39	5911
41	3755
42	4711
43	5177
45	422
49	178
50	555
51	622
52	178
53	1111
54	489
55	9999
56	4533
57	311
58	422
59	2666
60	156
67	156
68	133
69	311
70	4066
71	1533
72	156
81	156
99	3311
114	33
