Mass Spectrum: 4,7,13-Trioxa-1,10-diazacyclopentadecane
Formula: C10 H22 N2 O3
CAS: 31249-95-3
Molecular weight: 218
Origin: Institute of Organic Chemistry, USSR, 1990
m/z	RELATIVE INTENSITY
54	730
55	1730
56	9999
57	6670
58	4200
59	670
60	390
61	340
62	360
63	730
68	500
69	2400
70	4470
71	2530
72	2330
73	1130
74	6670
75	400
83	250
84	400
85	930
86	4530
87	4130
88	4470
89	440
98	600
99	410
100	6000
101	870
102	800
103	250
106	510
111	170
112	330
113	1530
114	1130
115	250
116	200
117	130
118	1330
119	130
120	170
128	200
129	560
130	450
131	330
132	6670
133	730
134	120
143	310
144	200
145	130
149	240
150	3530
151	290
156	190
157	100
158	400
159	100
161	100
173	730
174	170
175	220
176	70
187	380
188	150
217	90
218	30
219	670
220	70
