Mass Spectrum: Dibutyl isophthalate
Formula: C16 H22 O4
CAS: 3126-90-7
Molecular weight: 278
Origin: R.S.Borisov, V.G.Zaikin, Russian Friendship University, Moscow
m/z	RELATIVE INTENSITY
27	80
29	270
39	70
41	390
50	70
51	20
52	20
55	170
56	1501
57	440
65	450
66	110
73	20
75	90
76	591
77	100
79	90
93	100
103	100
104	641
105	180
121	991
122	430
123	160
132	30
133	30
135	20
148	60
149	2662
150	220
151	40
167	9348
168	731
169	90
176	20
177	20
178	100
179	30
205	9999
206	1191
207	120
221	30
223	9038
224	1091
225	120
235	100
249	20
278	140
279	50
