Mass Spectrum: Heptanoic acid, 6-oxo-
Formula: C7 H12 O3
CAS: 3128-07-2
Molecular weight: 144
Origin: NIST Mass Spectrometry Data Center
m/z	RELATIVE INTENSITY
13	30
14	110
15	811
16	30
17	20
18	30
26	230
27	1291
28	731
29	841
30	70
31	290
36	20
37	50
38	90
39	991
40	180
41	991
42	861
43	9999
44	270
45	1241
46	30
47	30
49	40
50	30
51	110
52	60
53	200
55	2622
56	651
57	250
58	2182
59	621
60	170
61	10
65	10
66	20
67	50
68	160
69	340
70	30
71	430
72	60
73	611
74	70
79	30
81	90
83	761
84	681
85	170
86	40
87	160
93	10
97	40
98	651
99	50
101	230
102	30
108	70
109	30
111	290
112	40
126	911
127	70
129	60
135	10
143	20
144	70
