Mass Spectrum: 4-Acetylbutyric acid
Formula: C6 H10 O3
CAS: 3128-06-1
Molecular weight: 130
Origin: NIST Mass Spectrometry Data Center
m/z	RELATIVE INTENSITY
12	120
14	110
15	711
16	140
17	150
26	320
27	1061
28	200
29	611
31	350
36	70
37	140
38	210
39	991
40	240
41	1221
42	1872
43	9999
44	180
45	1722
55	801
57	80
58	490
60	661
69	270
70	1031
71	390
73	120
84	601
85	170
87	601
97	80
112	1561
113	130
115	180
