Mass Spectrum: Ethanone, 2,2,2-trifluoro-1-(2,4,6-trimethylphenyl)-
Formula: C11 H11 F3 O
CAS: 313-56-4
Molecular weight: 216
Origin: NIST Mass Spectrometry Data Center
m/z	RELATIVE INTENSITY
12	10
15	290
17	10
18	20
20	30
26	10
27	651
28	270
32	30
37	60
38	270
39	1982
40	230
41	1291
42	10
47	10
50	701
51	1792
52	550
53	611
54	40
55	50
58	400
60	50
61	60
62	320
63	941
64	200
65	1151
66	621
67	80
69	1411
70	20
71	20
74	380
75	310
76	250
77	1852
78	771
79	460
80	40
81	30
83	30
85	20
86	60
87	90
88	50
89	330
91	3273
92	320
93	270
94	10
95	10
96	20
97	20
98	30
99	40
100	10
101	80
102	290
103	931
104	671
105	110
106	10
107	10
109	40
110	10
111	10
113	10
115	1141
116	260
117	991
119	6726
120	701
121	40
122	10
123	10
126	10
127	30
128	30
129	10
131	10
132	80
133	50
134	10
135	40
137	50
138	10
147	9999
148	1141
149	90
151	40
164	20
165	80
167	20
187	30
199	30
214	30
216	1852
217	220
218	10
