Mass Spectrum: Perfluoronaphthalene
Formula: C10 F8
CAS: 313-72-4
Molecular weight: 272
Origin: NIST Mass Spectrometry Data Center
m/z	RELATIVE INTENSITY
31	831
50	10
55	80
60	20
62	10
67	10
69	190
72	10
74	190
76	10
79	490
80	20
84	90
85	20
86	160
91	70
93	971
94	30
96	20
98	490
99	20
101	100
103	691
104	50
105	50
108	40
110	420
111	30
115	100
117	1181
118	60
120	20
122	881
123	60
124	40
127	270
128	20
129	240
130	10
134	821
135	70
136	2012
139	10
141	1611
142	120
146	430
147	40
148	140
153	841
154	70
155	20
158	20
160	210
161	10
165	991
166	90
167	10
172	811
173	60
177	10
179	230
180	10
184	300
185	30
191	500
192	40
196	10
203	2372
204	230
205	10
210	390
211	30
215	20
222	2622
223	250
224	10
234	260
235	20
241	5045
242	510
243	20
253	681
254	70
272	9999
273	1151
274	50
