Mass Spectrum: Naphtho(2,1,8-def)quinoline
Formula: C15 H9 N
CAS: 313-80-4
Molecular weight: 203
Origin: Organic Synthesis Lab, MSU, Moscow.TRC 195q
m/z	RELATIVE INTENSITY
50	10
51	10
61	10
62	30
63	30
73	10
74	140
75	230
76	40
77	10
85	30
86	70
87	571
88	811
97	10
98	150
99	120
109	10
110	60
111	60
112	10
113	10
114	10
121	10
122	60
123	70
124	40
125	40
126	60
127	10
133	10
134	10
135	10
136	10
137	10
138	10
139	10
140	10
146	10
147	10
148	30
149	220
150	320
151	140
152	60
153	10
161	10
162	10
163	10
164	10
173	60
174	520
175	801
176	621
177	200
178	10
188	10
199	60
200	80
201	1011
202	2242
203	9999
204	1481
205	120
