Mass Spectrum: Desmosterol
Formula: C27 H44 O
CAS: 313-04-2
Molecular weight: 384
Origin: NIST Mass Spectrometry Data Center, 2010
m/z	RELATIVE INTENSITY
27	210
29	611
31	80
38	60
39	470
40	130
41	5125
42	240
43	1121
45	80
50	50
53	791
54	140
55	4954
56	791
57	1081
59	30
61	20
63	60
65	460
66	150
67	2993
68	591
69	8408
70	791
71	340
72	50
74	70
77	1331
78	340
79	3183
80	550
81	3793
82	1421
83	1381
84	150
85	180
89	20
91	3583
92	841
93	3103
94	841
95	4014
96	591
97	751
98	100
99	50
103	230
104	250
105	3683
106	1001
107	3383
108	861
109	2562
110	340
111	400
112	120
115	450
116	230
117	1231
118	771
119	2472
120	1441
121	2042
122	581
123	1301
124	350
125	140
126	90
127	170
128	520
129	921
130	480
131	1892
132	731
133	2552
134	711
135	1271
136	250
137	621
138	450
139	80
141	230
142	250
143	1672
144	821
145	2953
146	851
147	2092
148	460
149	791
150	220
151	410
152	360
153	100
154	100
155	190
156	300
157	1271
158	1221
159	2492
160	1001
161	1712
162	500
163	811
164	260
165	170
166	90
167	100
168	50
169	300
170	190
171	1061
172	350
173	1131
174	370
175	971
176	410
177	470
178	240
179	100
180	30
181	70
182	40
183	300
184	180
185	671
186	350
187	801
188	260
189	460
190	160
191	250
192	100
197	520
198	180
199	881
200	320
201	370
202	110
203	380
204	120
205	150
206	70
211	591
212	300
213	1842
214	480
215	540
216	150
217	250
218	100
219	160
220	20
221	30
222	20
225	280
226	130
227	460
228	360
229	681
230	380
231	741
232	180
233	20
234	30
237	30
238	30
239	601
240	250
241	240
242	140
243	260
244	160
245	370
246	190
247	30
249	40
251	40
253	1902
254	540
255	801
256	290
257	390
258	430
259	150
260	40
265	40
267	190
268	150
269	380
270	1301
271	9999
272	2732
273	901
274	160
281	350
282	240
283	240
284	80
285	430
286	120
295	170
296	30
297	130
298	160
299	1541
300	2452
301	661
302	80
309	50
310	70
311	70
312	20
313	120
314	140
323	30
324	100
325	150
326	40
328	50
329	20
337	10
341	60
342	30
343	30
351	1511
352	370
353	90
354	20
366	370
367	170
368	30
369	2752
370	831
371	120
382	130
384	1972
385	611
386	100
