Mass Spectrum: 1-Methyldibenzothiophene
Formula: C13 H10 S
CAS: 31317-07-4
Molecular weight: 198
Origin: Organic Synthesis Lab, MSU, Moscow.TRC 332
m/z	RELATIVE INTENSITY
51	10
62	50
63	170
65	10
69	140
74	10
76	190
77	20
81	20
87	90
88	20
90	40
93	150
94	10
95	40
99	751
101	40
102	10
107	40
108	50
109	30
110	30
113	100
114	110
115	60
117	20
121	60
122	90
123	100
125	30
126	140
127	220
128	40
130	10
132	10
137	60
138	160
139	290
140	60
145	180
150	320
151	470
152	1431
153	631
154	30
158	130
159	50
162	50
163	110
164	340
165	2002
166	220
168	50
169	170
170	150
171	761
172	120
173	80
182	50
195	400
197	6906
198	9999
199	1702
200	571
