Mass Spectrum: Benzaldehyde, 3-bromo-
Formula: C7 H5 Br O
CAS: 3132-99-8
Molecular weight: 184
Origin: RADIAN CORP
m/z	RELATIVE INTENSITY
25	50
26	90
27	80
29	640
36	100
37	600
38	720
39	220
48	90
49	610
50	4450
51	2630
52	190
53	110
60	110
61	350
62	310
63	150
72	70
73	760
74	2910
75	3290
76	3420
77	3980
78	300
79	430
80	50
81	370
82	60
84	40
85	100
86	90
87	40
89	40
91	50
92	10
103	30
104	210
105	90
106	50
107	60
116	20
117	40
118	30
119	40
128	70
129	140
130	80
131	140
154	20
155	5170
156	620
157	5120
158	610
159	30
183	9730
184	7500
185	9999
186	7390
187	570
188	30
