Mass Spectrum: 1-Tricosanol
Formula: C23 H48 O
CAS: 3133-01-5
Molecular weight: 340
Origin: Japan AIST/NIMC Database- Spectrum MS-NW-8224
m/z	RELATIVE INTENSITY
15	20
16	10
17	20
18	70
26	40
27	509
28	229
29	1809
30	50
31	629
32	20
38	10
39	389
40	90
41	4749
42	1279
43	8359
44	349
45	119
50	10
51	20
52	10
53	219
54	819
55	7869
56	4099
57	9969
58	459
59	30
63	10
65	40
66	169
67	1419
68	3839
69	7759
70	4099
71	5259
72	299
73	169
74	10
75	169
76	10
77	40
78	20
79	90
80	90
81	1049
82	5609
83	9999
84	3059
85	3229
86	219
87	30
91	30
92	10
93	30
94	40
95	629
96	2459
97	9239
98	2129
99	1039
100	80
101	10
105	10
106	10
107	10
108	30
109	299
110	1039
111	5239
112	1559
113	669
114	50
122	30
123	219
124	779
125	3129
126	1119
127	459
128	40
136	20
137	149
138	589
139	1779
140	849
141	329
142	30
151	50
152	429
153	1179
154	659
155	249
156	30
165	20
166	339
167	849
168	539
169	179
170	20
179	10
180	279
181	619
182	439
183	139
184	20
193	10
194	239
195	469
196	369
197	99
198	10
208	209
209	359
210	309
211	80
212	10
222	169
223	279
224	299
225	90
226	10
236	129
237	219
238	229
239	99
240	10
250	90
251	159
252	209
253	50
264	60
265	119
266	119
267	30
277	10
278	40
279	80
280	679
281	159
282	10
293	10
294	99
295	20
306	50
307	10
308	1459
309	379
310	50
322	179
323	50
324	10
325	20
336	30
337	10
339	10
