Mass Spectrum: 2-Heptanol, 3-methyl-
Formula: C8 H18 O
CAS: 31367-46-1
Molecular weight: 130
Origin: CONTINENTAL OIL CO., PONCA CITY, OKLA, USA
m/z	RELATIVE INTENSITY
13	32
14	151
15	638
16	57
17	124
18	399
19	207
24	6
25	17
26	178
27	2058
28	690
29	2002
30	96
31	653
32	68
33	7
35	6
36	12
37	25
38	61
39	901
40	181
41	2065
42	735
43	3870
44	960
45	9999
46	266
47	52
48	8
49	9
50	36
51	69
52	32
53	178
54	78
55	1645
56	905
57	1184
58	200
59	788
60	51
61	20
62	9
63	16
64	7
65	23
66	12
67	55
68	33
69	500
70	249
71	204
72	113
73	132
74	27
75	9
77	1
78	10
79	15
80	7
81	20
82	26
83	455
84	1261
85	233
86	33
87	63
88	14
89	6
95	8
96	5
97	188
98	25
99	9
100	8
101	133
102	11
103	3
110	4
111	4
112	156
113	20
114	5
115	132
116	14
117	4
125	3
128	5
129	15
130	5
