Mass Spectrum: Butanal, O-methyloxime
Formula: C5 H11 N O
CAS: 31376-98-4
Molecular weight: 101
m/z	RELATIVE INTENSITY
14	79
15	1053
26	421
27	3868
28	3894
29	2368
30	842
31	1184
32	316
33	842
37	132
38	184
39	1895
40	632
41	5368
42	3368
43	4999
44	579
45	974
47	342
51	79
52	105
53	105
54	1000
55	1263
56	421
57	211
58	1579
59	1842
60	1105
68	342
69	263
70	447
72	211
73	9999
74	447
84	79
86	2631
87	211
100	184
101	1316
102	105
