Mass Spectrum: Tolfenamic acid, methyl ester
Formula: C15 H14 Cl N O2
CAS: 31376-49-5
Molecular weight: 275
Origin: Ph.Jaussaud ET AL.J.Chrom.,573,136(1992)
m/z	RELATIVE INTENSITY
50	721
51	1271
52	290
53	160
54	190
55	290
57	310
60	190
63	200
64	1201
65	611
66	591
67	190
68	200
70	200
73	200
75	701
76	1862
77	2082
78	190
79	200
82	200
85	100
87	200
89	1682
90	1581
92	510
93	200
97	190
99	200
101	200
102	190
104	611
105	290
106	300
107	200
114	200
121	200
125	300
126	200
127	310
128	200
139	200
140	200
149	200
151	581
152	1201
153	380
163	190
164	90
166	390
176	100
177	290
178	1001
179	1391
180	2752
181	1011
190	90
200	80
201	190
206	80
208	9999
209	1882
210	170
213	1281
215	370
216	480
217	160
243	4644
244	1261
245	1661
246	370
275	4434
276	661
277	1651
278	180
