Mass Spectrum: 2,3,4,6-Tetrafluoronitrobenzene
Formula: C6 H F4 N O2
CAS: 314-41-0
Molecular weight: 195
Origin: Japan AIST/NIMC Database- Spectrum MS-IW-1308
m/z	RELATIVE INTENSITY
16	10
20	30
28	239
30	5909
31	859
32	20
36	20
37	90
38	10
44	30
46	829
48	10
49	10
50	10
51	159
55	109
56	119
57	10
60	30
61	259
62	40
63	60
67	10
68	179
69	959
70	20
72	10
74	189
75	929
76	50
77	30
79	399
80	799
81	99
82	40
85	20
86	199
87	209
88	20
91	40
92	60
93	699
94	70
98	329
99	7839
100	489
101	20
105	60
106	50
109	20
110	60
111	40
112	20
113	199
114	10
115	10
117	289
118	139
119	30
123	20
124	10
129	40
130	429
131	50
136	10
137	2389
138	139
144	30
145	10
146	10
147	20
148	229
149	4079
150	279
163	20
165	2889
166	189
167	30
177	60
179	479
180	30
195	9999
196	689
197	60
