Mass Spectrum: Bromacil
Formula: C9 H13 Br N2 O2
CAS: 314-40-9
Molecular weight: 260
Origin: MASS SPECTROMETRY CENTER, UNIV. OF UTAH EPA-PTSEL 0800
m/z	RELATIVE INTENSITY
15	683
26	210
27	1543
28	2063
29	2055
30	113
36	131
37	20
38	253
39	1182
40	2046
41	4946
42	517
43	651
44	179
51	76
52	409
53	305
54	665
55	1153
56	1040
57	566
58	15
60	15
66	156
67	398
68	184
69	2393
71	60
72	226
80	21
81	203
82	152
83	120
84	816
85	62
97	82
98	407
107	116
109	20
110	158
117	73
118	62
119	108
120	1031
122	910
125	61
126	158
127	120
132	230
134	304
136	19
146	19
147	16
148	20
161	1643
162	1797
163	1473
164	1715
165	23
176	187
178	178
187	131
188	1540
189	223
190	1612
191	50
192	24
203	65
204	1664
205	9999
206	2364
207	9894
208	770
209	30
219	16
231	1399
232	113
233	1363
234	102
243	99
245	405
247	305
260	440
261	127
262	448
263	82
