Mass Spectrum: Etamiphyllin
Formula: C13 H21 N5 O2
CAS: 314-35-2
Molecular weight: 279
Origin: Finnigan MAT: Toxicological Library (LIBR-TX)
m/z	RELATIVE INTENSITY
41	290
42	196
55	175
56	306
58	383
67	214
71	313
81	493
84	204
86	9999
87	511
93	205
99	404
107	207
108	89
109	719
123	290
151	479
207	92
