Mass Spectrum: Ethanesulfinic acid, methyl ester
Formula: C3 H8 O2 S
CAS: 31401-21-5
Molecular weight: 108
Origin: W. G. FILBY
m/z	RELATIVE INTENSITY
28	5200
29	8900
35	240
45	2620
50	5900
65	9999
77	2100
79	640
80	9200
108	3100
109	530
110	150
