Mass Spectrum: Thiophene, 2,3-dibromo-
Formula: C4 H2 Br2 S
CAS: 3140-93-0
Molecular weight: 240
Origin: Japan AIST/NIMC Database- Spectrum MS-NW- 985
m/z	RELATIVE INTENSITY
12	20
24	20
25	30
26	60
28	20
32	99
33	10
36	90
37	709
38	729
44	169
45	1729
46	40
47	80
48	40
49	219
50	159
58	80
68	50
69	139
76	10
79	209
80	179
81	899
82	4189
83	239
84	159
91	90
93	80
103	10
104	10
105	20
106	20
111	10
113	10
115	20
116	149
117	869
118	189
119	829
120	169
121	259
122	129
123	99
125	90
128	60
129	10
130	50
135	259
136	60
137	289
138	60
139	10
158	10
159	10
160	80
161	1829
162	179
163	1849
164	119
165	90
184	10
195	99
196	10
197	189
198	20
199	109
214	20
216	40
218	20
240	5019
241	269
242	9999
243	549
244	5219
245	279
246	229
247	10
