Mass Spectrum: Thiophene, 2,5-dibromo-
Formula: C4 H2 Br2 S
CAS: 3141-27-3
Molecular weight: 240
Origin: Japan AIST/NIMC Database- Spectrum MS-NW-1142
m/z	RELATIVE INTENSITY
12	70
13	10
14	60
16	20
24	50
25	199
26	119
32	90
33	40
34	20
36	269
37	1999
38	2629
39	139
40	30
41	1149
42	40
44	709
45	1889
46	50
47	80
48	139
49	669
50	479
51	20
56	379
57	2379
58	139
59	99
68	229
69	749
70	50
71	40
76	30
78	10
79	409
80	739
81	2789
82	9999
83	689
84	459
85	20
91	179
92	30
93	189
94	30
103	30
104	169
105	40
106	179
107	10
111	50
113	50
115	50
116	209
117	3049
118	309
119	2939
120	429
121	699
122	359
123	469
125	469
127	30
128	60
129	20
130	70
131	10
135	169
136	729
137	179
138	719
139	30
140	30
149	10
159	50
160	219
161	4799
162	519
163	4759
164	319
165	219
166	10
195	30
197	50
199	30
216	10
240	4699
241	259
242	9049
243	479
244	4689
245	239
246	189
