Mass Spectrum: Arsenous acid, triethyl ester
Formula: C6 H15 As O3
CAS: 3141-12-6
Molecular weight: 210
Origin: O7-75-1B
m/z	RELATIVE INTENSITY
44	316
45	1660
46	711
91	2055
92	1897
93	474
109	4229
119	395
120	1937
121	4901
122	277
123	474
135	356
137	2608
155	277
164	3873
165	9999
166	3320
167	237
195	869
210	198
