Mass Spectrum: 3,3-Dimethyl-2,4-pentane dione
Formula: C7 H12 O2
CAS: 3142-58-3
Molecular weight: 128
Origin: James Little,Eastman Chem.Co.,Kingsport,TN
m/z	RELATIVE INTENSITY
27	540
29	520
39	1211
40	220
41	1571
42	701
43	9999
44	360
53	240
55	140
57	921
58	751
59	150
67	260
69	160
70	130
71	8358
72	530
85	540
86	5325
87	350
99	290
113	70
114	100
128	40
129	20
