Mass Spectrum: Silane, (chloromethyl)dimethyl-
Formula: C3 H9 Cl Si
CAS: 3144-74-9
Molecular weight: 108
Origin: J.VOTH UNIV. OF CALIFORNIA, DAVIS, CALIFORNIA, 95616, USA
m/z	RELATIVE INTENSITY
12	41
13	78
14	248
15	498
16	23
18	10
25	12
26	75
27	269
28	718
29	1197
30	150
31	1272
32	57
33	38
35	34
36	35
37	17
38	16
39	23
40	43
41	291
42	858
43	2021
44	290
45	539
46	34
47	37
48	27
49	16
50	16
51	53
52	51
53	365
54	80
55	210
56	34
57	380
58	353
59	9999
60	736
61	347
62	12
63	1234
64	211
65	2876
66	212
67	874
68	44
69	30
71	12
72	21
73	66
74	39
75	18
76	58
77	182
78	189
79	1367
80	138
81	464
82	33
83	18
90	8
91	24
92	76
93	1435
94	130
95	506
96	37
97	18
99	10
101	7
106	16
107	266
108	246
109	113
110	86
111	11
