Mass Spectrum: 5-Allyl-5-butylbarbituric acid
Formula: C11 H16 N2 O3
CAS: 3146-66-5
Molecular weight: 224
Origin: R RYHAGE MS-LAB KAROLINSKA INSTITUTET STOCKHOLM SWEDEN
m/z	RELATIVE INTENSITY
15	149
16	62
17	67
18	105
19	24
25	19
26	206
27	1011
28	407
29	963
30	77
31	48
35	5
36	81
37	34
38	67
39	1265
40	225
41	4748
42	522
43	537
44	331
45	38
47	120
48	43
49	29
50	77
51	182
52	278
53	968
54	441
55	800
56	139
57	168
59	14
60	34
61	24
63	53
64	34
65	273
66	216
67	906
68	383
69	383
70	192
71	120
72	43
73	53
74	29
75	38
76	29
77	149
78	120
79	196
80	398
81	441
82	81
83	345
84	81
85	91
86	38
87	43
90	34
91	34
92	72
93	134
94	158
95	244
96	513
97	1088
98	930
99	101
100	24
104	43
105	48
106	287
107	129
108	196
109	168
110	105
111	24
112	105
113	96
116	10
118	38
119	19
120	10
121	110
122	110
123	187
124	2209
125	254
126	57
127	29
128	96
129	149
130	38
134	57
135	172
136	67
137	38
138	192
139	67
140	67
141	1485
142	379
146	24
147	24
149	67
150	81
151	101
152	307
153	704
154	163
155	72
156	144
157	29
162	29
163	34
164	24
165	53
166	134
167	9999
168	6694
169	915
170	86
171	29
176	29
179	24
180	34
181	1318
182	350
183	206
184	67
190	29
194	29
195	1802
196	331
197	43
204	38
207	29
209	53
223	29
224	158
