Mass Spectrum: 1.2-diacetylhydrazine
Formula: C4 H8 N2 O2
CAS: 3148-73-0
Molecular weight: 116
Origin: NIST Mass Spectrometry Data Center
m/z	RELATIVE INTENSITY
12	100
13	130
14	530
15	2142
16	90
17	70
18	10
24	10
25	20
26	190
27	280
28	360
29	621
30	200
31	240
32	3293
36	10
38	150
39	200
40	130
41	300
42	1031
43	9999
44	500
45	80
55	120
56	170
70	30
73	30
74	4514
75	120
101	10
116	921
