Mass Spectrum: Pyrazine, methoxy-
Formula: C5 H6 N2 O
CAS: 3149-28-8
Molecular weight: 110
Origin: NIST Mass Spectrometry Data Center, 1990.
m/z	RELATIVE INTENSITY
12	95
13	235
14	315
15	1709
16	17
18	95
24	65
25	345
26	1609
27	861
28	2410
29	674
30	111
31	42
32	47
34	44
37	80
38	710
39	1994
40	8384
41	1213
42	529
43	89
44	38
50	177
51	1338
52	2553
53	3668
54	965
55	494
56	1564
57	157
58	114
65	129
66	380
67	868
68	4041
69	142
76	42
77	69
79	992
80	5074
81	4108
82	342
83	98
92	90
95	754
107	247
109	5965
110	9999
111	719
112	45
