Mass Spectrum: Allopurinol
Formula: C5 H4 N4 O
CAS: 315-30-0
Molecular weight: 136
Origin: Japan AIST/NIMC Database- Spectrum MS-NW-3779
m/z	RELATIVE INTENSITY
12	30
13	20
16	10
17	50
18	259
24	30
25	70
26	70
27	239
28	1699
29	1719
30	80
32	10
36	30
37	149
38	319
39	309
40	139
41	50
42	129
43	419
44	40
50	50
51	459
52	1929
53	679
54	179
55	99
57	10
62	10
63	20
64	109
65	109
66	99
67	449
68	289
69	20
70	20
77	40
78	50
79	189
80	249
81	159
82	10
92	10
93	60
94	149
95	10
106	10
107	20
108	90
109	599
110	30
120	209
121	20
135	1109
136	9999
137	699
138	40
