Mass Spectrum: 2-Nonen-1-ol, (E)-
Formula: C9 H18 O
CAS: 31502-14-4
Molecular weight: 142
Origin: NIST Mass Spectrometry Data Center, 1990.
m/z	RELATIVE INTENSITY
12	6
15	228
17	11
18	44
19	7
26	358
27	4065
28	847
29	4921
30	200
31	1327
33	8
37	39
39	3098
40	702
41	6717
42	2055
43	5463
44	1472
45	387
46	10
47	7
50	123
51	288
52	183
53	939
54	2272
55	3941
56	2273
57	9999
58	731
59	77
61	6
62	20
63	57
65	274
66	401
67	2266
68	2326
69	1907
70	1378
71	1104
72	368
73	64
74	13
77	145
78	43
79	301
80	13
81	1883
82	2306
83	594
84	158
85	318
86	104
87	16
91	38
92	8
93	66
94	8
95	1736
96	1095
97	135
98	156
99	265
100	27
101	9
107	10
109	170
110	18
111	29
112	13
113	62
114	34
115	5
124	280
125	37
126	7
141	9
142	42
143	8
