Mass Spectrum: 1,1'-Biphenyl, 2,3',4,4',5-pentachloro-
Formula: C12 H5 Cl5
CAS: 31508-00-6
Molecular weight: 324
Origin: Organic Synthesis Lab, MSU, Moscow.TRC 1271
m/z	RELATIVE INTENSITY
41	17
43	16
44	72
47	45
48	28
49	95
50	257
51	52
55	9
56	27
57	20
60	82
61	275
62	186
63	65
71	33
72	135
73	310
74	590
75	215
76	13
78	45
79	92
80	22
83	28
84	212
85	283
86	225
87	106
92	352
93	116
94	24
95	25
96	82
97	203
98	389
99	237
107	73
108	175
109	829
110	495
111	210
114	28
115	42
118	18
119	34
120	67
121	84
122	198
123	176
124	44
127	907
128	801
129	264
130	49
131	35
132	64
133	149
134	80
135	87
136	22
137	27
143	33
144	187
145	288
146	268
147	183
148	165
149	235
150	29
156	19
157	53
158	43
159	43
161	18
162	142
163	224
164	164
165	43
166	18
167	16
168	21
169	70
170	64
171	49
172	25
173	25
180	13
181	27
182	84
183	221
184	868
185	183
186	268
187	37
192	11
193	27
194	50
195	29
196	30
204	99
205	22
206	93
208	28
217	34
218	341
219	398
220	304
221	210
222	52
223	31
228	23
229	24
230	50
232	16
241	15
252	26
253	84
254	2374
255	419
256	2763
257	389
258	890
259	99
260	89
264	15
288	118
289	32
290	150
291	54
292	84
293	25
324	6012
325	866
326	9999
327	1318
328	6346
329	882
330	2001
331	258
332	294
333	12
334	32
