Mass Spectrum: 9H-Fluoren-9-one, 2,7-dinitro-
Formula: C13 H6 N2 O5
CAS: 31551-45-8
Molecular weight: 270
Origin: Japan AIST/NIMC Database- Spectrum MS-NW-7283
m/z	RELATIVE INTENSITY
28	60
30	619
37	10
38	30
39	60
44	10
46	50
49	10
50	259
51	99
52	30
53	40
55	20
56	10
57	10
61	129
62	359
63	269
64	40
68	20
69	10
73	70
74	979
75	719
76	409
77	70
83	10
85	90
86	319
87	489
88	179
89	30
97	30
98	669
99	539
100	449
101	60
104	10
109	40
110	179
111	289
112	129
113	40
114	20
116	10
120	10
121	30
122	209
123	319
124	279
125	60
126	329
127	40
128	20
134	10
135	30
136	20
137	449
138	1339
139	199
140	50
141	10
145	10
146	70
147	20
148	40
149	669
150	5659
151	799
152	60
153	10
154	569
155	60
156	10
162	10
163	20
164	70
165	40
166	899
167	129
168	10
176	20
177	60
178	1159
179	189
180	20
181	10
182	429
183	60
184	30
192	10
193	50
194	499
195	80
196	2579
197	359
198	30
208	10
209	10
210	579
211	90
212	70
213	10
222	30
223	30
224	2219
225	339
226	40
238	10
239	20
240	1519
241	229
242	30
254	99
255	10
269	20
270	9999
271	1549
272	219
273	20
