Mass Spectrum: p,.beta.-Dinitrostyrene
Formula: C8 H6 N2 O4
CAS: 3156-41-0
Molecular weight: 194
Origin: NIST Mass Spectrometry Data Center
m/z	RELATIVE INTENSITY
10	90
11	200
12	250
13	50
14	961
15	170
16	1131
17	80
18	510
25	20
26	60
27	440
29	200
30	9999
37	320
38	1091
39	3223
40	160
42	20
43	470
45	150
46	1351
49	40
50	7186
51	5015
52	2272
53	210
61	370
62	2012
63	5215
64	1872
65	3553
66	120
68	20
69	100
73	350
74	3773
75	5335
76	8388
77	2352
78	1561
79	1241
86	20
89	7897
90	4794
91	781
92	1952
93	240
98	80
101	3153
102	8458
103	701
104	100
106	20
116	380
117	2372
118	4514
119	310
120	550
131	160
132	40
147	7747
148	1201
150	180
154	30
163	631
164	20
177	480
191	460
194	6386
195	110
