Mass Spectrum: 2-[1-Naphthyl]-3-oxobutyronitrile
Formula: C14 H11 N O
CAS: 31573-38-3
Molecular weight: 209
Origin: Leung Pu, NIH, Bethesda, Maryland, U.S.
m/z	RELATIVE INTENSITY
41	137
42	31
43	129
44	29
45	60
46	5
47	170
48	67
49	652
50	721
51	1080
52	187
53	53
54	13
55	115
56	72
57	310
59	6
60	12
61	223
62	669
63	1352
64	218
65	236
66	36
67	65
69	1122
70	487
71	175
73	58
74	692
75	684
76	391
77	513
78	130
79	74
80	68
81	61
82	325
84	92
85	90
86	610
87	499
88	307
89	474
90	51
91	100
92	25
93	22
94	27
95	33
96	19
97	46
98	193
99	153
100	118
101	205
102	142
103	26
105	92
106	26
107	17
108	10
109	68
110	71
111	109
112	57
113	437
114	228
115	1352
116	146
117	21
119	4
120	4
121	33
122	32
123	29
124	28
125	61
126	406
127	515
128	310
129	455
130	55
131	18
133	4
134	19
135	16
136	5
137	185
138	225
139	2504
140	2075
141	2374
142	1733
143	188
144	11
145	4
147	14
148	13
149	18
150	20
151	36
152	52
153	545
154	65
155	33
156	62
157	57
158	350
159	44
162	10
163	7
164	342
165	146
166	6208
167	9999
168	1289
169	84
171	30
172	25
173	18
180	4
181	4
182	34
183	15
194	12
195	19
208	6
209	41
210	7
