Mass Spectrum: Benzene, 1-iodo-2,3-dimethyl-
Formula: C8 H9 I
CAS: 31599-60-7
Molecular weight: 232
Origin: NIST Mass Spectrometry Data Center, 1994
m/z	RELATIVE INTENSITY
14	6
15	150
26	195
27	1432
28	258
29	57
32	69
37	227
38	516
39	2241
40	187
41	152
50	1579
51	2784
52	850
53	627
54	38
61	294
62	846
63	1843
64	447
65	521
66	76
73	110
74	655
75	476
76	648
77	5405
78	2573
79	6190
80	411
85	69
86	163
87	141
88	67
89	469
90	291
91	47
98	122
102	629
103	3821
104	1371
105	8732
106	769
116	117
127	1178
128	239
217	137
232	9999
233	862
