Mass Spectrum: Benz[a]anthracene, 6-methyl-
Formula: C19 H14
CAS: 316-14-3
Molecular weight: 242
m/z	RELATIVE INTENSITY
35	30
36	50
37	30
38	70
39	240
40	290
41	120
42	20
43	50
44	90
45	100
46	10
47	20
48	10
49	20
50	140
51	150
52	60
53	20
54	10
55	30
56	50
57	130
58	20
59	30
60	10
61	20
62	80
63	160
64	20
65	20
66	10
71	20
72	10
73	30
74	100
75	110
76	50
77	60
78	170
79	40
80	30
81	30
82	20
83	10
85	30
86	90
87	150
88	70
89	50
90	10
91	20
92	10
93	30
94	100
95	70
98	80
99	70
100	100
101	50
102	20
103	20
105	30
106	120
107	170
108	230
109	10
110	40
111	60
112	90
113	250
114	20
115	30
117	40
118	100
119	270
120	500
121	1091
122	50
123	30
124	10
125	10
126	40
127	20
128	10
134	20
135	20
136	10
137	20
138	10
139	50
140	10
149	20
150	60
151	30
152	30
153	10
161	30
162	30
163	90
164	30
165	50
166	10
174	50
175	30
176	50
177	10
185	20
186	30
187	110
188	50
189	120
190	30
191	10
198	20
199	20
200	60
201	20
202	60
203	30
205	10
211	80
212	40
213	280
214	70
215	731
216	150
217	10
224	110
225	60
226	420
227	100
228	30
229	10
235	40
236	30
237	300
238	120
239	1832
240	661
241	1742
242	9999
243	2092
244	210
245	20
246	10
