Mass Spectrum: Benz[a]anthracene, 4-methyl-
Formula: C19 H14
CAS: 316-49-4
Molecular weight: 242
m/z	RELATIVE INTENSITY
34	20
35	40
36	70
37	50
38	80
39	270
40	460
41	210
42	40
43	140
44	150
45	120
46	10
47	20
48	10
49	20
50	160
51	180
52	100
53	20
54	10
55	60
56	80
57	240
58	30
59	40
60	10
61	20
62	70
63	150
64	20
65	20
66	10
67	10
68	10
69	20
70	20
71	60
72	20
73	40
74	110
75	100
76	50
77	90
78	360
79	50
80	30
81	30
82	20
83	20
84	10
85	50
86	90
87	150
88	70
89	50
90	10
91	30
92	10
93	40
94	100
95	70
96	10
97	20
98	80
99	60
100	90
101	40
102	10
103	30
104	10
105	40
106	120
107	150
108	170
109	10
110	40
111	60
112	90
113	240
114	20
115	30
116	10
117	50
118	90
119	260
120	490
121	1071
122	50
123	20
124	10
125	20
126	30
127	20
128	10
131	10
132	10
133	10
134	20
135	20
136	10
137	20
138	10
139	40
140	10
141	10
146	10
147	10
149	20
150	60
151	30
152	30
153	10
159	10
161	20
162	20
163	80
164	20
165	50
166	10
167	10
169	10
173	10
174	50
175	40
176	60
177	20
178	20
179	10
185	20
186	30
187	110
188	50
189	120
190	30
191	20
192	10
193	10
194	10
196	10
197	10
198	20
199	10
200	60
201	20
202	60
203	40
204	10
205	20
206	10
209	10
210	10
211	80
212	40
213	240
214	70
215	420
216	90
217	10
219	40
220	20
221	10
222	10
223	20
224	120
225	70
226	440
227	100
228	30
229	10
234	30
235	40
236	30
237	280
238	110
239	1762
240	671
241	1501
242	9999
243	2042
244	210
245	20
