Mass Spectrum: 3',4'-(Methylenedioxy)acetophenone
Formula: C9 H8 O3
CAS: 3162-29-6
Molecular weight: 164
Origin: NIST Mass Spectrometry Data Center
m/z	RELATIVE INTENSITY
12	10
14	230
15	550
16	10
17	10
18	10
25	20
26	70
27	110
28	80
29	360
30	90
31	10
33	10
36	10
37	260
38	320
39	641
40	40
42	240
43	1842
44	40
46	10
49	110
50	591
51	801
52	120
53	490
54	40
55	20
60	100
61	380
62	1061
63	2072
64	320
65	2372
66	180
67	70
68	80
69	20
74	550
75	120
76	100
77	310
78	60
79	140
80	10
85	10
86	20
87	10
88	10
89	40
91	891
92	130
93	30
94	10
104	10
105	50
107	10
119	230
121	3763
122	290
123	20
133	10
135	100
136	10
145	10
149	9999
150	911
151	90
164	5165
165	510
166	50
