Mass Spectrum: 1-(Nitromethyl)-cyclohexanol
Formula: C7 H13 N O3
CAS: 3164-73-6
Molecular weight: 159
Origin: Leung Pu, NIH, Bethesda, Maryland, U.S.
m/z	RELATIVE INTENSITY
41	5092
42	8302
43	4953
44	266
45	358
46	31
47	310
48	134
52	123
53	775
54	962
55	9999
56	1440
57	742
58	163
59	23
60	345
61	74
62	97
63	74
64	4
65	172
66	67
67	761
69	4886
70	3348
71	432
72	14
73	1481
74	76
75	16
77	205
78	167
79	426
80	724
81	1353
83	1654
84	105
86	70
87	239
88	132
89	5
91	73
92	3
93	166
95	2109
97	752
98	5946
99	2147
100	121
101	91
102	13
103	14
104	5
105	14
106	72
107	40
108	9
109	39
110	4
111	47
112	72
113	399
114	30
115	11
116	64
117	14
119	8
120	2
121	18
122	10
123	13
124	74
125	164
126	18
127	15
129	9
130	2
131	3
133	5
134	14
141	6
142	24
143	11
158	17
159	51
160	5
