Mass Spectrum: Benzene, 1-azido-2-methyl-
Formula: C7 H7 N3
CAS: 31656-92-5
Molecular weight: 133
Origin: TEXAS A&M UNIVERSITY, COLLEGE STATION, TEXAS, USA
m/z	RELATIVE INTENSITY
14	94
15	156
25	94
26	719
27	1313
28	1156
36	125
37	906
38	1281
39	3125
40	313
41	438
43	125
48	94
49	344
50	2813
51	3438
52	3125
53	469
54	188
61	531
62	688
63	1500
64	813
65	1875
66	313
69	281
73	188
74	563
75	531
76	750
77	3125
78	6563
79	5313
80	375
86	156
87	94
88	156
89	188
90	594
91	594
92	188
102	250
103	313
104	9999
105	6563
106	906
107	500
119	125
120	125
131	125
133	4063
134	375
