Mass Spectrum: 3-Nitro-4-methylbenzaldehyde
Formula: C8 H7 N O3
CAS: 31680-07-6
Molecular weight: 165
Origin: NIST Mass Spectrometry Data Center
m/z	RELATIVE INTENSITY
15	60
16	80
17	20
18	80
26	180
27	410
28	230
29	1511
30	1371
31	20
37	340
38	721
39	3263
40	280
41	661
42	50
43	120
44	70
46	250
49	170
50	1141
51	1922
52	470
53	340
54	40
55	40
60	70
61	450
62	1241
63	3313
64	1061
65	7237
66	550
67	50
73	130
74	530
75	460
76	250
77	1471
78	390
79	370
80	60
84	30
85	180
86	320
87	230
89	2883
90	1421
91	4324
92	3793
93	661
94	70
102	30
103	40
104	30
105	150
106	200
107	170
117	430
118	851
119	741
120	571
121	120
134	60
135	90
148	9999
149	971
150	100
164	290
165	1051
166	120
