Mass Spectrum: 1-Propene, 1,1,3-trichloro-2-methyl-
Formula: C4 H5 Cl3
CAS: 31702-33-7
Molecular weight: 158
m/z	RELATIVE INTENSITY
14	50
15	170
18	90
25	40
26	220
27	791
28	390
29	130
31	360
32	90
35	90
36	150
37	330
38	310
39	661
40	70
41	581
42	90
43	931
44	100
45	20
47	290
48	90
49	611
50	621
51	2953
52	250
53	340
54	20
55	30
57	30
58	40
59	1481
60	190
61	821
62	280
63	540
64	90
65	130
69	30
71	50
72	210
73	540
74	110
75	260
76	50
77	480
78	50
79	170
82	190
83	701
84	200
85	821
86	170
87	5475
88	300
89	1782
90	100
92	40
93	40
94	30
95	50
96	200
97	280
98	120
99	170
100	20
101	30
105	160
107	250
108	40
109	370
110	30
111	280
113	80
117	60
120	40
121	210
122	200
123	9999
124	591
125	6976
126	380
127	1411
128	90
129	70
130	40
132	30
143	250
145	240
147	90
149	40
156	70
157	60
158	2452
159	220
160	2372
161	410
162	761
163	280
164	90
165	90
