Mass Spectrum: Salicylidene o-chloroaniline
Formula: C13 H10 Cl N O
CAS: 3172-42-7
Molecular weight: 231
Origin: NIST Mass Spectrometry Data Center, 1994
m/z	RELATIVE INTENSITY
17	18
18	35
26	72
27	180
28	264
35	26
36	35
37	203
38	654
39	1637
40	172
41	14
47	27
49	107
50	1339
51	2451
52	608
53	275
54	35
55	128
56	33
57	26
58	23
60	28
61	182
62	377
63	999
64	661
65	884
66	352
67	48
68	23
71	226
72	41
73	258
74	364
75	2471
76	623
77	1391
78	239
79	44
84	856
85	244
86	88
87	143
88	105
89	170
90	193
91	465
92	313
93	117
94	220
98	178
99	228
100	64
101	149
102	526
103	67
104	42
105	89
111	1785
112	381
113	710
114	195
115	319
117	45
118	40
119	275
120	909
121	83
124	29
125	28
126	36
127	46
128	75
138	585
139	475
140	468
141	285
142	43
149	40
150	36
151	147
152	81
153	39
154	46
164	64
166	397
167	1228
168	704
169	171
170	21
176	37
177	96
178	105
179	37
193	25
194	74
196	9999
197	1453
198	127
201	46
202	79
203	22
204	28
214	61
215	20
216	22
230	1376
231	3145
232	838
233	1021
234	143
