Mass Spectrum: Iron, tricarbonyl[(1,2,3,4-.eta.)-2,3-dimethyl-1,3-butadiene]-
Formula: C9 H10 Fe O3
CAS: 31741-56-7
Molecular weight: 222
m/z	RELATIVE INTENSITY
56	5005
96	620
97	20
122	500
123	30
138	9999
139	701
166	5605
167	300
194	6806
195	400
222	1601
223	100
