Mass Spectrum: Cyclopentadienylmanganesedicarbonylthiocarbonyl
Formula: C8 H5 Mn O2 S
CAS: 31741-76-1
Molecular weight: 220
Origin: Institute of Organic Chemistry, Novosibirsk, USSR 1988
m/z	RELATIVE INTENSITY
55	9999
56	399
65	399
66	499
80	899
81	99
82	399
83	99
92	99
93	599
99	899
100	99
120	9999
121	699
164	4899
165	499
166	299
192	299
220	2499
221	299
222	99
