Mass Spectrum: Propane, 1,2,2-trichloro-
Formula: C3 H5 Cl3
CAS: 3175-23-3
Molecular weight: 146
m/z	RELATIVE INTENSITY
12	10
13	10
14	30
15	60
18	20
24	10
25	40
26	190
27	350
28	30
32	10
35	100
36	90
37	260
38	350
39	1591
40	130
41	390
42	10
43	10
47	120
48	80
49	1101
50	40
51	350
52	10
55	10
59	10
60	150
61	2272
62	470
63	1331
64	150
65	200
66	10
70	10
71	10
72	50
73	130
74	30
75	1922
76	160
77	641
78	50
79	10
82	20
83	741
84	20
85	480
86	10
87	80
94	20
95	370
96	1381
97	9999
98	1101
99	6366
100	280
101	1001
102	20
103	10
104	10
105	30
106	10
107	10
109	50
110	50
111	4424
112	190
113	2903
114	110
115	460
116	20
130	20
131	310
132	70
133	300
134	50
135	100
136	20
137	10
145	10
146	20
147	10
148	20
149	10
150	10
