Mass Spectrum: 2-Furanacetaldehyde, .alpha.-methyl-.alpha.-vinyl-
Formula: C9 H10 O2
CAS: 31776-28-0
Molecular weight: 150
Origin: CARL DJERASSI DEPT OF CHEM STANFORD UNIV STANFORD CALIF 94305
m/z	RELATIVE INTENSITY
41	1900
42	100
43	1200
50	900
51	2300
52	700
53	2000
54	100
55	400
61	100
62	300
63	1000
64	200
65	1900
66	500
67	300
74	200
75	100
77	8800
78	1600
79	1000
81	1700
82	100
91	5200
92	400
93	3300
94	300
95	900
96	300
103	400
104	200
107	400
109	100
121	9999
122	1100
131	500
132	500
150	200
