Mass Spectrum: Cyclohexane, 1,1'-(1,3-propanediyl)bis-
Formula: C15 H28
CAS: 3178-24-3
Molecular weight: 208
Origin: CONTINENTAL OIL CO., PONCA CITY, OKLA, USA
m/z	RELATIVE INTENSITY
14	206
15	65
16	21
26	46
27	705
28	118
29	894
30	25
37	34
38	21
39	753
40	156
41	3347
42	274
43	410
44	25
50	19
51	57
52	47
53	402
54	654
55	4879
56	318
57	120
63	16
65	86
66	100
67	1915
68	371
69	942
70	82
71	31
77	98
78	36
79	158
80	86
81	902
82	8368
83	9999
84	651
85	33
89	19
91	84
92	21
93	49
94	37
95	345
96	1262
97	645
98	59
105	17
107	15
108	33
109	298
110	74
111	69
112	20
123	42
124	205
125	225
126	38
137	26
138	25
139	19
151	21
152	21
165	21
178	28
179	31
180	57
207	25
208	1500
209	249
210	20
