Mass Spectrum: Heptane, 4-propyl-
Formula: C10 H22
CAS: 3178-29-8
Molecular weight: 142
Origin: NIST Mass Spectrometry Data Center, 1990.
m/z	RELATIVE INTENSITY
15	42
27	1077
28	256
29	1237
39	1051
41	3543
42	1009
43	2532
44	98
51	87
52	44
53	324
54	168
55	1436
56	1320
57	9999
58	462
65	77
67	143
68	112
69	589
70	1009
71	475
77	48
83	140
84	113
85	114
98	2963
99	564
100	35
112	123
113	44
142	155
