Mass Spectrum: Cyclohexane, (1,1-dimethylethyl)-
Formula: C10 H20
CAS: 3178-22-1
Molecular weight: 140
Origin: Japan AIST/NIMC Database- Spectrum MS-NW-3836
m/z	RELATIVE INTENSITY
15	40
26	20
27	449
28	50
29	819
30	20
38	10
39	529
40	90
41	2369
42	169
43	439
44	10
50	20
51	60
52	30
53	209
54	329
55	2119
56	9999
57	6749
58	309
63	10
65	40
66	30
67	1069
68	80
69	1289
70	80
71	20
77	50
78	10
79	60
80	10
81	169
82	1409
83	1309
84	90
91	20
95	20
96	10
97	20
109	10
119	10
125	369
126	40
140	70
