Mass Spectrum: 1-Propanol, 3-(dimethylamino)-
Formula: C5 H13 N O
CAS: 3179-63-3
Molecular weight: 103
Origin: Japan AIST/NIMC Database- Spectrum MS-NW-1099
m/z	RELATIVE INTENSITY
14	10
15	309
17	10
18	70
26	40
27	169
28	239
29	179
30	549
31	329
32	30
38	10
39	60
40	30
41	149
42	949
43	269
44	749
45	249
46	30
54	30
55	30
56	189
57	269
58	9999
59	379
68	20
70	90
71	70
72	129
73	20
74	10
84	109
85	10
86	10
100	10
102	30
103	759
104	50
