Mass Spectrum: 2-Propenoic acid, 2-methyl-, decyl ester
Formula: C14 H26 O2
CAS: 3179-47-3
Molecular weight: 226
Origin: NIST Mass Spectrometry Data Center
m/z	RELATIVE INTENSITY
15	10
26	30
27	470
28	20
29	1001
30	20
31	40
37	10
38	60
39	1782
40	460
41	6766
42	1221
43	3103
44	140
45	80
51	30
52	20
53	320
54	510
55	4074
56	3333
57	2452
58	140
59	320
60	10
65	50
66	60
67	631
68	961
69	9999
70	4814
71	981
72	50
73	50
74	170
77	30
79	70
80	20
81	320
82	1091
83	3753
84	2152
85	601
86	290
87	9088
88	1491
89	100
91	10
93	20
94	20
95	190
96	611
97	3173
98	1261
99	260
100	50
101	30
107	10
108	20
109	110
110	340
111	1832
112	1571
113	470
114	80
115	30
123	60
124	90
125	90
126	30
127	260
128	70
129	20
130	10
137	50
138	150
139	80
140	1802
141	310
142	80
143	20
144	10
149	20
150	30
151	30
152	60
153	190
154	30
155	50
156	40
157	40
165	30
166	30
167	80
168	10
169	30
170	10
179	10
180	10
183	110
184	10
185	30
193	10
208	10
227	20
