Mass Spectrum: Anisole, m-(2-nitrovinyl)-
Formula: C9 H9 N O3
CAS: 3179-09-7
Molecular weight: 179
Origin: NIST Mass Spectrometry Data Center, 1994
m/z	RELATIVE INTENSITY
15	1423
18	106
26	241
27	613
28	569
29	569
30	1793
31	124
32	74
37	279
38	1340
39	2385
40	381
41	396
42	149
43	274
44	86
45	193
46	420
50	2474
51	2794
52	863
53	1681
54	228
55	835
56	49
58	61
59	292
60	52
61	386
62	1730
63	5078
64	3022
65	2060
66	911
67	423
68	833
69	477
70	48
71	86
73	205
74	1193
75	1458
76	1851
77	6105
78	2430
79	1473
80	1096
81	1256
82	302
83	159
84	64
85	495
86	304
87	365
88	64
89	6464
90	5989
91	2800
92	3573
93	1044
94	768
95	665
96	861
97	117
98	263
99	107
100	64
101	649
102	4188
103	1730
104	649
105	519
106	654
107	960
108	1154
109	499
110	204
111	493
112	54
115	63
116	204
117	587
118	3129
119	741
120	960
121	1300
122	408
123	158
124	149
125	46
126	56
132	6520
133	997
134	989
135	766
136	512
137	135
146	121
147	193
148	706
149	192
150	185
151	54
162	918
163	149
164	370
165	46
179	9999
180	1100
181	108
