Mass Spectrum: Cyclohexane, (1,1-dimethylpropyl)-
Formula: C11 H22
CAS: 31797-64-5
Molecular weight: 154
Origin: NIST Mass Spectrometry Data Center, 1990.
m/z	RELATIVE INTENSITY
27	1077
28	137
29	1480
39	1516
40	337
41	3811
42	900
43	4329
44	170
50	50
51	185
52	111
53	759
54	617
55	4682
56	381
57	990
58	46
65	218
67	1592
69	3811
70	9999
71	5615
72	266
77	228
78	55
79	307
80	73
81	506
82	985
83	2100
84	129
91	76
95	77
97	309
109	65
110	62
111	90
124	541
125	1690
126	140
139	69
