Mass Spectrum: Tungsten, dicarbonyl(.eta.5-2,4-cyclopentadien-1-yl)(.eta.3-2-propenyl)-
Formula: C10 H10 O2 W
CAS: 31811-41-3
Molecular weight: 346
Origin: R.B.KING DEPT. CHEM., UNIV. OF GEORGIA, ATHENS, GEORGIA, USA
m/z	RELATIVE INTENSITY
223	600
249	1000
260	2000
262	400
288	9999
290	2000
318	2500
346	2000
