Mass Spectrum: 1-Butanamine, N-nitro-
Formula: C4 H10 N2 O2
CAS: 3182-75-0
Molecular weight: 118
Origin: O.S. Chizhov, Zelinskii Inst.Org.Chem., Acad.Sci., Moscow, USSR w, USSR
m/z	RELATIVE INTENSITY
28	480
29	3670
30	9050
39	3490
41	8650
42	1340
43	5620
44	2640
46	2820
55	2170
56	3850
57	520
75	9999
