Mass Spectrum: Mexiletine
Formula: C11 H17 N O
CAS: 31828-71-4
Molecular weight: 179
Origin: Patti Price, Georgia Bureau of Investigation, Decatur, Georgia
m/z	RELATIVE INTENSITY
41	930
42	360
43	220
44	9999
50	60
51	220
52	110
53	180
54	10
55	20
56	130
57	260
58	6465
59	220
62	20
63	100
64	10
65	240
66	30
67	10
73	10
74	10
75	10
76	20
77	850
78	210
79	260
80	10
82	10
87	10
89	10
90	10
91	580
92	90
93	40
94	10
95	10
101	10
102	30
103	180
104	60
105	340
106	30
107	330
108	20
116	10
117	10
118	30
119	10
120	10
121	400
122	300
123	20
129	10
131	10
133	10
135	40
136	60
137	10
143	10
145	10
146	10
147	20
148	40
162	10
163	10
164	10
179	160
180	10
