Mass Spectrum: Benzene, 1-methyl-4-(methylsulfonyl)-
Formula: C8 H10 O2 S
CAS: 3185-99-7
Molecular weight: 170
Origin: Japan AIST/NIMC Database- Spectrum MS-NW-7670
m/z	RELATIVE INTENSITY
14	10
15	239
26	20
27	129
28	189
29	10
31	10
32	30
34	10
37	30
38	109
39	1019
40	80
41	249
43	10
44	30
45	99
46	10
47	10
48	20
49	10
50	269
51	469
52	129
53	109
55	10
58	10
61	60
62	219
63	669
64	189
65	1989
66	119
67	40
69	50
70	10
71	20
73	10
74	70
75	60
76	40
77	689
78	139
79	529
80	30
81	10
82	10
84	10
85	20
86	50
87	50
88	20
89	539
90	229
91	9999
92	779
93	30
95	10
103	10
105	40
106	10
107	2599
108	379
109	30
111	30
121	30
122	20
123	20
137	10
138	40
139	169
140	10
141	10
155	3099
156	279
157	159
158	10
170	2679
171	269
172	149
173	10
