Mass Spectrum: 3(2H)-Furanone, dihydro-2-methyl-
Formula: C5 H8 O2
CAS: 3188-00-9
Molecular weight: 100
Origin: Japan AIST/NIMC Database- Spectrum MS-IW-4055
m/z	RELATIVE INTENSITY
13	30
14	169
15	709
16	60
18	10
25	30
26	659
27	1909
28	5589
29	2789
30	90
31	479
32	10
35	30
37	40
38	60
39	199
40	50
41	209
42	1039
43	9999
44	3609
45	3479
46	80
47	10
49	20
50	30
51	30
52	20
53	90
54	90
55	549
56	469
57	519
58	409
59	40
60	169
61	80
69	70
70	40
71	159
72	8729
73	599
74	40
75	10
82	10
83	30
84	60
85	129
86	50
87	10
98	50
99	90
100	5629
101	369
102	40
