Mass Spectrum: Ethane, (chloromethoxy)-
Formula: C3 H7 Cl O
CAS: 3188-13-4
Molecular weight: 94
Origin: NIST Mass Spectrometry Data Center, 1998.
m/z	RELATIVE INTENSITY
13	10
14	70
15	120
16	10
25	40
26	460
27	1690
28	540
29	3180
30	260
31	3100
32	40
33	10
35	110
36	60
37	50
38	20
39	10
40	10
41	150
42	100
43	460
44	280
45	30
47	60
48	90
49	2100
50	90
51	790
52	20
53	50
57	70
58	620
59	9999
60	360
61	30
62	10
63	110
64	10
65	80
67	20
79	1110
80	20
81	350
82	10
93	80
94	50
95	30
96	20
