Mass Spectrum: 4-Methyl-5-ethylthiazole
Formula: C6 H9 N S
CAS: 31883-01-9
Molecular weight: 127
Origin: HB-13
m/z	RELATIVE INTENSITY
15	4
17	4
18	55
25	2
26	124
27	495
28	463
29	129
32	98
33	9
34	15
37	70
38	120
39	916
40	151
41	756
42	253
43	4
44	56
45	1921
46	99
47	153
48	8
49	26
50	113
51	199
52	143
53	310
54	87
55	186
56	45
57	67
58	329
59	645
60	105
61	54
62	52
63	64
64	21
65	384
66	140
67	661
68	247
69	390
70	128
71	739
72	197
73	80
74	3
75	3
76	12
78	7
80	18
81	26
82	73
83	40
84	93
85	3092
86	230
87	139
88	6
92	25
93	6
94	256
95	12
96	5
97	98
98	263
99	586
100	441
101	42
102	15
111	12
112	9999
113	678
114	473
115	19
124	15
125	8
126	500
127	7361
128	599
129	348
130	15
