Mass Spectrum: Benzene, 1,3,5-trichloro-2,4,6-trifluoro-
Formula: C6 Cl3 F3
CAS: 319-88-0
Molecular weight: 234
Origin: Chuck Anderson, Aldrich Chemical Co.
m/z	RELATIVE INTENSITY
31	1190
35	239
36	147
37	67
47	132
48	30
49	39
55	231
60	206
67	29
69	27
71	191
72	42
73	60
74	192
78	70
79	1150
80	63
82	108
83	41
85	61
86	136
90	164
91	98
92	74
93	41
95	191
97	56
98	400
102	132
104	31
109	362
110	478
111	131
114	857
115	38
116	292
117	764
118	691
119	222
120	40
121	27
125	224
126	181
127	156
128	56
129	757
130	156
132	77
133	1429
134	73
135	458
145	370
147	108
149	2978
150	114
151	1888
152	76
153	294
164	1216
165	152
166	398
167	111
180	100
182	57
199	2579
200	123
201	1701
202	80
203	390
205	106
234	9999
235	505
236	9360
237	472
238	2951
239	157
240	300
