Mass Spectrum: 1-Propanone, 1-(2-furanyl)-
Formula: C7 H8 O2
CAS: 3194-15-8
Molecular weight: 124
Origin: MASS SPECTRA OF ORGANIC COMPOUNDS, V. 5, B. H. KENNETT ET AL, DIV. OF FOOD RESEARCH, CSIRO, AUSTRALIA
m/z	RELATIVE INTENSITY
26	300
27	1400
29	1500
30	100
37	300
38	800
39	3000
40	300
41	200
42	200
43	100
50	100
51	300
52	100
53	300
55	300
56	100
57	200
63	100
65	100
66	100
67	400
68	200
77	100
81	100
94	100
95	9999
96	900
97	100
123	100
124	3300
125	300
