Mass Spectrum: Diethyl diallylmalonate
Formula: C13 H20 O4
CAS: 3195-24-2
Molecular weight: 240
Origin: NIST Mass Spectrometry Data Center
m/z	RELATIVE INTENSITY
15	80
19	10
26	170
27	2102
29	5995
30	170
31	180
37	20
38	90
39	2222
40	380
41	4024
42	340
43	1461
44	280
45	540
46	20
47	90
50	140
51	540
52	480
53	2192
54	390
55	1661
56	110
57	1071
58	80
59	90
60	90
61	110
62	30
63	160
64	60
65	1181
66	951
67	2302
68	561
69	651
70	240
71	230
72	110
73	180
74	10
75	20
77	2863
78	631
79	4134
80	2813
81	1852
82	400
83	260
84	60
85	851
86	110
87	40
88	1942
89	150
91	3083
92	1672
93	9218
94	1161
95	1561
96	440
97	1121
98	240
99	651
100	40
101	60
102	10
103	90
104	50
105	340
106	230
107	540
108	1231
109	621
110	350
111	561
112	170
113	130
114	70
115	40
117	10
118	10
119	360
120	851
121	2682
122	540
123	1571
124	1241
125	4984
126	410
127	671
128	70
129	40
131	60
132	110
133	310
134	20
135	20
136	30
137	1081
138	1181
139	691
140	460
141	120
142	140
143	70
144	20
145	30
147	50
148	1872
149	1912
150	210
151	280
152	240
153	9999
154	901
155	110
156	10
157	10
160	2072
161	180
162	20
165	140
166	1922
167	1722
168	390
169	170
170	140
171	40
172	10
173	190
174	10
177	10
183	10
194	180
195	701
196	80
197	10
198	70
199	1431
200	180
201	20
211	20
212	20
241	10
