Mass Spectrum: Adipic acid, diphenyl ester
Formula: C18 H18 O4
CAS: 3195-37-7
Molecular weight: 298
Origin: Japan AIST/NIMC Database- Spectrum MS-IW-7934
m/z	RELATIVE INTENSITY
26	10
27	149
28	159
29	199
38	30
39	439
40	60
41	279
42	70
43	30
50	40
51	199
52	20
53	70
54	30
55	2339
56	209
57	10
62	10
63	60
64	40
65	579
66	189
67	50
68	60
69	50
74	10
76	30
77	1129
78	80
79	30
81	30
82	30
83	1289
84	139
85	10
91	60
92	20
93	139
94	2319
95	1999
96	119
105	20
107	90
108	10
109	10
110	30
111	9999
112	699
113	60
115	10
121	699
122	50
131	20
133	70
135	179
136	20
141	20
149	10
159	729
160	90
161	20
163	20
176	10
177	489
178	60
187	20
204	10
205	5849
206	779
207	80
298	30
299	10
