Mass Spectrum: 5,5-Dimethyl-2-phenoxy-1,3,2-dioxaphosphorinane, 2-sulfide
Formula: C11 H15 O3 P S
CAS: 31951-84-5
Molecular weight: 258
Origin: ASES Database, Dalian Institute, P.R. China
m/z	RELATIVE INTENSITY
39	2892
41	8027
55	1991
56	1491
62	290
63	1000
65	1591
66	500
67	810
68	1191
69	9999
70	600
71	790
77	2492
85	980
94	4604
95	500
97	490
109	1401
110	3393
111	480
112	290
123	200
125	600
129	400
130	290
131	200
133	890
155	780
156	290
157	200
161	190
165	300
171	390
172	1391
173	800
174	390
175	590
190	3302
191	2702
192	290
203	190
224	190
225	190
226	200
243	90
244	190
258	5484
259	990
260	490
