Mass Spectrum: 4-Methyl-2,6,7-trioxa-1-phosphabicyclo(2.2.2)octane-1-sulfide
Formula: C5 H9 O3 P S
CAS: 3196-56-3
Molecular weight: 180
Origin: VERIFIN - Methodology B1-1979
m/z	RELATIVE INTENSITY
27	2302
28	400
29	3102
30	100
31	300
32	200
38	200
39	3202
40	400
41	2602
42	200
43	800
45	300
46	700
47	1701
51	200
53	1201
54	600
55	7807
56	700
57	600
63	500
67	200
69	300
71	700
72	100
79	400
83	300
84	100
85	1101
86	1401
87	200
88	100
96	200
97	200
99	700
100	200
109	100
117	500
118	300
131	100
135	100
149	100
150	600
151	100
180	9999
181	700
182	400
