Mass Spectrum: 2,5-Dichlorobenzotrifluoride
Formula: C7 H3 Cl2 F3
CAS: 320-50-3
Molecular weight: 214
Origin: NIST Mass Spectrometry Data Center
m/z	RELATIVE INTENSITY
17	10
18	40
19	20
24	10
25	50
26	30
31	370
35	300
36	190
37	781
38	440
39	70
47	150
48	80
49	500
50	1261
51	310
52	30
54	20
55	180
56	110
57	120
60	240
61	460
62	480
63	150
64	30
67	80
68	250
69	1812
70	50
71	100
72	300
73	961
74	2572
75	2422
76	140
77	10
79	190
80	290
81	120
82	30
84	520
85	561
86	210
87	200
88	30
89	330
90	90
91	230
92	200
93	561
94	340
95	110
97	681
98	280
99	701
100	40
102	20
103	90
104	120
105	70
106	40
107	190
108	290
109	1271
110	300
111	430
112	110
113	30
114	10
115	50
117	70
118	90
119	160
120	30
121	30
122	40
123	220
124	90
125	731
126	60
127	30
128	80
129	480
130	60
131	180
132	20
133	60
135	60
137	20
141	30
143	891
144	1041
145	310
146	30
147	140
148	50
149	20
150	10
153	60
155	20
159	450
160	200
161	150
162	80
164	1621
165	160
166	1111
167	60
168	180
169	20
175	20
177	70
179	6606
180	520
181	2122
182	160
195	2112
196	220
197	1371
198	110
199	220
212	30
214	9999
215	921
216	6216
217	490
218	981
219	60
