Mass Spectrum: Benzene, 2,4-dichloro-1-(trifluoromethyl)-
Formula: C7 H3 Cl2 F3
CAS: 320-60-5
Molecular weight: 214
Origin: Japan AIST/NIMC Database- Spectrum MS-NW-3104
m/z	RELATIVE INTENSITY
20	10
25	10
26	20
27	10
28	20
31	189
35	50
36	70
37	259
38	139
39	20
44	20
47	40
48	30
49	149
50	549
51	139
52	10
54	20
55	60
56	50
57	80
60	70
61	149
62	239
63	50
64	30
65	10
67	30
68	99
69	619
70	20
71	30
72	109
73	369
74	1119
75	1129
76	60
79	109
80	169
81	70
82	60
83	50
84	259
85	249
86	90
87	80
88	20
89	129
90	50
91	129
92	80
93	279
94	229
95	50
96	10
97	269
98	189
99	319
100	30
102	10
103	40
104	50
105	30
106	10
107	109
108	149
109	629
110	159
111	229
112	50
113	20
115	40
117	40
118	40
119	90
120	10
121	10
122	10
123	109
124	40
125	509
126	40
127	20
128	50
129	379
130	40
131	119
132	10
133	50
135	40
137	10
141	20
142	10
143	579
144	619
145	169
146	30
147	90
148	30
149	20
150	10
153	40
154	10
155	10
159	309
160	219
161	119
162	70
163	20
164	2479
165	179
166	1609
167	109
168	269
169	20
175	10
177	30
178	80
179	3869
180	339
181	1219
182	99
194	40
195	2549
196	219
197	1659
198	129
199	269
200	20
213	169
214	9999
215	879
216	6359
217	509
218	999
219	80
