Mass Spectrum: Thiazolo[3,2-a]pyridinium, 8-(acetyloxy)-3-hydroxy-2-phenyl-, hydroxide, inner salt
Formula: C15 H11 N O3 S
CAS: 32002-92-9
Molecular weight: 285
Origin: K. UNDHEIM
m/z	RELATIVE INTENSITY
39	1200
42	600
43	1600
45	200
50	200
51	700
62	200
63	500
69	400
70	200
71	200
77	2600
78	200
89	400
90	300
105	500
118	200
121	9999
122	1000
123	500
127	300
154	200
182	800
183	200
186	200
214	2100
215	700
216	200
242	200
243	7600
244	500
285	2400
286	500
