Mass Spectrum: Diethyl 3-chlorophenyl phosphate
Formula: C10 H14 Cl O4 P
CAS: 32019-36-6
Molecular weight: 264
Origin: ASES Database, Dalian Institute, P.R. China
m/z	RELATIVE INTENSITY
81	3112
99	390
109	2702
127	2972
128	9999
130	3212
138	9488
140	3272
201	1191
208	1301
210	400
221	2181
223	590
236	1691
238	590
249	590
251	200
264	3493
266	1090
