Mass Spectrum: 2-Propynenitrile, 3-fluoro-
Formula: C3 F N
CAS: 32038-83-8
Molecular weight: 69
Origin: HCACAV,61(1)357(1978); G. BIERI ET AL
m/z	RELATIVE INTENSITY
24	100
26	100
31	900
35	400
50	500
69	9999
