Mass Spectrum: Thiazolo[3,2-a]pyridinium, 3-hydroxy-2-phenyl-, hydroxide, inner salt
Formula: C13 H9 N O S
CAS: 32044-03-4
Molecular weight: 227
Origin: K. UNDHEIM
m/z	RELATIVE INTENSITY
39	700
45	300
50	400
51	2000
52	400
62	300
63	500
69	600
77	3600
78	800
89	200
93	200
121	9999
122	900
123	500
127	300
167	700
198	4100
199	1200
200	300
227	8800
228	1300
229	500
