Mass Spectrum: 2-Nonen-4-one
Formula: C9 H16 O
CAS: 32064-72-5
Molecular weight: 140
Origin: CARL DJERASSI DEPT OF CHEM STANFORD UNIV STANFORD CALIF 94305
m/z	RELATIVE INTENSITY
27	800
28	200
29	600
39	1500
40	300
41	2900
42	300
43	1000
53	200
55	700
58	300
69	9999
70	500
71	200
83	200
84	4700
85	500
97	500
99	200
111	200
125	1000
140	200
