Mass Spectrum: 3-Decen-5-one
Formula: C10 H18 O
CAS: 32064-73-6
Molecular weight: 154
m/z	RELATIVE INTENSITY
39	1501
40	300
41	1702
42	400
43	1401
51	200
53	701
54	300
55	3703
56	300
57	200
65	200
67	400
69	200
70	200
71	300
77	300
79	300
81	200
83	9999
84	601
86	400
91	200
95	400
97	300
98	3503
99	601
111	1201
112	500
113	400
121	400
125	1501
126	200
154	200
