Mass Spectrum: 3-Decen-5-one, 2-methyl-
Formula: C11 H20 O
CAS: 32064-75-8
Molecular weight: 168
Origin: CARL DJERASSI DEPT OF CHEM STANFORD UNIV STANFORD CALIF 94305
m/z	RELATIVE INTENSITY
27	1300
28	300
29	1100
39	900
40	200
41	5000
42	400
43	4800
44	200
51	100
53	600
54	200
55	1000
56	100
67	400
68	200
69	2100
70	300
71	2700
72	200
77	100
79	300
80	200
81	100
83	200
95	200
97	9999
98	700
99	3900
100	300
112	3600
113	300
125	1900
126	200
153	100
168	400
