Mass Spectrum: Hexadec-2-enylsuccinic anhydride
Formula: C20 H34 O3
CAS: 32072-96-1
Molecular weight: 322
Origin: NIST Mass Spectrometry Data Center, 1994
m/z	RELATIVE INTENSITY
14	43
27	1506
28	697
29	3366
32	8
39	1740
41	9999
42	1630
43	9404
44	406
51	143
52	209
53	1735
54	3294
55	8108
56	1817
57	4699
58	267
65	664
66	737
67	5513
68	3069
69	3712
70	1486
71	2110
72	337
73	124
77	905
79	4205
80	1788
81	4868
82	3554
83	6758
84	1332
85	1001
86	153
91	770
92	340
93	1458
94	1625
95	4205
96	3702
97	3752
98	1046
99	1373
100	1556
101	122
104	165
105	471
106	348
107	1198
108	1178
109	2518
110	1392
111	1350
112	612
113	368
117	478
118	130
119	675
120	300
121	1652
122	787
123	2277
124	1411
125	925
126	405
127	528
128	3602
129	355
130	130
131	497
132	222
133	602
134	312
135	1029
136	915
137	1842
138	1083
139	702
140	1083
141	4137
142	1744
143	234
144	222
145	440
146	164
147	439
148	247
149	1211
150	866
151	836
152	902
153	663
154	2559
155	1376
156	291
159	250
161	245
162	153
163	1004
164	1877
165	861
166	661
167	4686
168	1026
169	412
170	140
173	216
174	156
175	137
176	137
177	974
178	1665
179	568
180	470
181	920
182	395
183	243
187	144
191	948
192	1325
193	354
194	1221
195	857
196	252
205	683
206	420
207	187
208	134
209	256
210	134
219	376
220	291
221	179
222	165
223	161
227	185
233	285
234	162
235	265
236	180
241	209
245	134
247	125
248	137
249	706
250	248
251	100
258	84
259	542
260	191
261	126
262	262
263	179
276	389
277	1376
278	332
279	177
281	123
304	1107
305	238
322	5575
323	1258
324	178
