Mass Spectrum: Tetrahydrofuran, 2-propyl-
Formula: C7 H14 O
CAS: 3208-22-8
Molecular weight: 114
Origin: P.Dagaut ET AL.Chromatographia,40,147,(1995)
m/z	RELATIVE INTENSITY
37	180
38	310
39	2222
40	330
41	3563
42	1091
43	4034
44	230
45	80
49	50
50	120
51	180
52	50
53	250
54	190
55	571
56	360
57	180
58	50
65	50
67	180
68	140
69	300
70	1471
71	9999
72	500
73	40
76	60
77	50
79	90
81	110
83	50
84	50
95	60
97	100
112	30
113	150
114	30
