Mass Spectrum: Furan, 2-ethyl-
Formula: C6 H8 O
CAS: 3208-16-0
Molecular weight: 96
Origin: NIST Mass Spectrometry Data Center, 1990.
m/z	RELATIVE INTENSITY
14	26
15	105
25	25
26	191
27	679
28	138
29	351
31	45
32	31
36	33
37	256
38	526
39	1623
40	338
41	854
42	167
43	48
49	67
50	476
51	623
52	438
53	3302
54	187
55	120
57	32
60	23
61	116
62	199
63	292
64	72
65	593
66	266
67	762
68	183
69	31
77	71
78	25
79	44
80	25
81	9999
82	563
83	35
94	105
95	608
96	3077
97	189
