Mass Spectrum: Tetrahydrofuran, 2-hexyl-
Formula: C10 H20 O
CAS: 3208-32-0
Molecular weight: 156
Origin: P.Dagaut ET AL.Chromatographia,40,147,(1995)
m/z	RELATIVE INTENSITY
37	60
38	130
39	1481
40	240
41	2813
42	741
43	2722
44	100
45	70
50	90
51	140
53	230
54	190
55	691
56	350
57	320
58	40
65	100
67	350
68	260
69	280
70	591
71	9999
72	480
73	70
77	80
79	120
81	230
82	160
83	210
84	180
85	290
87	210
95	130
96	240
97	240
98	200
99	30
100	30
105	60
108	40
109	160
110	70
111	70
120	30
125	30
127	591
128	50
138	330
139	20
155	20
