Mass Spectrum: 4H-Pyrido[1,2-a]pyrimidin-4-one, 6,7,8,9-tetrahydro-6-methyl-
Formula: C9 H12 N2 O
CAS: 32092-29-8
Molecular weight: 164
Origin: P. BRUCK, MAGYAR TUDOMANYOS AKADEMIA, HUNGARY
m/z	RELATIVE INTENSITY
51	700
52	600
53	600
66	700
67	600
69	1500
93	600
94	600
110	6000
121	600
122	700
123	1400
135	2000
149	5200
163	5000
164	9999
165	1100
