Mass Spectrum: Tacrine
Formula: C13 H14 N2
CAS: 321-64-2
Molecular weight: 198
Origin: NIST Mass Spectrometry Data Center, 1998.
m/z	RELATIVE INTENSITY
15	10
26	20
27	160
29	50
30	50
37	20
38	80
39	440
40	70
41	230
42	110
43	20
44	10
49	10
50	300
51	550
52	390
53	160
54	110
55	20
56	10
57	40
58	70
61	20
62	120
63	370
64	200
65	320
66	130
67	70
68	20
69	20
70	120
71	120
73	10
74	140
75	350
76	550
77	1030
78	320
79	280
80	40
81	10
82	40
83	190
85	150
86	60
87	90
88	120
89	350
90	270
91	1030
93	50
94	10
95	80
98	490
99	270
100	60
101	320
102	920
103	510
104	300
105	40
110	10
111	10
112	20
113	130
114	200
115	700
116	460
117	260
118	90
119	40
125	60
126	150
127	350
128	720
129	660
130	550
131	120
132	40
137	10
138	30
139	130
140	390
141	180
142	210
143	310
144	540
145	140
146	10
150	30
151	120
152	270
153	200
154	370
155	580
156	170
157	140
158	140
159	20
164	30
165	50
166	200
167	440
168	420
169	2250
170	2010
171	490
172	150
173	10
177	50
178	120
179	120
180	850
181	930
182	2360
183	1220
184	160
191	10
192	30
193	70
194	100
195	980
196	350
197	8629
198	9999
199	1410
200	100
