Mass Spectrum: 3-(Methylthio)penta-2,4-dione
Formula: C6 H10 O2 S
CAS: 32113-68-1
Molecular weight: 146
Origin: C. OFFEN, MAFF, FOOD SCI. LAB., NORWICH, U.K.
m/z	RELATIVE INTENSITY
41	900
42	500
43	9999
45	1800
47	800
53	600
55	1600
59	700
61	1200
67	500
71	600
75	800
85	1100
86	900
88	1500
89	2100
100	500
103	3700
104	5400
105	500
113	1400
128	500
131	1100
146	6000
147	700
148	300
