Mass Spectrum: Isothiocyanic acid, 4-bromo-3-chlorophenyl ester
Formula: C7 H3 Br Cl N S
CAS: 32118-33-5
Molecular weight: 247
Origin: NIST Mass Spectrometry Data Center, 1994
m/z	RELATIVE INTENSITY
12	82
14	74
25	82
26	176
27	73
28	183
32	710
35	166
36	338
37	1375
38	861
39	201
44	878
45	303
46	74
47	196
48	188
49	976
50	2020
51	470
52	129
56	169
57	138
58	420
59	102
60	392
61	1295
62	1257
63	952
64	429
66	290
68	82
69	342
70	1133
71	182
72	525
73	1553
74	4313
75	3719
76	374
79	307
80	114
81	420
82	262
83	752
84	1899
85	762
86	454
87	454
88	890
89	186
91	69
93	104
94	116
95	100
96	87
97	427
98	313
99	440
100	958
101	184
105	190
106	382
107	290
108	237
109	902
110	1428
111	364
112	401
116	67
117	117
118	122
119	103
124	1193
126	361
127	68
128	90
129	93
130	105
131	66
132	66
133	3279
134	420
135	182
136	429
138	202
141	156
142	58
143	82
153	286
155	198
168	2006
169	247
170	830
171	98
177	111
179	138
189	1127
190	148
191	1590
192	93
193	369
205	61
214	58
215	268
217	355
219	86
247	6955
248	656
249	9999
250	846
251	2777
252	257
253	129
