Mass Spectrum: 1,2-Cyclobutanedicarbonitrile, trans-
Formula: C6 H6 N2
CAS: 3211-20-9
Molecular weight: 106
Origin: T.A.BLAZER DU PONT, GIBBSTOWN, N.J., USA
m/z	RELATIVE INTENSITY
15	213
24	117
25	406
26	4485
27	2836
28	5986
29	186
36	134
37	706
38	895
39	1283
40	403
41	296
42	35
48	34
49	136
50	619
51	2238
52	4245
53	9999
54	8660
55	319
61	23
62	68
63	144
64	308
65	63
66	2360
67	115
74	22
75	140
76	189
77	267
78	305
79	1677
80	136
91	144
105	222
106	62
