Mass Spectrum: 2,3-Dimethoxyphenethylamine
Formula: C10 H15 N O2
CAS: 3213-29-4
Molecular weight: 181
Origin: NIST Mass Spectrometry Data Center, 1994
m/z	RELATIVE INTENSITY
4	49
14	45
15	290
18	18
26	37
27	125
28	436
29	18
30	9999
31	177
37	26
38	90
39	676
40	80
41	138
42	100
43	86
44	38
45	43
47	34
49	11
50	149
51	487
52	189
53	164
54	53
55	83
59	18
61	23
62	77
63	236
64	139
65	972
66	230
67	99
68	21
69	12
74	33
75	42
77	631
78	422
79	320
80	101
81	136
82	19
89	157
91	1212
92	173
93	181
94	184
95	71
103	29
104	71
105	229
106	238
107	197
108	74
109	325
110	38
116	30
117	38
118	41
119	43
120	24
121	230
122	181
123	77
132	13
133	49
134	97
135	178
136	522
137	823
138	102
147	14
148	50
149	408
150	2281
151	321
152	1575
153	148
165	20
181	25
