Mass Spectrum: Thianaphthene-3-acetonirile
Formula: C10 H7 N S
CAS: 3216-48-6
Molecular weight: 173
Origin: NIST Mass Spectrometry Data Center, 1994
m/z	RELATIVE INTENSITY
12	35
13	19
14	24
17	10
18	60
26	146
27	212
28	200
32	66
34	19
36	23
37	334
38	528
39	970
40	160
41	8
45	2025
46	96
47	109
48	31
49	130
50	1035
51	1019
52	243
53	44
56	20
57	155
58	220
60	89
61	394
62	754
63	1258
64	201
65	129
66	28
69	1650
70	266
71	204
72	409
73	443
74	852
75	842
76	452
77	642
78	101
80	36
81	285
82	343
83	80
84	64
85	172
86	36
87	653
88	212
89	654
90	90
92	55
93	541
94	230
95	164
96	86
97	54
98	152
99	167
100	209
101	642
102	1307
103	343
104	37
105	84
106	143
107	55
108	142
109	64
110	31
111	27
112	47
113	168
114	102
115	258
116	51
117	95
118	38
119	158
120	158
121	200
122	33
123	30
126	27
127	188
128	503
129	120
132	73
133	45
134	117
135	13
138	20
140	682
141	81
143	26
145	1655
146	1245
147	1979
148	251
149	100
170	116
172	9999
173	8407
174	1461
175	434
176	52
