Mass Spectrum: Tyrosol, 2TMS derivative
Formula: C14 H26 O2 Si2
CAS: 321884-10-0
Molecular weight: 282
Origin: G.S. KING, CHEM. PATHOL. DEP., QUEEN CHARLOTTE'S HOSP., LONDON,
m/z	RELATIVE INTENSITY
41	80
43	320
44	160
45	720
47	160
58	640
59	280
61	80
72	80
73	5440
74	520
75	760
76	80
77	160
89	80
91	160
103	1000
104	120
105	120
115	80
117	160
126	280
133	80
135	80
147	280
149	200
151	80
161	80
163	160
164	120
177	280
179	9999
180	1520
181	520
192	120
193	1200
194	200
195	80
267	1160
268	280
269	120
282	1800
283	440
284	160
