Mass Spectrum: Trimethylsilyl O-(trimethylsilyl)isohomovanillate
Formula: C15 H26 O4 Si2
CAS: 321884-12-2
Molecular weight: 326
Origin: NIST Mass Spectrometry Data Center, 2011
m/z	RELATIVE INTENSITY
15	20
27	10
29	30
31	20
39	30
41	10
42	20
43	190
44	150
45	1031
46	70
47	230
48	10
49	10
50	20
51	90
52	20
53	30
54	10
55	50
56	10
57	60
58	120
59	561
60	80
61	190
62	20
63	60
64	20
65	90
66	20
67	20
68	10
69	30
70	30
71	40
73	9999
74	881
75	1952
76	170
77	330
78	80
79	50
80	10
81	20
82	20
83	60
84	10
85	40
86	10
87	20
88	20
89	320
90	110
91	230
92	40
93	40
94	20
95	60
96	10
97	40
98	10
99	50
100	10
101	20
102	20
103	90
104	220
105	200
106	30
107	50
108	10
109	30
110	10
111	10
115	60
116	20
117	100
118	40
119	110
120	40
121	80
122	30
123	30
124	10
125	10
129	10
131	60
132	20
133	180
134	50
135	450
136	80
137	120
138	10
140	320
143	10
145	30
146	10
147	230
148	490
149	1021
150	160
151	100
152	10
153	20
159	20
160	20
161	180
162	70
163	200
164	60
165	90
166	20
167	20
175	40
176	50
177	190
178	490
179	5605
180	891
181	280
182	30
189	10
190	10
191	50
192	290
193	230
194	70
195	50
196	10
203	10
206	621
207	230
208	100
209	3233
210	591
211	170
212	20
219	20
220	10
221	40
222	10
223	50
224	20
225	30
233	10
235	20
236	60
237	601
238	130
239	60
240	10
249	10
250	10
251	50
252	310
253	110
254	40
255	30
256	10
265	20
267	3883
268	941
269	370
270	60
271	10
280	10
281	10
282	10
283	10
296	1311
297	340
298	140
299	20
300	10
311	1742
312	450
313	180
314	30
315	10
326	4194
327	1111
328	440
329	80
330	10
