Mass Spectrum: 5.beta.-Pregnane, 3.alpha.,11.beta.,17,20.alpha.,21-pentakis(trimethylsiloxy)-
Formula: C36 H76 O5 Si5
CAS: 32213-62-0
Molecular weight: 728
Origin: CHARLES C.SWEELEY,MICHIGAN STATE UNIV.EAST LANSING,MICH
m/z	RELATIVE INTENSITY
45	260
47	120
55	410
61	110
67	300
69	160
73	9999
74	750
75	2010
76	160
79	370
81	560
83	180
89	130
91	490
93	480
94	120
95	510
101	220
103	1010
104	130
105	710
106	180
107	650
109	170
115	130
116	130
117	840
118	220
119	430
121	250
129	1500
130	260
131	540
132	140
133	590
134	120
135	180
141	130
142	180
143	960
144	220
145	650
146	170
147	2300
148	340
149	340
154	340
155	420
156	180
157	469
158	130
159	420
160	120
161	180
167	110
168	160
169	620
170	170
171	570
172	140
173	190
175	160
181	230
182	140
183	250
185	260
187	130
189	500
190	140
191	1280
192	260
193	260
194	130
195	570
196	180
197	320
199	330
201	230
203	230
204	140
205	600
206	180
209	180
211	430
212	130
213	340
214	110
215	180
216	120
217	730
218	200
219	160
223	170
225	130
227	220
228	180
229	130
230	270
231	280
233	130
235	120
242	160
243	3120
244	870
245	420
247	110
249	130
253	3050
254	890
255	200
265	420
266	120
267	180
269	110
279	380
283	210
301	140
305	160
320	220
333	180
343	2830
344	870
345	280
355	620
356	220
357	130
369	260
370	120
432	110
433	1400
434	560
435	220
445	2100
446	840
447	360
458	140
459	380
460	170
461	140
522	140
523	2630
524	1190
525	540
526	180
534	220
535	2500
536	1250
537	570
538	180
548	550
549	300
550	130
625	540
626	320
627	170
638	440
639	250
640	130
728	320
729	220
730	140
