Mass Spectrum: Octane, 2-methyl-
Formula: C9 H20
CAS: 3221-61-2
Molecular weight: 128
m/z	RELATIVE INTENSITY
26	100
27	2102
28	400
29	2302
30	100
39	1001
40	200
41	3503
42	2803
43	9999
44	300
51	100
53	200
54	100
55	901
56	1501
57	5105
58	200
69	400
70	200
71	2803
72	100
84	1301
85	1702
86	100
99	100
112	200
113	701
114	100
128	200
