Mass Spectrum: 4-tert-Butylcyclohexyl acetate
Formula: C12 H22 O2
CAS: 32210-23-4
Molecular weight: 198
Origin: NIST Mass Spectrometry Data Center, 1992
m/z	RELATIVE INTENSITY
15	598
16	17
17	34
18	107
27	806
28	437
29	1737
30	43
31	67
37	8
39	1050
41	4242
42	633
43	6879
44	238
45	61
50	30
51	101
52	91
53	571
54	835
55	1765
56	2851
57	9999
58	485
59	25
60	25
61	1839
62	57
63	31
65	189
67	4598
68	424
69	716
70	221
71	120
72	16
77	262
78	94
79	875
80	3497
81	3523
82	4891
83	1799
84	180
85	20
86	36
91	124
92	21
93	93
94	141
95	607
96	294
97	168
98	58
99	162
100	17
104	6
105	31
106	9
107	73
108	22
109	92
110	155
111	26
117	97
118	10
121	28
123	1597
124	164
125	17
138	752
139	93
141	198
142	211
143	177
144	20
155	51
