Mass Spectrum: Tribromoacetic acid, methyl ester
Formula: C3 H3 Br3 O2
CAS: 3222-05-7
Molecular weight: 308
Origin: Y. Xie ET AL, Org.Mass Spectrom.,27,807(1992)
m/z	RELATIVE INTENSITY
59	440
79	390
81	300
91	941
93	1081
105	50
107	500
109	360
170	1501
172	2903
173	220
174	1391
175	160
185	270
187	751
189	330
198	190
200	550
201	550
202	250
203	1221
205	550
229	1111
231	2172
233	971
249	3403
251	9779
253	9999
255	3103
277	20
279	50
281	70
308	20
310	50
312	60
