Mass Spectrum: Pyrazine, 2,3-dimethyl-5-(1-methylpropyl)-
Formula: C10 H16 N2
CAS: 32263-00-6
Molecular weight: 164
m/z	RELATIVE INTENSITY
15	721
16	70
17	100
18	20
25	10
26	350
27	3003
28	1732
29	1121
30	100
31	20
36	10
37	70
38	290
39	1401
40	400
41	1321
42	2132
43	200
44	70
45	60
46	10
47	10
48	10
49	20
50	300
51	761
52	1271
53	2662
54	781
55	410
56	140
57	170
58	20
59	10
60	20
61	20
62	30
63	30
64	120
65	350
66	591
67	561
68	240
69	110
70	70
71	10
72	10
73	20
74	20
75	20
76	30
77	130
78	90
79	170
80	480
81	130
82	70
83	20
84	70
85	10
86	20
87	10
88	10
89	10
90	10
91	40
92	90
93	110
94	130
95	80
96	30
97	20
98	10
99	10
100	10
101	10
102	10
103	10
104	20
105	30
106	70
107	220
108	520
109	280
110	300
111	30
112	10
113	10
114	10
115	10
116	10
117	10
118	20
119	50
120	70
121	200
122	2803
123	460
124	50
125	30
126	10
127	10
128	10
129	10
130	10
131	20
132	30
133	100
134	540
135	5205
136	9999
137	1031
138	50
139	10
140	10
141	10
142	10
143	10
144	10
145	20
146	40
147	250
148	80
149	4754
150	500
151	60
152	10
159	10
160	10
161	40
162	20
163	430
164	1381
165	180
166	30
