Mass Spectrum: 2,3-Dimethyl-5-n-propylpyrazine
Formula: C9 H14 N2
CAS: 32262-98-9
Molecular weight: 150
Origin: Philip Morris R&D
m/z	RELATIVE INTENSITY
36	28
37	49
38	229
39	2407
40	492
41	744
42	1703
43	237
44	11
46	4
49	6
50	140
51	348
52	615
53	1343
54	479
55	135
56	22
57	45
58	5
59	1
60	22
61	18
62	16
63	59
64	71
65	222
66	286
67	616
68	150
69	15
70	142
71	4
73	1
74	8
75	5
76	23
77	24
78	50
79	94
80	1000
81	176
82	39
83	3
90	1
91	12
92	25
93	64
94	245
95	80
96	26
97	8
103	2
104	4
105	14
106	20
107	293
108	331
109	196
110	19
117	1
118	7
119	19
120	21
121	864
122	9999
123	1052
131	4
132	11
133	23
134	36
135	2507
136	253
137	9
147	87
148	12
149	1107
150	2883
151	303
152	18
153	0
