Mass Spectrum: Thiazole, 2-methyl-4-(1-methylethyl)-
Formula: C7 H11 N S
CAS: 32272-52-9
Molecular weight: 141
Origin: HB-2
m/z	RELATIVE INTENSITY
26	26
27	266
28	65
29	87
34	5
37	32
38	96
39	751
40	125
41	660
42	546
43	104
44	24
45	1859
46	57
47	127
49	5
50	81
51	177
52	111
53	213
54	83
55	200
56	24
57	157
58	467
59	620
60	102
61	30
62	23
63	414
64	22
65	345
66	96
67	378
68	38
69	198
70	52
71	182
72	60
73	22
74	3
79	5
80	20
81	31
82	139
83	138
84	238
85	3338
86	215
87	155
90	2
92	6
93	12
97	124
98	20
99	1007
100	317
101	53
102	15
108	104
112	71
113	473
114	32
115	13
124	27
125	51
126	9999
127	779
128	444
129	26
139	4
140	1554
141	4570
142	458
143	200
144	11
