Mass Spectrum: 1-Naphthol, 1,2,3,4-tetrahydro-2-methyl-
Formula: C11 H14 O
CAS: 32281-70-2
Molecular weight: 162
Origin: J. M. SPRINGER - E. J. EISENBRAUN
m/z	RELATIVE INTENSITY
13	20
14	73
15	835
16	10
25	13
26	293
27	2129
28	264
29	1179
30	53
31	206
36	7
37	90
38	357
39	2651
40	336
41	1044
42	400
43	697
44	84
45	212
46	25
47	36
49	43
50	842
51	2150
52	507
53	499
54	52
55	574
56	161
57	418
58	207
59	58
60	87
61	101
62	443
63	1500
64	732
65	2042
66	257
67	94
68	42
69	160
70	223
71	414
72	201
73	85
74	352
75	435
76	354
77	2070
78	675
79	651
80	60
81	42
82	25
83	61
84	34
85	52
86	118
87	187
88	125
89	955
90	815
91	5263
92	1334
93	138
94	25
95	16
96	10
97	18
98	78
99	44
100	27
101	137
102	437
103	616
104	565
105	1082
106	104
107	110
108	15
109	15
110	23
111	39
112	36
113	96
114	108
115	2042
116	622
117	659
118	857
119	8423
120	9999
121	890
122	73
123	22
125	47
126	152
127	857
128	2350
129	5698
130	771
131	451
132	209
133	896
134	2150
135	233
136	34
137	29
138	29
139	140
140	60
141	392
142	201
143	945
144	5311
145	765
146	170
147	123
148	26
149	44
150	12
152	11
153	13
155	15
157	15
158	17
159	30
160	112
161	1246
162	1935
163	282
164	24
