Mass Spectrum: Pentaerythrityl tetrachloride
Formula: C5 H8 Cl4
CAS: 3228-99-7
Molecular weight: 208
Origin: NIST Mass Spectrometry Data Center, 1990.
m/z	RELATIVE INTENSITY
13	40
14	148
15	82
17	45
26	548
27	3002
28	570
29	90
31	32
32	167
35	124
36	157
37	557
38	901
39	4364
40	353
41	553
42	40
47	270
48	422
49	3770
50	1322
51	5218
52	617
53	2678
54	138
60	141
61	1287
62	637
63	1138
64	246
65	2572
66	227
67	156
72	110
73	823
74	352
75	2921
76	1055
77	825
78	320
83	525
84	70
85	612
86	70
87	8205
88	1075
89	3551
90	339
91	243
95	45
96	172
97	1192
98	145
99	1013
100	45
101	3221
102	209
103	920
104	38
107	47
109	406
110	481
111	267
112	344
113	75
114	67
121	103
123	9194
124	1052
125	5832
126	406
127	967
128	52
133	31
136	9999
137	1552
138	6289
139	933
140	1126
141	109
158	463
159	1625
160	526
161	1415
162	200
163	488
164	42
165	53
172	450
173	62
174	449
176	124
208	44
