Mass Spectrum: Propane, 1,3-dibromo-2,2-bis(bromomethyl)-
Formula: C5 H8 Br4
CAS: 3229-00-3
Molecular weight: 384
Origin: Japan AIST/NIMC Database- Spectrum MS-NW-3029
m/z	RELATIVE INTENSITY
13	20
14	90
15	109
25	50
26	539
27	3489
28	579
29	99
31	40
32	40
33	20
36	40
37	349
38	849
39	5269
40	589
41	2479
42	109
43	70
44	10
48	10
49	139
50	659
51	2029
52	689
53	4179
54	399
55	50
56	119
57	10
60	10
61	70
62	99
63	179
64	60
65	5919
66	3519
67	1909
68	139
69	10
72	40
73	129
74	99
79	189
80	239
81	199
82	239
83	20
91	50
92	60
93	1199
94	80
95	1089
96	10
99	139
101	10
104	20
105	269
106	80
107	929
108	70
109	699
110	10
113	30
114	60
115	30
116	20
117	239
118	50
119	2089
120	90
121	1889
122	60
123	30
127	40
128	60
129	10
130	20
131	1849
132	679
133	2499
134	689
135	699
136	30
143	30
144	50
145	3099
146	379
147	3009
148	319
149	40
160	20
167	10
171	80
173	149
175	80
185	229
186	10
187	459
188	10
189	219
197	70
199	179
201	159
203	60
211	1379
212	149
213	2679
214	279
215	1319
216	139
225	1059
226	60
227	1969
228	109
229	969
230	50
243	10
244	10
245	10
246	20
247	10
254	30
261	10
263	30
265	20
291	60
293	159
294	10
295	159
297	50
305	3509
306	179
307	9999
308	539
309	9659
310	529
311	3079
312	169
384	259
385	20
386	959
387	50
388	1399
389	80
390	909
391	40
392	209
393	10
