Mass Spectrum: N,N-Bis(2-hydroxyethyl)-m-fluoroaniline
Formula: C10 H14 F N O2
CAS: 323-60-4
Molecular weight: 199
Origin: NIST Mass Spectrometry Data Center, 1994
m/z	RELATIVE INTENSITY
12	29
14	77
15	510
16	42
17	60
18	135
19	669
27	1064
28	755
29	1330
30	390
31	1588
32	52
33	44
37	38
38	92
39	248
40	62
41	225
42	710
43	652
44	38
45	4577
46	118
47	29
50	322
51	378
52	97
53	37
54	49
55	30
56	86
57	330
58	33
59	10
61	60
62	78
63	209
64	101
65	76
68	135
69	284
70	229
71	31
73	44
74	196
75	1336
76	187
77	628
78	113
79	27
81	84
82	113
83	471
84	139
89	88
90	36
91	107
92	46
93	73
94	27
95	2807
96	1218
97	1369
98	97
101	41
102	43
103	56
104	136
105	42
106	21
107	81
108	21
109	1655
110	221
111	164
112	26
115	20
116	32
117	37
118	30
119	32
122	1414
124	9918
125	1010
126	48
135	214
136	322
137	146
138	470
139	58
148	48
150	346
151	48
152	51
153	38
162	52
166	279
168	9999
169	1072
170	67
180	37
181	26
195	22
197	35
199	1521
200	185
