Mass Spectrum: 3-Methyl-1-penten-4-yn-3-ol
Formula: C6 H8 O
CAS: 3230-69-1
Molecular weight: 96
Origin: V.G.Zaikin, TIPS, Russian Acad. Sci.
m/z	RELATIVE INTENSITY
39	1101
40	350
41	780
42	100
43	2952
44	500
50	950
51	2702
52	750
53	3302
54	150
67	800
68	100
69	1951
70	350
77	900
78	150
81	9999
82	700
95	1401
96	450
97	30
