Mass Spectrum: Phenol, 4-[[(4-methoxyphenyl)methylene]amino]-
Formula: C14 H13 N O2
CAS: 3230-39-5
Molecular weight: 227
Origin: NIST Mass Spectrometry Data Center, 1994
m/z	RELATIVE INTENSITY
15	1208
26	15
28	37
37	68
38	324
39	2303
40	109
41	22
42	6
50	526
51	929
52	311
53	398
54	45
55	86
61	55
62	238
63	889
64	665
65	3338
66	272
67	46
70	39
71	40
75	223
76	373
77	944
78	370
79	173
80	64
81	68
84	124
85	27
86	27
87	54
88	45
89	181
90	185
91	343
92	369
93	936
94	133
99	21
100	64
101	49
102	161
103	228
104	85
105	49
106	50
107	99
108	242
109	23
114	303
115	116
116	41
117	34
118	47
119	166
120	563
121	60
126	39
127	196
128	285
129	142
130	44
131	61
132	25
133	69
134	145
135	25
138	22
139	144
140	100
141	56
144	24
145	22
146	55
147	23
152	36
154	556
155	322
156	126
157	84
158	21
165	26
166	181
167	175
168	56
171	134
182	203
183	1151
184	332
185	96
193	48
194	54
195	101
196	87
197	50
198	52
199	33
211	667
212	419
213	63
226	9999
227	9679
228	1380
229	143
