Mass Spectrum: Diethyl 3-hydroxyglutarate
Formula: C9 H16 O5
CAS: 32328-03-3
Molecular weight: 204
Origin: Japan AIST/NIMC Database- Spectrum MS-NW-7488
m/z	RELATIVE INTENSITY
12	30
13	60
14	449
15	909
16	40
17	30
18	129
24	20
25	50
26	379
27	2629
28	879
29	8499
30	239
31	1609
32	20
33	10
34	10
37	10
38	40
39	469
40	189
41	689
42	3449
43	8649
44	1879
45	2929
46	239
47	589
48	40
49	10
53	20
54	20
55	289
56	629
57	539
58	429
59	109
60	4959
61	3009
62	109
63	20
65	10
66	10
67	20
68	499
69	429
70	1649
71	9999
72	409
73	349
74	40
75	1349
76	50
77	10
80	10
82	10
83	30
84	1379
85	1439
86	809
87	749
88	5249
89	3789
90	159
91	40
94	10
95	339
96	30
97	30
98	20
99	179
100	40
101	60
102	399
103	249
104	20
105	10
106	10
108	10
109	10
110	10
111	519
112	239
113	5529
114	769
115	569
116	159
117	6639
118	409
119	60
120	10
125	10
127	30
128	30
129	229
130	4969
131	469
132	80
133	10
139	10
140	479
141	8479
142	819
143	109
144	10
145	149
146	20
156	30
157	429
158	80
159	499
160	40
161	10
169	10
171	10
175	10
177	10
184	20
185	40
186	20
187	40
188	30
203	10
204	10
205	20
