Mass Spectrum: Diacetyl sulphide
Formula: C4 H6 O2 S
CAS: 3232-39-1
Molecular weight: 118
Origin: Japan AIST/NIMC Database- Spectrum MS-NW-8556
m/z	RELATIVE INTENSITY
13	30
14	169
15	989
16	10
26	10
27	10
28	10
32	50
33	30
34	10
40	10
41	60
42	419
43	9999
44	269
45	199
46	30
47	40
56	10
57	60
58	119
59	179
60	99
61	119
76	179
77	10
93	20
103	10
118	30
