Mass Spectrum: Dodecanoic acid, octadecyl ester
Formula: C30 H60 O2
CAS: 3234-84-2
Molecular weight: 452
Origin: R.T.HOLMAN,UNIVERSITY OF MINNESOTA
m/z	RELATIVE INTENSITY
26	40
27	210
28	560
29	730
30	30
31	40
32	60
39	160
40	50
41	1980
42	560
43	4790
44	210
45	60
51	20
52	20
53	90
54	390
55	3350
56	1500
57	5200
58	260
59	60
60	410
61	840
62	40
63	20
65	30
66	40
67	540
68	820
69	2870
70	1430
71	2870
72	160
73	760
74	90
75	40
77	40
78	20
79	70
80	60
81	480
82	1500
83	3210
84	1230
85	1840
86	130
87	230
88	60
89	100
90	20
91	30
92	10
93	60
94	40
95	430
96	760
97	2940
98	1090
99	430
100	60
101	270
102	70
103	100
104	20
105	20
106	20
107	40
108	20
109	210
110	360
111	1710
112	600
113	250
114	60
115	280
116	240
117	80
118	20
119	20
120	20
121	40
122	20
123	110
124	210
125	850
126	390
127	170
128	40
129	490
130	90
131	40
133	20
135	30
136	20
137	50
138	230
139	450
140	370
141	150
142	20
143	130
144	30
145	20
149	40
150	20
151	30
152	120
153	260
154	240
155	100
156	20
157	350
158	60
159	20
161	10
162	20
163	90
164	40
165	40
166	90
167	170
168	210
169	80
170	20
171	130
172	40
173	100
174	30
179	10
180	100
181	200
182	180
183	1230
184	150
185	40
186	10
189	20
190	10
191	10
192	10
193	10
194	50
195	80
196	120
197	40
198	40
199	100
200	1840
201	9999
202	1500
203	140
204	30
208	40
209	60
210	80
211	40
212	20
213	10
214	10
215	10
216	10
217	30
218	40
219	100
220	30
221	10
222	20
223	50
224	460
225	100
226	20
227	20
228	20
229	20
235	10
236	10
237	10
238	20
239	20
240	20
241	30
242	20
250	40
251	30
252	1910
253	460
254	60
255	20
256	120
257	20
266	20
267	20
268	10
269	20
270	20
271	10
279	10
280	10
281	10
282	10
283	10
284	10
285	20
297	400
298	90
299	20
312	90
313	80
314	20
325	60
326	20
339	20
353	20
354	20
355	20
367	20
368	10
381	40
382	20
409	30
410	20
424	20
425	20
426	10
451	30
452	1574
453	480
454	100
455	20
