Mass Spectrum: Tetradecanoic acid, octadecyl ester
Formula: C32 H64 O2
CAS: 3234-81-9
Molecular weight: 480
Origin: R.T.HOLMAN,UNIVERSITY OF MINNESOTA
m/z	RELATIVE INTENSITY
26	60
27	560
28	490
29	1700
30	50
31	40
32	100
33	10
37	10
39	400
40	100
41	4000
42	1200
43	8800
44	330
45	80
50	20
51	30
52	20
53	200
54	700
55	5600
56	2200
57	8000
58	360
59	90
60	700
61	1000
62	40
63	20
65	40
66	70
67	900
68	1200
69	4400
70	1800
71	4100
72	240
73	1200
74	120
75	30
77	50
78	20
79	120
80	90
81	800
82	1700
83	4000
84	1500
85	2400
86	160
87	340
88	30
89	70
91	40
92	20
93	80
94	50
95	600
96	900
97	3500
98	1200
99	540
100	70
101	280
102	50
103	80
104	10
105	20
106	10
107	60
108	20
109	290
110	400
111	1900
112	650
113	350
114	60
115	290
116	230
117	60
119	20
120	10
121	70
122	30
123	150
124	260
125	1000
126	410
127	210
128	50
129	700
130	100
131	30
133	20
134	10
135	80
136	20
137	80
138	170
139	490
140	310
141	150
142	30
143	170
144	20
145	20
147	10
148	10
149	50
150	10
151	40
152	120
153	310
154	240
155	100
156	20
157	70
158	20
159	20
163	20
164	20
165	30
166	160
167	210
168	240
169	110
170	20
171	140
172	30
173	20
180	60
181	130
182	150
183	70
184	10
185	420
186	60
187	10
191	80
192	40
193	10
194	40
195	90
196	140
197	50
198	10
199	80
200	20
201	10
207	10
208	70
209	140
210	140
211	1500
212	220
213	30
219	20
222	20
223	50
224	510
225	110
226	30
227	110
228	1900
229	9999
230	1600
231	150
232	20
238	20
239	20
240	10
241	10
250	30
251	110
252	2200
253	540
254	70
255	20
256	10
257	20
266	20
267	20
268	10
269	40
270	10
279	10
280	10
283	20
284	120
285	40
286	10
297	450
298	110
299	20
311	10
312	130
313	140
314	30
315	10
325	80
326	30
327	10
338	10
339	20
340	10
352	20
353	30
354	20
367	20
368	10
380	20
381	40
382	20
394	10
395	10
396	10
408	10
409	10
423	10
424	20
425	10
437	30
438	20
439	10
450	10
451	20
452	50
453	20
454	10
462	10
466	30
467	10
479	20
480	2604
481	1000
482	170
483	30
484	10
