Mass Spectrum: Pyridinium, 1-(benzoylamino)-4-methyl-, hydroxide, inner salt
Formula: C13 H12 N2 O
CAS: 32363-75-0
Molecular weight: 212
Origin: M. IKEDA
m/z	RELATIVE INTENSITY
40	700
41	700
42	100
43	200
44	400
50	1400
51	3000
52	1000
53	1000
54	500
61	100
62	200
63	700
64	1000
65	1600
66	1800
67	700
74	400
75	400
76	700
77	3900
78	1000
79	200
80	700
81	200
90	100
91	1600
92	1800
93	7000
94	800
103	1200
104	100
105	1300
106	100
107	100
108	100
119	800
120	100
121	100
135	9999
136	1000
137	100
211	9400
212	5000
213	700
