Mass Spectrum: 2,4,6(1H,3H,5H)-Pyrimidinetrione, 5,5-dihydroxy-
Formula: C4 H4 N2 O5
CAS: 3237-50-1
Molecular weight: 160
Origin: Japan AIST/NIMC Database- Spectrum MS-NW-9838
m/z	RELATIVE INTENSITY
12	50
13	30
14	30
15	109
16	119
17	80
18	410
24	10
26	90
27	449
28	1439
29	489
30	169
31	10
35	20
36	10
38	70
39	40
40	90
41	119
42	999
43	9769
44	9999
45	329
46	119
52	20
54	159
55	60
56	459
57	60
58	399
60	40
61	20
62	10
67	20
68	50
69	50
70	909
71	2209
72	80
73	30
74	30
77	10
81	20
82	10
83	30
84	10
85	30
86	4809
87	259
88	30
89	80
90	10
91	10
95	20
96	10
97	20
98	10
99	70
100	30
101	199
102	10
105	10
109	10
110	10
111	20
113	60
114	769
115	109
116	10
117	20
125	10
128	10
129	10
141	10
142	5909
143	509
144	99
145	10
