Mass Spectrum: Xylonic acid, 2,3,4-tris-O-(trimethylsilyl)-, .delta.-lactone, D-
Formula: C14 H32 O5 Si3
CAS: 32384-59-1
Molecular weight: 364
m/z	RELATIVE INTENSITY
31	100
41	100
43	300
44	300
45	1101
47	200
55	100
59	801
61	100
69	100
73	9999
74	901
75	1401
76	100
89	100
101	701
102	701
103	500
116	200
117	601
119	100
129	801
130	801
131	300
133	801
134	100
143	400
147	2502
148	400
149	500
169	100
185	200
189	801
190	200
191	200
203	100
204	500
205	200
215	200
217	4304
218	1101
219	500
220	1201
221	300
222	100
231	400
232	100
243	20
244	20
245	30
246	50
247	20
248	10
257	20
259	180
260	70
261	60
262	10
265	20
274	50
275	10
277	20
291	100
292	40
293	20
294	20
305	60
306	20
307	10
319	40
320	20
321	20
322	10
323	10
331	20
333	10
349	731
350	200
351	100
352	30
364	240
365	70
366	60
367	20
