Mass Spectrum: Phenol, 2,3,4,6-tetramethyl-
Formula: C10 H14 O
CAS: 3238-38-8
Molecular weight: 150
Origin: Dr. Jiri Zamecnik, DCIEM, North York, Canada, GP Library
m/z	RELATIVE INTENSITY
39	1790
41	1480
43	890
50	280
51	980
52	380
53	830
55	390
63	340
64	270
65	860
66	360
67	500
74	320
75	340
77	1280
78	290
79	1150
91	1850
92	200
93	360
94	80
103	260
104	90
105	1020
106	180
107	790
108	170
115	330
116	130
117	500
119	160
121	200
122	120
131	90
133	240
135	9999
136	1030
148	50
149	1510
150	7390
151	770
