Mass Spectrum: DL-.alpha.-Methylbenzyl isothiocyanate
Formula: C9 H9 N S
CAS: 32393-32-1
Molecular weight: 163
Origin: NIST Mass Spectrometry Data Center, 1994
m/z	RELATIVE INTENSITY
14	18
15	131
26	147
27	875
28	157
29	18
32	217
33	23
34	16
37	76
38	234
39	924
40	96
41	50
42	28
44	111
45	185
46	18
50	842
51	1662
52	409
53	173
54	17
57	51
58	360
59	247
60	131
61	98
62	237
63	602
64	142
65	233
66	35
67	27
69	40
70	89
71	47
72	29
73	27
74	318
75	227
76	337
77	2721
78	839
79	2306
80	185
81	49
83	15
84	74
85	52
86	162
87	48
88	15
89	329
90	88
91	53
94	14
95	13
96	13
98	19
101	38
102	220
103	1393
104	13
105	9999
106	873
107	39
116	207
117	29
120	38
121	296
122	37
128	43
130	42
131	39
136	12
148	212
149	25
163	460
164	44
165	19
