Mass Spectrum: 4-Heptyn-3-ol
Formula: C7 H12 O
CAS: 32398-69-9
Molecular weight: 112
Origin: NIST Mass Spectrometry Data Center, 1990.
m/z	RELATIVE INTENSITY
26	156
27	824
28	142
29	1239
31	174
37	93
38	257
39	1578
40	256
41	706
42	126
43	845
44	48
49	62
50	431
51	635
52	240
53	1216
54	48
55	4023
56	320
57	506
58	99
59	112
62	139
63	208
64	56
65	439
66	165
67	206
68	144
69	104
74	62
78	137
79	493
80	59
81	271
82	59
83	9999
84	574
93	55
94	146
97	116
111	70
112	7
