Mass Spectrum: o-Coumaric acid, 2TMS derivative
Formula: C15 H24 O3 Si2
CAS: 32426-62-3
Molecular weight: 308
Origin: NIST Mass Spectrometry Data Center
m/z	RELATIVE INTENSITY
27	10
28	100
29	40
30	10
31	10
39	50
42	10
43	270
44	140
45	1672
46	110
47	230
50	40
51	100
53	70
54	10
55	40
56	10
57	80
58	90
59	150
60	40
61	90
63	100
64	40
65	50
67	20
69	40
70	20
71	50
72	200
73	8818
74	821
75	1081
76	120
77	150
78	50
79	30
80	10
81	20
83	60
84	10
85	60
87	50
88	30
89	270
90	210
91	360
92	60
95	20
96	20
97	60
98	20
99	20
101	110
102	130
103	110
104	40
105	70
106	30
107	20
109	20
110	40
111	30
112	10
113	10
114	20
115	450
116	120
117	140
118	651
119	110
120	80
121	50
123	20
125	10
128	40
129	60
130	30
131	150
133	350
134	50
135	701
136	70
137	40
138	10
139	100
142	10
143	40
144	150
145	170
146	360
147	9999
148	1752
149	991
150	140
151	150
152	10
155	20
156	10
159	130
160	20
161	2052
162	330
163	140
164	20
165	10
166	20
171	30
172	10
173	20
174	20
175	440
176	80
177	130
178	10
179	150
180	20
181	60
185	20
187	10
188	10
189	30
190	571
191	170
192	110
193	20
194	20
195	40
200	10
201	10
203	50
204	20
205	70
206	10
207	50
209	100
210	30
216	10
217	70
218	10
219	831
220	220
221	80
222	10
223	10
225	10
231	10
233	10
234	20
235	40
236	20
237	20
247	10
249	50
250	10
251	60
252	20
253	10
261	10
265	50
277	20
293	2252
294	611
295	250
296	50
297	10
301	10
305	10
307	50
308	1631
309	410
310	140
311	30
