Mass Spectrum: 3-Dodecen-1-ol, (Z)-
Formula: C12 H24 O
CAS: 32451-95-9
Molecular weight: 184
Origin: M.Horiike ET AL.Biomed.Mass Spectr.,13,117(1986)
m/z	RELATIVE INTENSITY
27	1702
29	4094
31	2022
39	2322
41	7417
42	2292
43	5865
44	621
53	1201
54	4044
55	9999
57	4094
58	4314
67	5445
68	7837
69	4764
70	2002
71	1051
81	4264
82	4414
83	2342
95	2142
96	2222
97	1351
109	571
110	601
138	520
166	400
