Mass Spectrum: 4-Ethoxyphenyl isocyanate
Formula: C9 H9 N O2
CAS: 32459-62-4
Molecular weight: 163
Origin: NIST Mass Spectrometry Data Center
m/z	RELATIVE INTENSITY
11	10
12	10
13	10
14	40
15	110
16	10
17	10
18	20
19	10
24	10
25	60
26	721
27	1431
28	440
29	1141
30	50
31	10
37	200
38	290
39	500
40	50
41	20
42	40
43	100
44	110
45	20
46	30
49	40
50	440
51	1311
52	2903
53	571
54	200
55	100
56	30
60	10
61	150
62	290
63	671
64	370
65	80
66	20
67	20
68	20
73	10
74	90
75	110
76	140
77	200
78	1061
79	1992
80	571
81	80
82	10
86	10
87	20
88	50
89	60
90	621
91	120
92	40
93	10
104	10
106	1121
107	5985
108	450
109	20
117	10
118	70
119	30
120	70
121	10
132	20
135	9999
136	861
137	80
144	20
146	10
148	30
161	20
163	5385
164	591
165	40
