Mass Spectrum: 4,4',4''-Trimethyltrityl alcohol
Formula: C22 H22 O
CAS: 3247-00-5
Molecular weight: 302
Origin: Leung Pu, NIH, Bethesda, Maryland, U.S.
m/z	RELATIVE INTENSITY
41	426
42	24
43	89
44	26
45	42
47	112
48	52
49	7
51	131
52	91
53	135
55	68
56	19
57	31
59	10
60	10
62	72
63	388
65	2854
66	136
67	16
69	38
70	15
71	19
73	29
74	28
75	62
76	103
77	292
78	58
79	48
80	3
82	98
83	42
88	100
89	681
90	312
91	7445
92	656
93	86
95	61
97	109
99	10
100	12
101	93
102	40
104	911
105	611
107	68
108	38
111	4
113	149
114	77
115	173
116	18
119	9999
120	949
121	87
122	6
123	5
125	59
126	317
127	57
128	109
129	36
131	71
132	7
133	65
134	102
135	19
137	5
138	5
139	77
141	89
142	37
143	29
149	21
150	31
151	129
152	239
153	86
154	13
155	26
163	38
164	43
165	477
166	160
167	184
168	163
169	25
175	4
176	70
177	53
178	403
179	231
181	212
182	2516
183	2145
184	246
185	18
187	10
188	5
189	83
190	30
191	59
192	37
193	149
195	442
196	57
197	7
200	10
201	3
202	49
203	12
205	6
207	4
209	193
210	565
211	6268
212	993
213	99
215	50
216	13
224	6
225	8
226	43
227	24
228	26
229	28
230	3
237	15
239	104
240	30
241	19
242	11
243	23
244	15
245	3
250	25
251	4
252	83
253	70
254	20
255	55
256	19
257	4
258	6
263	28
264	4
265	25
266	10
267	13
268	12
269	91
270	26
271	26
272	5
282	5
283	18
284	39
285	269
286	71
287	107
288	25
300	11
301	72
302	1824
303	417
304	53
