Mass Spectrum: n-Heptafluorobutyrylimidazole
Formula: C7 H3 F7 N2 O
CAS: 32477-35-3
Molecular weight: 264
Origin: NIST Mass Spectrometry Data Center
m/z	RELATIVE INTENSITY
11	10
12	40
14	120
15	50
16	40
24	20
26	520
28	1872
29	30
31	951
32	100
33	20
37	30
38	450
39	1111
40	8428
41	470
42	60
43	60
44	90
45	70
46	60
50	500
51	210
52	270
53	40
54	30
55	50
62	90
63	40
66	320
67	611
68	4764
69	9779
70	320
71	100
72	30
74	40
75	70
76	50
77	20
78	120
79	90
81	270
90	2232
91	110
93	190
95	5285
96	280
97	60
100	1551
101	60
109	540
113	50
117	731
119	1111
120	40
121	60
131	140
140	110
147	40
150	70
158	30
167	240
169	2692
170	120
190	310
191	30
197	100
218	1311
219	90
264	9999
265	901
266	40
