Mass Spectrum: Octadecanoic acid, decyl ester
Formula: C28 H56 O2
CAS: 32509-55-0
Molecular weight: 424
Origin: R.T.HOLMAN,UNIVERSITY OF MINNESOTA
m/z	RELATIVE INTENSITY
25	70
26	230
27	910
29	1800
30	360
31	90
32	1210
34	50
35	70
36	290
37	50
38	120
39	600
40	560
41	4220
42	1460
43	8870
44	4080
45	250
46	80
50	90
51	160
52	80
53	320
54	610
55	5630
56	3160
57	9290
58	530
59	190
60	1390
61	3160
62	110
63	80
64	50
65	120
66	150
67	1150
68	1290
69	4360
70	3230
71	5210
72	350
73	2390
74	350
75	90
76	90
77	210
78	110
79	320
80	210
81	1260
82	2110
83	4430
84	2670
85	4150
86	350
87	570
88	140
89	110
90	70
91	300
92	110
93	320
94	190
95	1020
96	1210
97	4220
98	2250
99	970
100	120
101	400
102	190
103	110
104	110
105	250
106	110
107	250
108	120
109	710
110	630
111	2530
112	2600
113	560
114	110
115	530
116	500
117	150
118	80
119	260
120	110
121	330
122	150
123	450
124	190
125	630
126	190
127	300
128	220
129	1180
130	210
131	180
132	90
133	180
134	120
135	290
136	120
137	260
138	250
139	470
140	8730
141	1740
142	290
143	280
144	90
145	120
146	50
147	120
148	90
149	660
150	110
151	250
152	180
153	290
154	210
155	420
156	180
157	230
158	110
159	140
160	70
161	80
162	70
163	210
164	90
165	280
166	120
167	360
168	230
169	300
170	120
171	330
172	150
173	120
174	50
175	80
176	80
177	190
178	160
179	220
180	120
181	190
182	110
183	180
184	80
185	1140
186	190
187	150
188	80
189	150
190	110
191	210
192	160
193	180
194	160
195	210
196	110
197	160
198	90
199	280
200	190
201	950
202	210
203	140
204	90
205	120
206	140
207	160
208	120
209	150
210	150
211	120
212	90
213	450
214	120
215	110
216	90
217	180
218	250
219	560
220	320
221	120
222	180
223	160
224	150
225	140
226	90
227	260
228	110
229	90
230	70
231	90
232	80
233	80
234	80
235	90
236	90
237	110
238	90
239	140
240	90
241	690
242	190
243	90
244	70
245	80
246	70
247	110
248	110
249	90
250	90
251	90
252	90
253	90
254	80
255	210
256	110
257	80
258	80
259	80
260	70
261	70
262	80
263	70
264	190
265	220
266	140
267	1670
268	390
269	160
270	70
271	50
272	70
273	50
274	50
275	70
276	50
277	40
278	50
279	140
280	80
281	90
282	140
283	180
284	2810
285	9999
286	2040
287	300
288	80
289	50
290	50
291	50
292	50
293	50
294	50
295	70
296	50
297	50
298	50
299	40
300	40
301	40
302	50
303	50
304	50
305	50
306	50
307	40
308	80
309	50
310	50
311	50
312	40
313	50
314	40
315	40
316	40
317	40
318	40
319	50
320	50
321	50
322	50
323	50
324	80
325	90
326	70
327	40
328	40
330	20
332	40
333	40
334	40
335	40
336	50
337	40
338	70
339	50
340	160
341	50
342	40
343	40
344	40
345	40
346	40
347	50
348	40
350	50
352	220
353	80
354	70
355	40
356	40
357	40
358	50
359	50
360	20
361	20
362	40
363	20
364	50
365	40
366	40
367	40
368	40
369	40
370	40
372	50
373	40
374	40
375	40
376	40
377	40
378	40
379	40
380	50
381	80
382	50
383	40
384	40
385	40
386	40
387	40
388	50
389	40
390	20
391	20
392	20
395	40
396	40
397	40
398	40
400	50
401	20
402	20
420	40
423	90
424	3524
425	1050
426	230
427	50
