Mass Spectrum: 4-Nitroguaiacol
Formula: C7 H7 N O4
CAS: 3251-56-7
Molecular weight: 169
Origin: NIST Mass Spectrometry Data Center, 1994
m/z	RELATIVE INTENSITY
12	64
13	87
14	345
15	1953
16	82
17	41
18	89
25	90
26	542
27	63
28	400
29	964
30	5972
31	34
32	8
36	64
37	621
38	1069
39	1809
40	350
41	1674
42	324
43	126
46	689
48	48
49	494
50	2892
51	5291
52	6344
53	3356
54	498
55	1691
56	101
57	29
60	68
61	544
62	1279
63	1915
64	595
65	3591
66	638
67	1135
68	766
69	547
70	107
71	32
73	41
74	78
75	125
76	32
77	1921
78	341
79	2732
80	2457
81	240
82	113
83	79
90	59
91	416
92	367
93	681
94	312
95	337
96	1013
97	84
105	34
107	687
108	3660
109	292
110	34
111	2955
112	184
121	70
123	2532
124	270
137	41
139	4473
140	339
141	32
153	243
154	116
166	23
169	9999
170	737
171	105
