Mass Spectrum: Oxacyclopentadecan-2-one, 15-methyl-
Formula: C15 H28 O2
CAS: 32539-85-8
Molecular weight: 240
Origin: D.HENNEBERG, MAX-PLANCK INSTITUTE, MULHEIM, WEST GERMANY
m/z	RELATIVE INTENSITY
26	123
27	479
28	1157
29	1988
30	53
31	78
33	4
36	5
37	8
38	9
39	240
40	98
41	5401
42	2293
43	5128
44	192
45	614
46	15
47	12
48	5
49	25
50	21
51	14
52	15
53	206
54	1282
55	9999
56	4383
57	3323
58	3213
59	1375
60	1104
61	270
62	21
63	17
64	9
65	44
66	149
67	2095
68	2533
69	7199
70	3638
71	4025
72	429
73	1247
74	119
75	22
76	10
77	38
78	66
79	386
80	561
81	2429
82	3237
83	5666
84	4269
85	1233
86	199
87	508
88	98
89	18
90	10
91	110
92	64
93	396
94	742
95	2124
96	3774
97	4899
98	4964
99	795
100	1020
101	914
102	244
103	35
104	24
105	76
106	56
107	366
108	647
109	1183
110	1838
111	2767
112	1466
113	572
114	1641
115	530
116	216
117	34
118	41
119	233
120	112
121	509
122	566
123	1002
124	1197
125	1869
126	717
127	1052
128	468
129	371
130	130
131	31
132	26
133	231
134	352
135	485
136	575
137	799
138	2086
139	974
140	434
141	368
142	136
143	174
144	202
145	40
146	20
147	175
148	253
149	396
150	137
151	630
152	668
153	543
154	208
155	224
156	87
157	161
158	146
159	39
160	10
161	149
162	122
163	124
164	62
165	423
166	248
167	236
168	171
169	157
170	53
171	79
172	80
173	21
174	12
175	113
176	46
177	25
178	1390
179	535
180	1210
181	453
182	259
183	107
184	49
185	58
186	12
189	46
190	21
191	22
193	221
194	154
195	35
196	2486
197	538
198	101
199	28
200	5
201	4
202	15
203	19
204	512
205	123
207	59
208	22
209	5
210	10
211	336
212	133
213	21
217	3
218	4
220	29
221	43
222	3509
223	595
224	61
225	412
226	65
227	7
238	35
239	65
240	479
241	112
242	12
