Mass Spectrum: Cholan-24-oic acid, 3-(acetyloxy)-, methyl ester, (3.alpha.,5.beta.)-
Formula: C27 H44 O4
CAS: 3253-69-8
Molecular weight: 432
Origin: Div. of Experiment Therapeutics WRAIR, WRAMC, Washington DC 20307
m/z	RELATIVE INTENSITY
41	2426
43	9999
44	239
45	167
49	65
51	24
53	634
55	4966
57	716
59	995
61	537
65	224
67	2833
68	806
69	1285
70	70
71	199
73	818
74	698
77	714
79	2979
81	4029
83	1422
85	410
87	487
88	122
91	1828
93	3036
94	256
95	3075
96	212
97	469
98	19
99	243
101	205
103	45
104	99
105	2043
106	1082
107	2308
108	1088
109	1244
110	205
111	207
115	470
117	408
118	60
119	1271
120	713
121	1248
122	465
123	527
124	94
125	127
127	45
128	79
129	151
131	538
133	1154
134	579
135	1086
136	233
137	144
141	142
142	19
143	204
145	941
147	1398
148	253
149	1240
150	107
151	71
154	559
155	81
157	132
158	20
159	691
160	348
161	869
162	798
163	275
165	22
168	19
171	109
173	487
174	327
175	537
176	386
177	147
185	71
187	327
188	285
189	233
195	21
199	153
201	619
202	175
203	346
204	27
205	18
208	116
209	67
213	148
215	3493
216	1406
217	643
218	248
227	20
229	231
230	1274
231	290
243	42
255	22
256	66
257	1944
258	383
262	184
263	78
264	96
275	18
276	58
285	85
289	37
290	118
299	90
315	20
316	18
317	85
318	227
323	159
325	121
330	102
331	18
341	186
342	22
357	600
358	171
371	71
372	3284
373	934
374	142
431	19
432	233
433	73
