Mass Spectrum: Pyridine, 2-methyl-5-phenyl-
Formula: C12 H11 N
CAS: 3256-88-0
Molecular weight: 169
Origin: V.A.KOPTYUG, ATLAS OF MASS SPECTRA OF ORGANIC COMPOUNDS
m/z	RELATIVE INTENSITY
51	570
53	570
77	600
102	790
115	1190
141	1910
154	170
167	900
168	1690
169	9999
170	1360
