Mass Spectrum: Cyclopropanecarbonitrile, 1-(p-bromophenyl)-2-[p-(dimethylamino)phenyl]-
Formula: C18 H17 Br N2
CAS: 32589-49-4
Molecular weight: 340
Origin: C. LAGEOT
m/z	RELATIVE INTENSITY
29	630
32	790
39	490
42	1120
51	510
63	450
75	410
76	300
77	690
89	430
90	290
91	550
114	370
115	330
116	410
117	1300
118	790
119	410
120	430
121	540
129	310
130	1330
131	890
132	850
134	2320
140	820
141	470
146	1650
147	690
183	390
185	1170
216	480
217	945
259	370
260	360
261	520
262	450
325	590
327	575
339	2290
340	9850
341	4100
342	9999
343	2150
344	150
