Mass Spectrum: Cyclopropanecarbonitrile, 1-(p-chlorophenyl)-2-(p-methoxyphenyl)-
Formula: C17 H14 Cl N O
CAS: 32589-54-1
Molecular weight: 283
m/z	RELATIVE INTENSITY
27	400
28	200
43	300
50	701
51	1301
52	400
63	300
64	2102
65	500
74	400
75	601
76	601
77	1802
78	801
87	400
88	801
89	901
90	500
91	1301
92	400
101	400
102	801
103	400
108	901
110	400
114	601
115	601
116	300
119	500
120	300
121	2302
125	400
128	500
129	601
132	500
134	500
139	300
140	2502
141	500
149	400
150	400
151	500
152	400
156	400
165	400
170	500
171	300
172	500
174	801
175	601
176	801
177	801
178	901
188	400
190	701
204	500
205	701
206	601
207	300
214	300
216	601
217	801
218	300
221	801
225	300
233	500
234	801
240	2502
241	701
242	901
243	400
247	1001
248	1802
249	300
268	1401
269	400
270	500
282	1001
283	9999
284	2702
285	4004
286	801
