Mass Spectrum: Cyclopropanecarbonitrile, 2-[p-(dimethylamino)phenyl]-1-p-tolyl-
Formula: C19 H20 N2
CAS: 32589-51-8
Molecular weight: 276
m/z	RELATIVE INTENSITY
39	400
42	300
63	300
65	400
77	500
89	400
91	500
103	300
104	400
115	300
117	500
118	601
120	500
121	300
129	300
130	500
131	300
132	300
134	2002
135	200
137	300
138	500
140	300
146	500
147	400
154	400
183	300
185	601
260	300
261	1201
262	400
274	300
275	2702
276	9999
277	2502
278	300
