Mass Spectrum: 1,1'-Biphenyl, 2,4,4',6-tetrachloro-
Formula: C12 H6 Cl4
CAS: 32598-12-2
Molecular weight: 290
Origin: N. Todua, WGM, MMES
m/z	RELATIVE INTENSITY
42	201
44	201
47	201
48	201
49	265
50	594
51	467
52	64
55	127
60	329
61	467
62	530
63	265
67	201
68	127
72	127
73	201
74	530
75	859
76	859
77	201
78	127
79	265
80	201
81	201
83	201
84	265
85	467
86	467
87	329
88	201
92	1060
93	467
95	201
96	201
97	392
98	732
99	530
100	201
101	201
107	201
108	265
109	594
110	1389
111	859
112	265
113	201
115	201
116	201
120	201
121	265
122	329
123	467
124	201
125	201
127	657
128	594
129	329
131	201
132	201
133	265
134	201
135	265
136	201
137	201
138	127
144	201
145	329
146	594
147	467
148	329
149	657
150	1262
151	329
156	64
157	201
158	201
159	201
160	265
161	201
162	201
168	127
169	201
171	265
172	201
173	201
174	64
182	201
183	265
184	859
185	732
186	392
187	329
188	127
193	201
194	201
195	201
196	201
197	201
204	201
206	201
207	201
217	127
218	201
219	265
220	3976
221	594
222	2587
223	392
224	530
225	127
228	127
230	127
232	127
241	127
254	265
255	201
256	265
257	201
258	201
259	127
290	8080
291	1188
292	9999
293	1527
294	4899
295	732
296	1188
297	265
298	201
