Mass Spectrum: 1,1'-Biphenyl, 2,3',4',5-tetrachloro-
Formula: C12 H6 Cl4
CAS: 32598-11-1
Molecular weight: 290
Origin: T.L.Hayes, Battelle Columbus Laboratories, Columbus, OH 43221
m/z	RELATIVE INTENSITY
33	16
35	153
36	350
37	287
38	306
39	136
40	362
42	25
43	16
44	62
47	90
48	27
49	350
50	851
51	348
52	35
55	89
56	29
59	29
60	202
61	997
62	857
63	374
64	10
66	27
67	82
68	45
71	65
72	241
73	1188
74	2645
75	2077
76	190
79	447
80	232
81	53
82	27
83	47
84	499
85	876
86	738
87	453
88	57
92	3687
93	1543
95	29
96	185
97	822
98	1327
99	1288
100	187
101	42
102	12
103	46
105	33
107	148
108	304
109	1575
110	5189
111	3415
112	594
113	150
114	81
115	141
116	66
117	15
118	22
119	35
120	206
121	250
122	549
123	772
124	249
125	117
127	1430
128	1531
129	681
130	36
131	60
132	135
133	243
134	212
135	372
136	134
137	141
138	36
144	68
145	991
146	1386
147	975
148	535
149	1193
150	2923
151	402
154	15
156	42
157	109
158	81
159	227
160	204
161	94
162	62
165	35
169	60
170	338
171	85
172	228
173	63
174	47
180	25
181	53
182	69
183	238
184	1526
185	1179
186	663
187	387
188	62
193	23
194	190
195	74
196	135
197	42
198	43
204	36
206	33
207	113
208	36
209	27
210	11
217	10
218	100
219	161
220	6129
221	909
222	3958
223	529
224	657
225	89
230	44
232	22
234	11
243	10
251	10
253	11
254	226
255	74
256	253
257	94
258	115
259	26
260	11
281	26
283	22
290	7790
291	960
292	9999
293	1322
294	4816
295	609
296	1037
297	115
298	84
