Mass Spectrum: 1-(2-Furyl)-4,4,4-trifluoro-1,3-butanedione
Formula: C8 H5 F3 O3
CAS: 326-90-9
Molecular weight: 206
Origin: NIST Mass Spectrometry Data Center
m/z	RELATIVE INTENSITY
12	50
13	20
14	160
16	10
17	50
18	40
25	70
26	240
27	851
28	20
29	871
31	270
37	701
38	1451
39	3213
40	290
41	701
42	651
43	50
44	10
45	120
47	50
49	150
50	550
51	901
52	400
53	1742
54	200
55	380
56	60
57	40
61	140
62	210
63	500
64	190
65	661
66	170
67	611
69	9999
70	480
71	140
73	50
74	60
75	110
77	50
78	40
79	170
80	160
81	340
82	40
83	60
89	50
91	220
92	170
93	120
95	9068
96	480
97	80
99	60
101	90
108	150
109	80
119	110
121	40
137	7317
138	671
139	160
149	80
178	160
206	3393
207	380
208	40
