Mass Spectrum: Thiodiglycolic anhydride
Formula: C4 H4 O3 S
CAS: 3261-87-8
Molecular weight: 132
Origin: NIST Mass Spectrometry Data Center
m/z	RELATIVE INTENSITY
12	190
13	611
14	1792
15	120
17	10
25	170
27	380
28	591
29	500
32	140
33	200
34	150
40	150
41	540
42	5355
43	2052
44	1361
45	5855
46	9999
47	581
48	540
56	90
57	190
58	510
59	1581
60	8358
61	430
62	460
88	240
132	5265
133	270
134	310
