Mass Spectrum: 3-Pyridinol, 2-(methylthio)-
Formula: C6 H7 N O S
CAS: 32637-37-9
Molecular weight: 141
Origin: K. UNDHEIM
m/z	RELATIVE INTENSITY
39	7900
40	900
41	900
42	300
44	700
45	1900
46	500
47	600
50	300
51	400
52	500
53	1100
54	800
55	400
57	200
58	200
63	200
64	700
65	1500
66	1000
67	4400
68	1100
69	500
70	600
71	600
72	200
79	800
80	2400
81	400
82	300
94	500
95	900
96	900
98	1300
108	7600
109	700
125	200
140	1800
141	9999
142	900
143	500
