Mass Spectrum: 9H-Purine, 9-[2-deoxy-3-O-(trimethylsilyl)-.beta.-D-erythro-pentofuranosyl]-6-(trimethylsiloxy)-2-[(trimethylsilyl)amino]-, 5'-[bis(trimethylsilyl) phospate]
Formula: C25 H54 N5 O7 P Si5
CAS: 32645-71-9
Molecular weight: 707
m/z	RELATIVE INTENSITY
61	100
63	100
65	200
72	100
73	4304
74	500
75	801
76	100
77	100
81	9999
82	701
83	100
84	100
89	100
91	300
93	400
95	100
100	100
101	100
103	200
112	100
118	100
127	100
129	300
131	100
133	300
135	100
143	100
145	100
146	100
147	601
148	100
149	300
155	100
164	100
165	100
169	100
170	100
171	200
172	100
191	100
193	100
194	100
195	100
197	100
206	100
207	100
208	200
209	100
211	500
212	100
221	100
222	100
223	701
224	300
225	300
227	200
229	701
230	100
231	100
243	100
249	100
251	100
253	100
264	200
265	100
278	100
279	100
280	1601
281	500
282	200
283	100
284	100
285	200
294	300
295	1601
296	701
297	300
298	100
299	1001
300	300
301	200
306	200
307	100
308	100
314	100
315	200
316	100
321	100
322	100
323	1001
324	500
325	200
326	100
339	100
352	200
353	100
366	100
367	200
368	100
374	100
376	200
393	200
394	100
397	100
423	60
453	30
465	110
466	70
485	130
486	60
602	20
620	30
635	30
692	400
693	160
694	100
695	40
707	350
708	150
709	80
710	30
