Mass Spectrum: 2(1H)-Pyrimidinone, 1-[2,3-bis-O-(trimethylsilyl)-.beta.-D-ribofuranosyl]-4-(trimethylsiloxy)-, 5'-[bis(trimethylsilyl) phosphate]
Formula: C24 H53 N2 O9 P Si5
CAS: 32645-59-3
Molecular weight: 684
m/z	RELATIVE INTENSITY
67	100
68	200
69	200
70	100
72	200
73	9999
74	801
75	1902
76	100
77	200
81	300
82	100
85	100
93	300
95	100
96	100
97	200
99	400
100	300
101	300
103	100
113	300
115	100
116	100
117	100
124	100
126	100
127	100
129	1001
130	200
131	300
133	601
134	100
135	200
140	200
141	200
142	200
143	300
147	1902
148	400
149	300
153	100
155	100
157	100
167	100
168	200
169	6306
170	801
171	500
183	200
184	100
185	200
186	200
191	200
193	100
195	100
196	100
197	100
207	400
208	100
209	100
211	801
212	100
213	100
215	500
216	100
217	500
218	100
225	200
226	100
227	500
228	100
229	100
230	1301
231	300
232	100
241	300
243	1001
244	200
245	100
253	100
255	100
256	200
257	300
258	601
259	300
260	100
265	200
280	200
281	300
282	100
283	200
285	200
299	2803
300	500
301	300
313	100
314	300
315	5005
316	1201
317	601
318	100
328	200
342	100
352	701
353	200
354	100
355	100
369	100
370	300
371	200
372	100
382	60
383	80
384	40
385	20
386	60
387	200
388	60
389	60
390	20
395	60
396	20
409	20
410	20
411	60
412	20
413	40
429	20
443	20
483	40
484	20
485	120
486	40
487	20
501	60
502	20
579	40
597	200
598	80
599	40
600	20
669	80
670	60
671	20
