Mass Spectrum: Ethyl geranate
Formula: C12 H20 O2
CAS: 32659-21-5
Molecular weight: 196
Origin: Philip Morris R&D
m/z	RELATIVE INTENSITY
39	709
40	220
41	2934
42	235
43	730
44	127
45	133
51	122
52	72
53	508
54	222
55	350
56	122
57	215
58	74
59	119
65	117
66	47
67	481
68	335
69	9999
70	778
71	127
77	203
79	246
80	84
81	375
82	1288
83	1170
84	161
85	300
87	75
91	190
93	164
94	81
95	182
96	48
97	61
99	119
100	2752
101	168
105	132
107	454
108	292
109	218
111	145
112	127
113	402
114	38
116	39
121	174
122	1562
123	3369
124	394
125	133
126	39
128	4529
129	383
135	136
139	137
140	76
141	152
150	96
151	2199
152	385
153	796
154	140
164	59
169	47
181	134
