Mass Spectrum: Adenosine, N-(trimethylsilyl)-2',3'-bis-O-(trimethylsilyl)-, 5'-[bis(trimethylsilyl) phosphate]
Formula: C25 H54 N5 O7 P Si5
CAS: 32653-14-8
Molecular weight: 707
Origin: J.A.MCCLOSKEY,BAYLOR COL OF MEDICIN,HOUSTON,TEX.77025
m/z	RELATIVE INTENSITY
43	340
44	240
45	979
47	150
53	150
55	280
59	650
61	120
67	100
68	219
69	200
71	100
72	350
73	9999
74	1830
75	1859
76	160
77	250
81	820
84	300
85	280
97	200
99	300
100	100
101	390
103	219
111	200
113	380
115	380
116	280
117	219
125	170
127	210
129	1270
130	200
131	300
133	900
134	150
135	400
136	200
137	150
140	500
141	300
142	330
143	500
145	190
147	2900
148	520
149	480
151	150
153	200
155	100
157	130
158	100
164	200
165	410
169	8200
170	1700
171	1010
172	150
176	100
180	100
186	100
191	219
192	2620
193	540
194	180
195	210
197	130
204	180
205	180
206	929
207	879
208	1390
209	340
211	1360
212	240
213	180
215	250
217	420
218	180
220	170
221	180
225	450
226	120
227	480
229	160
230	5800
231	1300
232	740
233	150
234	150
235	100
236	1890
237	400
238	140
243	2230
244	530
245	310
246	100
250	100
253	100
257	300
258	3610
259	1120
260	450
261	140
264	600
265	200
266	100
278	500
279	390
280	929
281	270
282	120
283	180
285	300
286	160
299	2510
300	670
301	400
302	100
306	620
307	180
308	150
313	120
314	300
315	8000
316	2530
317	1380
318	300
320	150
321	200
322	500
323	200
334	130
337	1000
338	300
339	219
371	500
372	160
373	180
374	130
375	160
376	280
377	100
378	200
382	2070
383	720
384	360
385	100
387	230
392	120
394	150
410	30
411	125
412	47
423	40
429	37
437	37
450	50
452	60
454	32
464	30
465	67
466	810
467	322
468	150
469	42
485	76
486	37
500	38
501	42
620	82
692	950
693	545
694	330
695	115
696	45
707	170
708	130
709	83
710	40
