Mass Spectrum: 2,3-Epoxybutane
Formula: C4 H8 O
CAS: 3266-23-7
Molecular weight: 72
Origin: Japan AIST/NIMC Database- Spectrum MS-NW-2959
m/z	RELATIVE INTENSITY
12	10
13	30
14	149
15	729
16	50
17	60
18	239
19	159
25	50
26	979
27	2569
28	1759
29	1889
30	30
31	90
32	10
36	10
37	40
38	60
39	329
40	30
41	709
42	199
43	9999
44	7349
45	4619
46	119
47	10
49	30
50	70
51	50
52	20
53	99
54	70
55	70
56	50
57	219
71	70
72	559
73	20
