Mass Spectrum: Chloromethyl thiocyanate
Formula: C2 H2 Cl N S
CAS: 3268-79-9
Molecular weight: 107
Origin: NIST Mass Spectrometry Data Center
m/z	RELATIVE INTENSITY
12	310
13	260
14	530
24	10
26	250
32	1221
33	100
34	70
35	581
36	120
37	180
38	70
39	10
40	30
44	891
45	2452
46	1361
47	791
49	9999
50	280
51	3023
52	30
56	30
58	1271
60	20
61	10
67	40
70	260
72	4174
73	40
79	180
80	60
81	100
82	30
83	10
107	3463
108	180
109	1371
110	30
111	50
