Mass Spectrum: Octachlorodibenzo-p-dioxin
Formula: C12 Cl8 O2
CAS: 3268-87-9
Molecular weight: 456
Origin: J. PLIMMER- U. KLINGEBIEL
m/z	RELATIVE INTENSITY
63	100
70	100
71	200
73	100
83	200
87	400
89	100
95	600
97	200
106	100
107	400
109	100
111	400
113	100
118	700
120	400
130	400
131	200
132	400
142	1300
143	100
144	800
146	200
153	400
155	400
157	100
165	800
166	600
167	900
168	200
169	200
177	400
179	400
180	100
181	400
183	300
192	100
193	200
194	300
195	300
196	100
202	500
209	200
211	100
212	200
214	300
216	200
218	100
228	400
229	1200
230	1300
231	800
232	500
233	600
260	200
262	300
264	200
295	100
297	200
299	100
323	200
325	200
327	100
330	600
332	1000
333	300
334	800
335	100
336	400
338	100
360	200
362	100
388	200
390	200
392	100
393	500
394	100
395	1100
396	200
397	1000
398	100
399	600
400	100
401	200
421	200
423	400
424	100
425	400
426	100
427	200
456	2800
457	500
458	7599
459	1300
460	9999
461	1500
462	5599
463	1000
464	2800
465	400
466	1000
467	100
