Mass Spectrum: Biphenyl, 2,4,4',5-tetrachloro-
Formula: C12 H6 Cl4
CAS: 32690-93-0
Molecular weight: 290
Origin: N. Todua, WGM, MMES
m/z	RELATIVE INTENSITY
41	201
43	127
45	201
47	201
49	201
50	329
51	265
55	127
56	127
60	201
61	265
62	265
63	127
68	127
72	201
73	265
74	467
75	530
76	201
78	201
79	201
80	201
84	265
85	265
86	265
87	201
91	201
92	467
97	201
98	329
99	265
100	201
101	201
106	127
107	201
108	201
109	329
110	859
111	530
112	201
114	127
115	201
116	127
120	201
121	201
122	265
123	329
124	201
125	201
127	392
128	392
131	127
132	201
133	201
134	201
135	201
136	201
137	127
138	127
144	201
145	329
146	329
147	329
148	201
149	467
150	859
151	127
157	201
158	201
159	201
160	201
161	201
162	201
169	201
170	201
172	201
173	127
181	201
182	201
183	201
184	594
185	530
186	265
187	201
188	127
193	64
194	127
195	127
196	127
198	64
204	127
206	127
207	64
217	64
218	127
219	201
220	3245
221	594
222	2248
223	329
224	467
225	127
228	127
230	127
232	127
254	265
255	127
256	265
257	127
258	127
290	7942
291	997
292	9999
293	1325
294	4835
295	732
296	1188
297	201
298	127
