Mass Spectrum: 1,1'-Binaphthalene, 8,8'-dimethyl-
Formula: C22 H18
CAS: 32693-05-3
Molecular weight: 282
Origin: A. G. LOUDON
m/z	RELATIVE INTENSITY
27	300
78	300
113	500
115	400
120	300
125	500
126	2400
127	600
131	300
132	800
133	1000
138	400
139	800
140	500
162	400
163	400
165	400
239	800
240	400
250	600
252	5800
253	2600
254	500
263	1200
264	600
265	2700
266	1800
267	4600
279	600
280	300
281	1500
282	9999
283	2500
284	300
