Mass Spectrum: L-Norleucine
Formula: C6 H13 N O2
CAS: 327-57-1
Molecular weight: 131
Origin: Japan AIST/NIMC Database- Spectrum MS-NW-1920
m/z	RELATIVE INTENSITY
14	10
15	139
17	40
18	149
26	60
27	839
28	1519
29	679
30	5799
31	90
36	50
37	10
38	30
39	439
40	60
41	1529
42	549
43	1159
44	1419
45	139
46	319
47	10
50	20
51	30
52	30
53	60
54	129
55	90
56	539
57	359
58	20
59	10
60	10
65	10
67	70
68	30
69	749
70	109
71	70
72	10
73	90
74	2209
75	259
76	10
80	10
81	10
82	20
84	90
85	20
86	9999
87	569
88	20
89	40
99	10
100	10
102	10
114	10
131	30
