Mass Spectrum: Acetic acid, trifluoro-, 3-methylbutyl ester
Formula: C7 H11 F3 O2
CAS: 327-69-5
Molecular weight: 184
Origin: NIST Mass Spectrometry Data Center
m/z	RELATIVE INTENSITY
14	10
15	130
20	10
26	140
27	1932
28	1311
29	1912
30	70
31	100
32	10
33	60
37	40
38	120
39	1932
40	300
41	5055
42	3323
43	9999
44	450
45	160
46	10
47	190
48	10
49	10
50	330
51	190
52	50
53	440
54	420
55	8948
56	510
57	430
58	20
59	40
61	10
62	10
63	10
64	10
65	20
66	10
67	100
69	5485
70	5075
71	2112
72	110
73	20
77	10
78	130
80	10
81	10
86	10
87	20
89	10
91	20
93	10
95	30
97	400
98	10
99	550
100	20
112	10
113	50
115	160
116	10
125	20
127	30
139	10
140	10
141	711
142	1331
143	140
144	10
153	10
155	20
157	10
169	30
