Mass Spectrum: 1-Pentanol, trifluoroacetate
Formula: C7 H11 F3 O2
CAS: 327-70-8
Molecular weight: 184
Origin: NIST Mass Spectrometry Data Center
m/z	RELATIVE INTENSITY
14	10
15	60
26	180
27	1822
28	671
29	2913
30	100
31	120
32	10
33	70
37	30
38	110
39	1912
40	430
41	6396
42	9499
43	5665
44	280
45	90
46	10
47	120
49	10
50	350
51	160
52	50
53	390
54	260
55	9999
56	540
57	621
58	30
59	90
60	20
61	100
62	10
63	20
64	10
65	40
66	20
67	190
68	120
69	6976
70	7387
71	2462
72	120
73	10
77	10
78	200
79	10
80	60
81	10
83	10
85	20
87	20
91	10
95	50
97	571
98	20
99	911
100	30
108	10
112	20
113	30
115	260
116	20
119	10
125	40
126	10
127	90
128	10
140	10
141	180
142	20
153	10
155	631
156	40
164	20
