Mass Spectrum: 2,4-Bis(trifluoromethyl)bromobenzene
Formula: C8 H3 Br F6
CAS: 327-75-3
Molecular weight: 292
Origin: Chuck Anderson, Aldrich Chemical Co.
m/z	RELATIVE INTENSITY
26	17
31	356
36	16
37	363
38	348
39	51
44	11
48	20
49	245
50	1178
51	358
52	11
55	28
56	163
57	340
60	26
61	263
62	376
63	174
68	358
69	2438
70	36
72	72
73	504
74	2540
75	3729
76	169
77	23
79	330
80	276
81	435
82	33
84	37
85	199
86	147
87	404
88	169
91	13
92	332
93	758
94	1014
95	115
97	115
98	50
99	1229
100	116
101	123
103	109
104	222
105	233
106	152
107	31
111	83
112	210
113	368
116	20
117	154
118	174
119	101
122	10
123	491
124	197
125	1352
126	92
127	64
128	99
129	35
130	37
131	29
135	19
136	106
137	235
141	13
142	46
143	1936
144	2161
145	147
146	23
147	17
153	32
154	11
155	55
156	13
161	73
162	571
163	3401
164	220
173	37
174	169
175	64
181	10
192	114
193	706
194	1680
195	122
203	14
204	47
205	12
206	42
212	320
213	7786
214	568
215	17
222	12
223	799
225	850
226	46
241	32
242	1372
243	89
244	1393
245	81
273	3729
275	3811
276	240
292	9999
293	778
294	9056
295	665
296	18
