Mass Spectrum: 1,2:4,6-Di-O-isopropylidene-L-sorbopyranose
Formula: C12 H20 O6
CAS: 32717-65-0
Molecular weight: 260
m/z	RELATIVE INTENSITY
60	1000
61	1176
65	59
67	118
68	823
69	8411
70	588
71	2059
72	1412
73	3470
74	294
75	118
77	118
79	118
80	118
81	1412
82	176
83	2000
84	1412
85	4117
86	941
87	765
89	235
91	118
93	59
94	59
95	353
96	294
97	4999
98	471
99	1529
100	706
101	4705
102	412
103	235
107	294
109	882
110	118
111	235
112	118
113	6470
114	823
115	2941
116	176
117	353
118	59
123	59
124	59
125	118
126	412
127	2823
128	176
129	353
130	3411
131	471
132	59
139	1647
140	59
141	59
142	59
143	471
144	235
145	412
149	59
159	59
161	59
163	59
165	4235
166	353
167	59
169	176
171	5117
172	941
173	118
185	59
187	2941
188	294
189	59
190	59
201	59
229	1647
230	176
245	9999
246	1294
247	118
