Mass Spectrum: Iron, tricarbonyl[(1,2,3,4-.eta.)-2-methyl-1,3-butadiene]-, stereoisomer
Formula: C8 H8 Fe O3
CAS: 32731-93-4
Molecular weight: 208
m/z	RELATIVE INTENSITY
56	6005
82	5805
83	200
96	3303
97	100
108	3303
109	100
124	9999
125	601
152	7307
153	400
180	7407
181	400
208	3203
209	200
