Mass Spectrum: Pentanal, 2,3-dimethyl-
Formula: C7 H14 O
CAS: 32749-94-3
Molecular weight: 114
Origin: NIST Mass Spectrometry Data Center, 1990.
m/z	RELATIVE INTENSITY
14	71
15	243
18	67
26	462
27	3319
28	875
29	4877
30	375
31	128
37	59
38	265
39	2315
40	536
41	5723
42	719
43	8139
44	298
45	55
50	180
51	251
52	97
53	461
54	140
55	1141
56	1217
57	4365
58	9999
59	399
65	78
67	167
69	176
70	140
71	59
72	65
79	40
81	82
83	43
85	874
86	79
114	133
