Mass Spectrum: 1H-Pyrrole, 2,4-diphenyl-
Formula: C16 H13 N
CAS: 3274-56-4
Molecular weight: 219
Origin: A.PADWA STATE UNIV. OF NEW YORK, BUFFALO, USA
m/z	RELATIVE INTENSITY
51	300
77	300
89	400
115	1400
116	500
117	400
165	300
189	800
190	300
191	1000
192	200
217	700
218	700
219	9999
220	1900
221	200
