Mass Spectrum: Heptanoic acid, 2-ethyl-
Formula: C9 H18 O2
CAS: 3274-29-1
Molecular weight: 158
Origin: F.M.TRENT RES. DIV., U.S. IND. CHEM. CO., CINCINNATI, USA
m/z	RELATIVE INTENSITY
27	870
28	210
29	1210
40	140
41	2470
42	430
43	2430
44	150
45	890
46	150
53	240
55	1930
56	450
57	1630
59	260
60	320
67	100
68	120
69	800
70	350
71	910
73	8610
74	430
83	350
84	330
85	100
87	1680
88	9999
89	470
97	140
101	3530
102	250
158	70
