Mass Spectrum: Iron, di-.mu.-carbonyldicarbonylbis(.eta.5-2,4-cyclopentadien-1-yl)di-, (Fe-Fe), trans-
Formula: C14 H10 Fe2 O4
CAS: 32757-46-3
Molecular weight: 354
Origin: KA70-3069-T
m/z	RELATIVE INTENSITY
28	8199
56	5599
66	980
81	610
95	1500
121	9999
149	2200
177	2100
186	6499
242	1000
270	250
298	290
326	330
354	310
