Mass Spectrum: Manganese, tricarbonyl[(1,2,3,4,5-.eta.)-1H-pyrrol-1-yl]-
Formula: C7 H4 Mn N O3
CAS: 32761-36-7
Molecular weight: 205
Origin: R B. KING
m/z	RELATIVE INTENSITY
46	100
47	100
55	9999
67	200
68	600
80	200
81	400
82	100
83	100
92	100
93	200
94	300
95	200
121	6000
149	1800
177	1000
205	1300
