Mass Spectrum: 4-Chloro-3-cyanobenzotrifluoride
Formula: C8 H3 Cl F3 N
CAS: 328-87-0
Molecular weight: 205
Origin: NIST Mass Spectrometry Data Center
m/z	RELATIVE INTENSITY
12	40
14	30
17	30
19	300
20	80
25	60
26	60
31	270
33	20
35	250
36	230
37	771
38	611
39	120
44	20
47	210
48	130
49	651
50	2072
51	581
52	110
55	40
56	170
57	270
60	200
61	460
62	430
63	360
64	110
68	320
69	1952
70	50
71	40
72	260
73	691
74	991
75	2692
76	470
77	60
79	100
80	80
81	120
82	70
84	280
85	350
86	220
87	280
88	130
89	30
90	20
91	70
92	80
93	390
94	190
95	70
96	20
98	230
99	1341
100	1972
101	310
102	170
104	160
105	70
106	90
107	20
108	50
109	220
110	120
111	120
112	80
113	30
115	20
117	60
118	110
119	310
120	621
121	70
123	120
124	220
125	110
126	60
128	40
129	40
130	30
131	20
132	60
133	60
134	30
136	410
137	50
138	140
139	80
143	410
144	90
150	711
151	400
152	40
155	3303
156	400
157	1191
158	100
159	130
160	30
161	50
170	3793
171	390
172	20
177	30
179	80
186	4694
187	591
188	1692
189	150
205	9999
206	1311
207	3353
208	350
