Mass Spectrum: 3,5-Bis(trifluoromethyl)nitrobenzene
Formula: C8 H3 F6 N O2
CAS: 328-75-6
Molecular weight: 259
Origin: Japan AIST/NIMC Database- Spectrum MS-IW-2179
m/z	RELATIVE INTENSITY
20	10
28	149
30	2859
31	179
32	10
36	10
37	80
38	119
39	30
44	10
46	119
49	30
50	279
51	149
52	10
55	10
56	50
57	199
60	10
61	90
62	119
63	149
64	20
68	70
69	989
70	10
73	80
74	529
75	1219
76	70
79	20
80	60
81	149
82	20
85	40
86	30
87	70
88	90
89	10
92	60
93	209
94	249
95	50
98	10
99	349
100	50
101	139
103	20
104	40
105	70
106	50
107	30
108	20
111	20
112	70
113	269
114	10
117	40
118	60
119	60
123	199
124	80
125	499
126	50
130	10
131	40
132	639
133	40
137	40
138	20
139	10
141	10
142	20
143	1279
144	1369
145	99
150	40
151	119
155	10
156	10
157	20
158	10
160	10
161	50
162	259
163	2879
164	229
173	20
174	50
175	30
181	369
182	90
187	10
188	10
192	20
193	559
194	1019
195	90
200	10
201	459
202	30
209	20
210	10
212	40
213	9999
214	889
215	30
227	10
229	259
230	20
240	2679
241	239
242	20
243	179
244	10
259	4439
260	409
261	30
