Mass Spectrum: 3-Methoxy-5-nitrobenzotrifluoride
Formula: C8 H6 F3 N O3
CAS: 328-79-0
Molecular weight: 221
Origin: NIST Mass Spectrometry Data Center, 1994
m/z	RELATIVE INTENSITY
13	103
14	216
15	2621
16	42
17	56
18	95
20	126
30	5093
33	79
37	584
38	1371
39	433
40	56
46	1083
47	61
49	192
50	1596
51	1194
52	302
53	553
54	52
55	70
56	246
57	601
60	131
61	827
62	2437
63	8523
64	570
65	190
66	269
67	65
68	272
69	1579
70	152
71	145
73	191
74	1004
75	3601
76	423
77	841
78	456
79	225
80	176
81	1288
82	443
83	308
84	73
85	147
86	70
87	232
88	280
89	131
90	122
91	331
92	203
93	414
94	695
95	1100
96	261
97	550
98	54
99	496
100	139
101	565
102	60
104	76
105	68
106	232
107	456
108	70
109	66
110	365
111	112
112	816
113	841
114	220
115	343
118	95
119	217
120	600
121	109
122	50
123	261
124	50
125	1088
126	505
127	4282
128	318
129	237
130	59
131	50
132	6936
133	714
134	53
136	92
141	1230
142	124
143	915
144	1001
145	5177
146	463
147	195
148	434
155	44
156	328
160	4956
161	529
163	3402
164	254
173	58
175	7899
176	829
177	73
191	335
202	2043
203	203
205	131
221	9999
222	948
223	106
