Mass Spectrum: 3,4-Dichlorobenzotrifluoride
Formula: C7 H3 Cl2 F3
CAS: 328-84-7
Molecular weight: 214
Origin: Chuck Anderson, Aldrich Chemical Co.
m/z	RELATIVE INTENSITY
26	17
31	187
35	100
36	72
37	449
38	229
39	34
44	7
47	80
48	43
49	298
50	899
51	171
52	15
54	44
55	115
56	75
57	118
60	112
61	259
62	412
63	110
64	54
65	18
67	52
68	106
69	868
70	39
71	82
72	239
73	649
74	1849
75	1924
76	95
79	218
80	298
81	115
82	56
83	56
84	556
85	399
86	203
87	149
88	30
89	378
90	189
91	201
92	115
93	354
94	256
95	69
96	35
97	412
98	373
99	399
100	16
101	12
102	18
103	44
104	64
105	31
106	20
107	135
108	178
109	712
110	159
111	243
112	44
113	10
115	23
117	28
118	23
119	72
120	8
121	10
122	13
123	101
124	34
125	351
126	25
127	13
128	41
129	248
130	25
131	84
132	6
133	40
135	30
141	13
142	12
143	518
144	506
145	201
146	16
147	118
148	23
149	18
153	36
155	9
159	373
160	206
161	132
162	65
163	39
164	2074
165	121
166	1356
167	72
168	214
169	13
177	35
178	107
179	4374
180	306
181	1443
182	92
194	51
195	2899
196	196
197	1849
198	117
199	303
200	15
213	285
214	9999
215	756
216	6499
217	393
218	1068
219	66
