Mass Spectrum: D-Leucine
Formula: C6 H13 N O2
CAS: 328-38-1
Molecular weight: 131
Origin: Japan AIST/NIMC Database- Spectrum MS-NW-1909
m/z	RELATIVE INTENSITY
14	20
15	269
16	10
17	30
18	109
26	60
27	1059
28	2029
29	739
30	6339
31	99
37	30
38	80
39	719
40	119
41	1749
42	859
43	2899
44	6539
45	199
46	419
47	10
50	30
51	50
52	30
53	109
54	90
55	139
56	209
57	549
58	20
59	80
60	20
65	10
66	20
67	60
68	99
69	189
70	439
71	99
72	20
73	90
74	3129
75	539
76	30
80	10
81	30
82	20
83	30
84	80
85	40
86	9999
87	599
88	60
89	30
95	10
96	20
97	20
98	20
99	60
100	10
101	10
110	10
111	10
112	10
113	10
114	50
116	20
131	10
