Mass Spectrum: Procymidone
Formula: C13 H11 Cl2 N O2
CAS: 32809-16-8
Molecular weight: 283
Origin: NIST Mass Spectrometry Data Center, 1995
m/z	RELATIVE INTENSITY
11	19
12	30
15	46
25	17
26	98
27	673
35	19
36	60
37	69
38	198
39	1350
40	704
41	1669
42	369
43	125
44	12
47	29
49	68
50	174
51	286
52	243
53	1559
54	160
55	113
56	59
60	20
61	85
62	171
63	201
64	134
65	280
66	20
67	3311
68	2581
69	341
71	23
72	36
73	248
74	114
75	209
76	54
77	64
78	52
79	30
81	126
82	40
83	50
84	61
85	43
86	34
87	71
88	181
89	53
90	37
92	73
93	56
95	678
96	8638
97	804
98	114
99	129
100	65
102	32
103	31
106	27
107	32
108	34
109	309
110	230
111	162
112	158
113	28
114	20
115	40
116	23
121	28
122	49
123	126
124	625
125	84
126	223
127	53
128	24
129	28
133	72
135	50
136	45
137	29
138	26
139	22
142	32
145	359
146	123
147	253
148	69
149	57
150	32
151	27
152	26
153	28
154	23
155	22
156	42
157	59
159	129
160	37
161	147
162	31
163	57
164	27
166	23
170	28
171	41
172	185
173	68
174	132
175	41
176	55
177	65
178	24
179	44
180	25
184	41
185	260
186	429
187	353
188	329
189	158
190	91
191	66
192	89
193	23
194	33
198	58
199	34
200	46
201	25
202	31
203	21
204	41
205	32
210	26
211	38
212	602
213	98
214	417
215	63
216	90
220	134
221	22
222	42
224	20
226	189
227	125
228	127
229	90
230	31
238	84
239	40
240	432
241	76
242	276
243	39
244	44
248	35
254	647
255	1228
256	487
257	749
258	156
259	124
268	129
270	73
283	9999
284	1733
285	7322
286	981
287	1307
288	161
