Mass Spectrum: 3,5-Hexadien-2-ol
Formula: C6 H10 O
CAS: 3280-51-1
Molecular weight: 98
Origin: DR. C. C. VAN DE SANDE, STATE UNIVERSITY OF GENT, BELGIUM
m/z	RELATIVE INTENSITY
37	215
38	410
39	2150
40	290
41	1650
42	275
43	9999
44	305
45	700
48	40
49	140
50	750
51	1100
52	600
53	1650
54	500
55	3900
56	380
57	230
58	110
61	60
62	90
63	175
64	35
65	400
66	155
67	140
68	50
69	350
70	70
71	360
72	20
74	90
75	40
77	650
78	200
79	1700
80	700
81	450
82	135
83	2950
84	270
95	25
96	25
97	155
98	1200
99	90
