Mass Spectrum: 2-Methyl-5-hexen-3-ol
Formula: C7 H14 O
CAS: 32815-70-6
Molecular weight: 114
Origin: NIST Mass Spectrometry Data Center, 1990.
m/z	RELATIVE INTENSITY
15	340
26	217
27	2093
28	811
29	1313
31	903
32	148
38	300
39	2553
40	392
41	3029
42	871
43	5271
44	386
45	1590
51	211
53	429
55	6639
56	346
57	721
69	255
70	327
71	1572
73	9999
74	446
81	192
