Mass Spectrum: Pivalyl chloride
Formula: C5 H9 Cl O
CAS: 3282-30-2
Molecular weight: 120
Origin: Japan AIST/NIMC Database- Spectrum MS-NW-3197
m/z	RELATIVE INTENSITY
14	20
15	149
18	10
25	10
26	99
27	599
28	99
29	2619
30	60
35	30
36	80
37	90
38	159
39	1189
40	199
41	4319
42	399
43	50
44	30
45	20
49	50
50	80
51	80
52	20
53	90
54	20
55	339
56	279
57	9999
58	469
59	30
61	10
63	159
65	50
69	60
70	60
71	20
77	419
78	20
79	129
85	189
86	10
87	30
105	10
