Mass Spectrum: Cyclohexene,1-cyclohexyl-
Formula: C12 H20
CAS: 3282-54-0
Molecular weight: 164
Origin: S.A. Rang et al., IR & MS of Unsatd. Hydrocarbons, 1977
m/z	RELATIVE INTENSITY
25	16
26	128
27	1335
28	170
29	1387
37	12
38	36
39	1952
40	302
41	5593
42	276
43	381
45	28
50	80
51	368
52	329
53	1644
54	1387
55	5424
56	276
57	60
58	28
59	20
60	12
61	8
62	12
63	104
64	48
65	873
66	499
67	7966
68	1695
69	460
70	40
73	20
74	8
75	210
76	32
77	1952
78	644
79	5593
80	2774
81	6610
82	9999
83	5086
84	263
85	8
89	28
90	16
91	1798
92	342
93	2517
94	1233
95	1335
96	1233
97	976
98	100
99	8
100	16
101	8
102	24
103	116
104	80
105	342
106	124
107	1335
108	873
109	683
110	92
115	92
116	36
117	80
118	20
119	100
120	52
121	1490
122	1027
123	234
124	20
128	24
129	24
130	20
131	20
132	8
133	40
134	28
135	925
136	237
137	20
147	12
149	263
150	32
151	8
158	12
160	12
162	56
164	5085
165	486
166	60
