Mass Spectrum: Cyclohexene, 1-butyl-
Formula: C10 H18
CAS: 3282-53-9
Molecular weight: 138
Origin: S.A. Rang et al., IR & MS of Unsatd. Hydrocarbons, 1977
m/z	RELATIVE INTENSITY
15	48
16	9
25	15
26	114
27	1786
28	188
29	1286
37	12
38	51
39	1880
40	364
41	4135
42	310
43	544
45	18
50	81
51	364
52	293
53	1632
54	1385
55	2914
56	231
57	132
58	21
59	3
60	6
62	12
63	90
64	30
65	643
66	544
67	6786
68	2127
69	328
70	60
71	27
72	3
73	9
74	6
75	33
76	18
77	1039
78	257
79	1929
80	841
81	9999
82	2820
83	284
84	42
85	12
86	3
87	3
89	21
90	6
91	505
92	81
93	435
94	169
95	2473
96	4699
97	497
98	51
99	12
101	3
102	6
103	27
104	12
105	48
106	9
107	78
108	42
109	1336
110	275
111	39
112	24
115	21
116	6
117	15
121	21
122	9
123	96
124	39
125	12
136	21
137	27
138	2325
139	257
140	18
