Mass Spectrum: 1-Chloro-3-pentanone
Formula: C5 H9 Cl O
CAS: 32830-97-0
Molecular weight: 120
Origin: Chuck Anderson, Aldrich Chemical Co.
m/z	RELATIVE INTENSITY
14	50
15	73
17	2
18	9
25	46
26	645
27	3410
28	992
29	4719
30	110
31	41
32	2
35	15
36	17
37	44
38	66
39	239
40	33
41	195
42	306
43	248
44	21
45	3
47	7
48	14
49	154
50	54
51	88
52	15
53	159
54	25
55	1728
56	309
57	9999
58	309
59	27
60	23
61	129
62	86
63	3737
64	105
65	1273
66	31
67	18
71	20
77	8
83	79
84	189
85	1413
86	75
89	21
90	7
91	2768
92	68
93	911
94	24
120	467
121	23
122	161
