Mass Spectrum: 1,1'-Binaphthalene, 2,2'-dimethyl-
Formula: C22 H18
CAS: 32834-84-7
Molecular weight: 282
Origin: A. G. LOUDON
m/z	RELATIVE INTENSITY
113	300
115	400
120	200
124	300
126	1100
127	200
132	400
133	500
138	200
139	400
140	200
141	600
226	300
237	200
238	200
239	700
240	200
250	300
252	2000
253	900
261	200
263	1100
264	600
265	2500
266	1500
267	2200
268	500
276	300
281	400
282	9999
283	2500
284	300
