Mass Spectrum: 6-(Dimethylamino)purine, TMS derivative
Formula: C10 H17 N5 Si
CAS: 32865-76-2
Molecular weight: 235
Origin: NIST Mass Spectrometry Data Center
m/z	RELATIVE INTENSITY
15	60
26	10
27	30
28	110
29	100
30	50
31	20
38	10
39	20
40	70
41	80
42	430
43	691
44	771
45	891
46	60
47	30
51	10
52	70
53	160
54	260
55	270
56	250
57	210
58	530
59	300
60	40
61	20
64	30
65	80
66	160
67	360
68	170
69	220
70	250
71	190
72	801
73	5565
74	540
75	210
76	10
77	40
78	40
79	110
80	170
81	110
82	80
83	160
84	731
85	240
86	140
87	20
88	30
89	60
91	40
92	260
93	340
94	230
95	260
96	180
97	110
98	160
99	320
100	70
101	40
102	160
104	10
105	20
106	80
107	140
108	150
109	150
110	160
111	200
112	40
113	60
114	10
115	10
116	10
118	50
119	591
120	230
121	240
122	160
123	641
124	150
125	110
126	50
127	20
132	10
133	110
134	280
135	230
136	160
137	210
138	470
139	80
140	30
145	10
146	10
147	50
148	280
149	110
150	460
151	110
152	60
153	10
154	30
155	10
160	20
161	80
162	631
163	170
164	591
165	1141
166	220
167	60
168	10
174	20
175	40
176	60
177	430
178	140
179	100
180	30
181	10
188	10
189	20
190	130
191	1782
192	861
193	360
194	70
195	10
202	10
203	20
204	130
205	480
206	9999
207	1862
208	490
209	50
218	70
220	4654
221	801
222	210
223	20
232	10
234	460
235	4954
236	961
237	250
238	30
