Mass Spectrum: Procyazine
Formula: C10 H13 Cl N6
CAS: 32889-48-8
Molecular weight: 252
Origin: NIST Mass Spectrometry Data Center, 1998.
m/z	RELATIVE INTENSITY
12	10
13	10
14	40
15	280
16	10
25	10
26	310
27	1320
28	3300
29	450
30	350
35	30
36	40
37	90
38	270
39	3860
40	940
41	7789
42	2950
43	2660
44	80
47	20
49	40
50	20
51	120
52	910
53	1960
54	2330
55	2080
56	4890
57	610
58	520
59	20
61	60
62	1670
63	80
64	610
65	80
66	610
67	2020
68	7479
69	1140
70	120
71	10
73	20
74	40
75	170
76	40
77	100
78	340
79	510
80	740
81	3560
82	1340
83	2270
84	140
85	140
86	10
87	1750
88	270
89	590
90	110
91	170
92	210
93	1820
94	820
95	440
96	220
97	740
98	260
101	310
102	260
103	140
104	1800
105	240
106	1250
107	930
108	2560
109	2620
110	650
111	310
112	70
113	60
114	70
115	70
116	100
117	370
118	150
119	560
120	260
121	710
122	380
123	1550
124	120
125	10
126	20
127	50
128	320
129	1360
130	450
131	530
132	220
133	500
134	1760
135	450
136	170
137	260
138	30
140	30
141	80
142	270
143	120
144	440
145	310
146	460
147	280
148	1370
149	410
150	390
151	40
152	10
153	30
154	70
155	450
156	200
157	640
158	230
159	330
160	210
161	230
162	140
163	110
164	20
167	190
168	260
169	850
170	3770
171	560
172	1290
173	190
174	510
175	160
176	110
177	40
180	110
181	30
182	140
183	340
184	2900
185	450
186	1140
187	170
188	330
189	80
190	360
191	50
192	10
193	90
194	400
195	110
196	200
197	300
198	680
199	240
200	230
201	770
202	100
206	10
207	220
208	230
209	320
210	8839
211	1080
212	3090
213	340
214	90
215	90
216	70
217	310
218	40
219	10
220	130
221	190
222	120
223	170
224	2480
225	1920
226	1080
227	630
228	100
235	50
237	9999
238	1240
239	3240
240	380
241	20
251	1510
252	5000
253	1140
254	1660
255	210
256	10
