Mass Spectrum: 2-Fluoro-6-(trifluoromethyl)benzoic acid
Formula: C8 H4 F4 O2
CAS: 32890-94-1
Molecular weight: 208
Origin: NIST Mass Spectrometry Data Center
m/z	RELATIVE INTENSITY
12	70
13	60
18	20
19	100
26	130
28	100
31	440
37	240
38	210
39	310
40	40
43	100
44	190
45	961
49	110
50	631
51	310
56	160
57	340
61	250
62	430
63	801
67	60
68	651
69	1151
70	140
73	170
74	701
75	1261
76	90
80	140
81	160
83	90
86	90
87	110
92	210
93	611
94	881
95	270
96	50
99	400
112	190
113	1161
114	781
117	120
118	90
123	110
125	561
131	70
132	210
137	70
139	120
141	190
143	1171
144	1381
145	631
159	60
160	320
161	110
163	3323
164	330
169	1041
191	9999
192	911
208	5535
209	581
210	50
