Mass Spectrum: Cyclohexanecarboxylic acid, ethyl ester
Formula: C9 H16 O2
CAS: 3289-28-9
Molecular weight: 156
Origin: D.HENNEBERG, MAX-PLANCK INSTITUTE, MULHEIM, WEST GERMANY
m/z	RELATIVE INTENSITY
26	516
27	3203
28	806
29	4757
30	134
31	134
32	17
36	7
37	28
38	93
39	2179
40	363
41	5287
42	573
43	643
44	101
45	494
46	17
47	111
49	15
50	162
51	398
52	163
53	926
54	1067
55	9128
56	947
57	198
58	42
59	35
60	387
61	385
62	33
63	37
64	9
65	143
66	145
67	1692
68	1791
69	878
70	333
71	72
72	22
73	2391
74	168
75	94
76	32
77	556
78	113
79	426
80	152
81	2266
82	1636
83	9999
84	664
85	173
86	240
87	201
88	2090
89	173
90	14
91	27
92	20
93	20
94	24
95	43
96	24
97	35
98	12
99	668
100	131
101	4921
102	294
103	30
104	11
105	781
106	80
107	15
108	32
109	233
110	1595
111	2572
112	206
113	143
114	246
115	863
116	59
117	6
119	16
122	201
123	17
124	3
125	17
126	23
127	405
128	1415
129	282
130	24
131	4
132	3
135	7
136	6
138	5
139	5
140	29
141	342
142	31
149	14
150	129
151	17
154	4
155	46
156	2954
157	291
158	28
