Mass Spectrum: 2,4-di(Trifluoromethyl)benzoic acid
Formula: C9 H4 F6 O2
CAS: 32890-87-2
Molecular weight: 258
Origin: NIST Mass Spectrometry Data Center, 1994
m/z	RELATIVE INTENSITY
17	36
18	85
27	70
28	28
29	117
30	28
31	384
37	131
38	177
39	85
45	1227
49	93
50	651
51	359
53	86
56	108
57	261
61	105
62	221
63	249
68	179
69	1257
73	203
74	871
75	1925
76	144
77	131
79	78
80	114
81	155
85	90
86	131
87	117
88	95
92	111
93	297
94	401
95	206
97	176
99	606
100	101
101	107
103	48
104	87
105	121
106	75
111	63
112	145
113	412
114	165
117	103
118	88
119	82
123	239
124	118
125	859
126	99
132	153
141	88
143	1448
144	1894
145	848
150	38
161	145
162	482
163	2346
164	490
165	79
181	136
182	220
189	116
190	145
191	401
192	63
193	253
194	2277
195	600
205	44
209	99
210	212
213	4201
214	480
218	577
219	1267
220	116
238	166
239	1397
241	9999
242	974
243	129
258	6447
259	640
260	30
