Mass Spectrum: Phenol, 2,5-dinitro-
Formula: C6 H4 N2 O5
CAS: 329-71-5
Molecular weight: 184
Origin: Japan AIST/NIMC Database- Spectrum MS-NW-8245
m/z	RELATIVE INTENSITY
14	20
15	30
16	20
17	40
18	40
25	20
26	159
27	99
28	449
29	249
30	4999
31	30
32	10
36	10
37	359
38	1019
39	2339
40	219
41	40
42	99
43	20
44	179
45	519
46	139
48	10
49	90
50	659
51	1739
52	779
53	2699
54	189
55	179
56	20
60	20
61	369
62	1289
63	3159
64	1279
65	169
66	239
67	139
68	209
69	159
70	50
73	30
74	129
75	109
76	179
77	459
78	60
79	419
80	279
81	30
82	40
83	20
86	40
90	90
91	609
92	429
93	449
94	60
95	30
96	159
101	20
104	50
107	40
108	159
109	40
110	10
120	70
121	30
124	10
126	10
138	189
139	20
154	149
155	10
167	20
168	109
184	9999
185	849
186	40
