Mass Spectrum: 4-(Trifluoromethyl)benzoyl chloride
Formula: C8 H4 Cl F3 O
CAS: 329-15-7
Molecular weight: 208
Origin: NIST Mass Spectrometry Data Center
m/z	RELATIVE INTENSITY
12	20
18	30
24	10
25	30
26	50
28	30
35	120
36	60
37	320
38	430
39	130
48	60
49	250
50	1952
51	500
52	30
53	120
56	60
57	280
60	30
61	140
62	240
63	400
64	10
65	40
68	120
69	781
70	20
72	40
73	220
74	841
75	1912
76	591
77	210
79	30
80	60
81	110
84	20
85	70
86	90
87	90
88	50
91	20
92	60
93	100
94	230
95	1551
96	90
99	360
100	80
101	40
103	10
104	100
105	30
106	20
107	80
111	50
113	20
114	20
118	30
119	180
123	60
125	881
126	360
127	30
130	20
137	10
143	160
145	7257
146	591
147	20
161	460
162	50
163	160
164	10
173	9999
174	981
175	70
179	30
180	20
189	210
190	20
191	70
208	50
210	10
