Mass Spectrum: 3,4,5-Trimethoxybenzhydrazide
Formula: C10 H14 N2 O4
CAS: 3291-03-0
Molecular weight: 226
Origin: NIST Mass Spectrometry Data Center
m/z	RELATIVE INTENSITY
10	10
15	1031
16	100
17	50
18	30
27	20
28	140
29	591
30	300
31	1381
32	30
37	180
43	220
44	100
45	160
47	10
49	120
50	751
51	470
52	220
53	1031
54	70
55	110
56	10
57	20
59	100
61	100
62	260
63	410
64	230
65	440
66	1531
67	300
68	80
69	150
70	20
71	20
73	30
74	90
75	230
76	390
77	1041
78	400
79	550
80	170
81	1011
82	120
83	30
85	10
89	20
90	50
91	170
92	440
93	350
94	260
95	330
96	380
97	60
98	10
99	30
102	10
103	40
104	80
105	110
106	220
107	490
108	250
109	841
110	210
111	60
113	60
118	30
119	70
120	100
121	180
122	731
123	210
124	490
125	200
126	20
131	10
132	20
133	60
134	200
135	130
137	871
138	120
139	380
140	120
141	30
147	30
149	120
150	190
151	280
152	1221
153	180
154	20
161	10
162	10
163	40
165	140
167	460
168	60
169	10
178	30
179	100
180	70
181	170
182	40
191	10
192	10
193	100
195	9999
196	1421
197	180
198	10
207	10
208	30
209	10
211	150
212	40
226	1481
227	170
228	20
