Mass Spectrum: 3-Cyclobutene-1,2-dione
Formula: C4 H2 O2
CAS: 32936-74-6
Molecular weight: 82
Origin: James Little,Eastman Chem.Co.,Kingsport,TN
m/z	RELATIVE INTENSITY
25	1822
26	9999
28	2242
29	430
32	320
37	661
40	170
41	440
48	60
52	270
53	1301
54	4954
55	190
56	90
69	50
82	1621
83	80
