Mass Spectrum: Allyl n-octyl ether
Formula: C11 H22 O
CAS: 3295-97-4
Molecular weight: 170
Origin: NIST Mass Spectrometry Data Center
m/z	RELATIVE INTENSITY
14	10
15	130
16	10
18	10
26	130
27	1772
28	671
29	3033
30	150
31	240
37	10
39	1932
40	400
41	9999
42	1511
43	6186
44	280
45	60
50	10
51	50
52	20
53	250
54	190
55	2342
56	1561
57	6346
58	5265
59	390
60	10
65	40
66	50
67	310
68	350
69	1842
70	1291
71	4384
72	250
73	10
77	10
79	30
81	150
82	390
83	1001
84	731
85	120
86	10
95	50
96	20
97	100
98	10
99	50
109	20
110	230
111	220
112	540
113	80
123	30
127	40
128	10
141	931
142	70
170	110
171	10
