Mass Spectrum: 1H-Indene, octahydro-, trans-
Formula: C9 H16
CAS: 3296-50-2
Molecular weight: 124
m/z	RELATIVE INTENSITY
12	10
13	10
14	20
15	410
16	10
25	10
26	310
27	3073
28	831
29	1401
30	30
37	50
38	210
39	3433
40	530
41	4024
42	390
43	160
44	10
45	20
46	30
47	10
49	10
50	180
51	490
52	280
53	1321
54	2552
55	2562
56	170
57	50
58	20
59	10
61	10
62	50
63	130
64	30
65	370
66	1151
67	9999
68	2953
69	571
70	40
74	20
75	10
76	10
77	430
78	100
79	651
80	290
81	4754
82	4104
83	641
84	30
85	10
86	10
87	10
89	10
90	10
91	170
92	20
93	130
94	140
95	1802
96	6366
97	480
98	20
103	10
104	10
105	10
106	10
107	10
108	10
109	90
110	10
115	10
116	10
117	10
121	10
122	10
123	100
124	3543
125	350
126	20
