Mass Spectrum: Isoquinoline, 1-phenyl-
Formula: C15 H11 N
CAS: 3297-72-1
Molecular weight: 205
Origin: L.K. DYALL, DEP. CHEM., NEWCASTLE UNIV., N.S.W., AUSTRALD
m/z	RELATIVE INTENSITY
39	210
50	470
51	650
52	140
62	220
63	350
74	540
75	740
76	580
77	420
86	160
87	280
88	370
89	220
98	220
99	160
100	120
102	790
103	120
126	170
127	140
128	160
139	120
150	300
151	450
152	230
174	160
175	210
176	840
177	480
178	160
188	10
201	150
202	330
203	1160
204	9999
205	5350
206	880
207	90
