Mass Spectrum: 1-Propen-2-ol, formate
Formula: C4 H6 O2
CAS: 32978-00-0
Molecular weight: 86
Origin: J.E.W. VAN MELICK, CATHOLIC UNIV., NIJMEGEN, NETHERLANDS
m/z	RELATIVE INTENSITY
26	510
27	1224
28	1735
29	3265
31	510
40	612
41	2245
42	1224
43	9999
44	204
57	1327
58	6735
86	1837
