Mass Spectrum: .delta.-Nonalactone
Formula: C9 H16 O2
CAS: 3301-94-8
Molecular weight: 156
Origin: Japan AIST/NIMC Database- Spectrum MS-NW-8862
m/z	RELATIVE INTENSITY
15	50
17	60
18	339
26	40
27	1059
28	229
29	1069
30	20
31	40
38	10
39	739
40	149
41	2479
42	3979
43	2689
44	319
45	80
51	30
52	20
53	179
54	289
55	3259
56	1469
57	729
58	189
59	40
60	199
61	10
65	30
66	20
67	269
68	399
69	849
70	3129
71	4699
72	249
73	209
74	20
77	20
79	50
80	30
81	179
82	99
83	269
84	459
85	589
86	389
87	80
88	20
91	10
93	20
94	60
95	139
96	339
97	219
98	60
99	9999
100	1279
101	129
109	50
110	60
111	20
112	20
113	219
114	1059
115	80
120	60
121	10
123	30
127	109
128	70
129	10
137	10
138	289
139	119
140	20
141	10
155	30
156	50
157	259
158	30
