Mass Spectrum: E-14-Hexadecenal
Formula: C16 H30 O
CAS: 330207-53-9
Molecular weight: 238
Origin: LAC, NIDDK, NIH, Bethesda, MD 20892
m/z	RELATIVE INTENSITY
41	9507
42	2438
43	9999
44	485
45	29
46	7
47	12
49	18
50	18
51	71
52	57
53	710
54	1527
55	8892
56	4991
57	7767
58	349
59	23
60	18
61	38
63	11
64	4
65	131
66	147
67	1615
68	1476
69	6098
70	4446
71	3400
72	178
73	30
74	9
75	42
76	4
77	83
78	22
79	188
80	72
81	771
82	2093
83	6783
84	2838
85	1821
86	123
87	16
88	7
89	5
91	36
92	11
93	38
94	29
95	332
96	995
97	5905
98	1582
99	332
100	28
101	32
102	2
103	5
105	16
106	9
107	20
108	16
109	132
110	449
111	2719
112	916
113	155
114	14
115	17
116	4
117	13
119	8
120	11
121	19
122	15
123	68
124	240
125	1090
126	534
127	93
128	12
129	16
130	5
131	18
132	2
133	13
134	5
135	20
136	10
137	39
138	143
139	287
140	305
141	62
142	3
143	16
144	5
145	9
147	11
149	17
150	6
151	16
152	89
153	137
154	185
155	38
156	2
157	16
158	7
159	7
161	4
162	9
163	11
165	17
166	55
167	76
168	145
169	28
170	6
171	18
172	7
173	2
175	4
176	6
177	10
178	9
179	7
180	55
181	42
182	74
183	18
184	4
185	11
186	11
187	2
189	9
190	2
191	7
192	2
193	2
194	24
195	28
196	50
197	11
198	6
199	12
200	7
203	11
204	2
205	7
208	14
209	17
210	165
211	31
212	9
213	23
214	6
215	4
217	10
218	12
221	7
222	5
223	6
226	6
227	12
228	6
229	2
231	2
232	5
235	6
236	4
237	4
238	386
239	80
240	17
241	13
