Mass Spectrum: 3-Octen-2-one, 7-methyl-
Formula: C9 H16 O
CAS: 33046-81-0
Molecular weight: 140
Origin: CARL DJERASSI DEPT OF CHEM STANFORD UNIV STANFORD CALIF 94305
m/z	RELATIVE INTENSITY
41	2900
42	400
43	9999
44	200
51	200
53	600
54	200
55	7700
56	800
57	1300
67	400
68	200
69	1800
70	1800
71	2100
72	100
77	100
79	200
81	400
82	2200
83	500
84	1600
85	1200
95	200
97	2200
98	200
122	200
125	1300
126	100
140	300
