Mass Spectrum: Dimethyl 4,5-imidazole-dicarboxylate
Formula: C7 H8 N2 O4
CAS: 3304-70-9
Molecular weight: 184
Origin: NIST Mass Spectrometry Data Center, 1994
m/z	RELATIVE INTENSITY
14	64
15	839
16	13
27	170
28	895
29	421
30	143
31	153
32	11
38	356
39	691
40	446
41	102
42	460
43	88
44	93
45	101
51	62
52	116
53	126
54	113
55	99
58	39
59	310
64	63
65	399
66	311
67	1649
68	1210
69	117
70	267
82	39
93	324
94	1813
95	435
96	1003
97	74
108	113
110	163
121	6973
122	564
123	796
124	89
125	89
126	2437
127	174
139	100
153	9999
154	1456
155	157
184	2247
185	190
186	7
