Mass Spectrum: N-Acetylnorvaline methylamide
Formula: C8 H16 N2 O2
CAS: 33067-46-8
Molecular weight: 172
Origin: Japan AIST/NIMC Database- Spectrum MS-IW-1968
m/z	RELATIVE INTENSITY
14	10
15	249
26	10
27	159
28	459
29	139
30	1259
31	40
32	209
39	70
40	20
41	139
42	269
43	1659
44	1209
45	40
53	30
54	40
55	239
56	309
57	90
58	609
59	70
60	70
68	40
69	99
70	209
71	90
72	9999
73	619
74	10
81	10
82	10
83	60
84	60
85	50
86	989
87	739
88	99
97	10
98	30
99	50
100	50
101	30
112	80
113	90
114	4249
115	2789
116	199
117	10
125	40
126	10
128	50
129	80
130	789
131	50
142	20
143	30
154	10
157	10
172	30
