Mass Spectrum: Lilac alcohol A
Formula: C10 H18 O2
CAS: 33081-34-4
Molecular weight: 170
Origin: Mark Whitten, Florida Museum of Natural History, U. of Florida
m/z	RELATIVE INTENSITY
41	6125
43	9394
44	348
45	395
50	150
51	444
52	250
53	1851
55	9999
56	643
57	1461
58	418
59	455
61	45
63	65
65	567
67	4748
68	1151
69	1969
70	414
71	2310
72	365
73	71
77	872
78	130
79	894
80	267
81	2386
82	916
83	1523
84	484
85	390
86	57
87	292
91	1156
93	6880
94	995
95	670
96	162
97	291
98	65
99	54
100	71
101	49
102	215
105	70
107	355
108	74
109	784
111	6697
112	509
113	160
119	139
121	122
122	54
123	77
124	51
125	475
126	58
137	308
139	89
143	165
152	67
155	1404
156	141
170	128
