Mass Spectrum: Lilac alcohol D
Formula: C10 H18 O2
CAS: 33081-37-7
Molecular weight: 170
Origin: Mark Whitten, Florida Museum of Natural History, U. of Florida
m/z	RELATIVE INTENSITY
41	5882
42	1073
43	8615
44	326
45	367
50	183
51	402
53	1752
55	9999
56	663
57	1229
58	389
59	419
63	75
65	543
67	4013
68	1086
69	1860
70	399
71	2419
72	359
77	812
78	110
79	834
80	274
81	2177
82	769
83	1295
84	422
85	271
87	223
91	1119
93	6395
94	965
95	601
96	193
97	228
102	115
105	70
107	331
108	67
109	638
111	6224
112	533
113	163
119	120
121	118
123	75
125	497
137	243
143	88
155	1471
156	155
170	110
