Mass Spectrum: 5-Undecanone
Formula: C11 H22 O
CAS: 33083-83-9
Molecular weight: 170
Origin: Japan AIST/NIMC Database- Spectrum MS-IW-2922
m/z	RELATIVE INTENSITY
15	40
26	70
27	1359
28	339
29	2619
30	50
31	50
38	20
39	839
40	139
41	3769
42	629
43	7269
44	269
45	109
50	20
51	50
52	30
53	259
54	90
55	1279
56	409
57	7819
58	9669
59	1279
60	319
61	20
64	10
65	30
66	10
67	199
68	539
69	429
70	259
71	2469
72	929
73	169
74	20
75	10
77	30
78	10
79	40
80	10
81	189
82	60
83	159
84	219
85	9999
86	949
87	90
91	20
93	10
94	10
95	509
96	60
97	50
98	20
99	259
100	1909
101	629
102	40
103	20
109	20
110	189
111	40
112	60
113	7689
114	679
115	50
123	20
126	10
127	199
128	999
129	129
130	10
131	20
135	10
141	569
142	139
143	10
155	30
169	10
170	949
171	129
172	10
