Mass Spectrum: Lilac alcohol B
Formula: C10 H18 O2
CAS: 33081-35-5
Molecular weight: 170
Origin: Mark Whitten, Florida Museum of Natural History, U. of Florida
m/z	RELATIVE INTENSITY
41	6175
43	9759
44	426
45	435
50	192
51	426
52	274
53	1733
55	9999
56	628
57	1373
58	464
59	505
65	511
67	4448
68	1288
69	1944
70	438
71	2869
72	404
73	88
77	918
78	145
79	1035
80	340
81	2393
82	877
83	1442
84	419
85	410
87	243
91	1215
93	7148
94	1067
95	666
96	179
97	246
100	69
102	129
107	426
108	78
109	697
111	6715
112	584
113	208
119	129
121	148
125	587
137	322
143	145
155	1420
156	161
170	126
