Mass Spectrum: Octadecanoic acid, 9,10-dichloro-, methyl ester
Formula: C19 H36 Cl2 O2
CAS: 33094-27-8
Molecular weight: 366
Origin: R.T.HOLMAN,UNIVERSITY OF MINNESOTA
m/z	RELATIVE INTENSITY
26	10
27	510
28	150
29	1300
30	40
31	70
33	20
35	30
36	140
37	10
38	50
39	380
40	80
41	3000
42	510
43	2500
44	100
45	140
49	20
51	40
52	30
53	360
54	560
55	3100
56	500
57	1000
58	90
59	760
60	30
61	20
62	20
63	60
64	10
65	140
66	100
67	1000
68	680
69	1800
70	290
71	330
72	30
73	160
74	9999
75	1700
76	100
77	190
78	60
79	460
80	300
81	1500
82	1400
83	1000
84	360
85	220
86	20
87	2700
88	310
89	120
90	40
91	170
92	40
93	350
94	300
95	1200
96	750
97	560
98	220
99	90
100	30
101	290
102	50
103	60
104	30
105	90
106	50
107	230
108	200
109	650
110	510
111	260
112	60
113	50
114	50
115	180
116	90
117	50
118	20
119	120
120	50
121	240
122	160
123	340
124	330
125	200
126	40
127	70
128	50
129	170
130	330
131	80
132	30
133	70
134	30
135	210
136	210
137	310
138	260
139	90
140	80
141	90
142	50
143	170
144	30
145	50
146	20
147	80
148	20
149	150
150	300
151	160
152	190
153	70
154	80
155	110
156	30
157	80
158	20
159	30
160	10
161	40
162	20
163	110
164	230
165	170
166	130
167	60
168	80
169	40
170	20
171	40
172	10
173	50
174	10
175	30
176	10
177	60
178	130
179	90
180	50
181	60
182	70
183	20
184	10
185	40
186	40
187	40
188	20
189	20
191	50
192	50
193	50
194	30
195	40
196	100
197	50
198	10
199	30
200	30
201	40
202	20
203	20
205	40
206	50
207	50
208	30
209	40
210	70
211	20
213	20
214	20
215	20
216	10
218	20
219	30
220	140
221	60
222	20
223	30
224	40
225	10
227	20
229	10
233	10
234	50
235	60
236	20
237	30
238	30
239	10
243	10
244	10
245	40
246	10
251	20
252	20
256	10
261	20
262	330
263	360
264	90
265	40
266	10
270	20
279	10
281	10
287	20
288	10
289	10
292	50
293	30
294	720
295	210
296	40
297	10
298	30
299	80
300	30
301	30
323	10
325	10
330	10
331	10
336	20
338	10
366	14
367	20
368	20
369	10
