Mass Spectrum: 1,1'-Biphenyl, 2,2',3,3',4,4',6,6'-octachloro-
Formula: C12 H2 Cl8
CAS: 33091-17-7
Molecular weight: 426
Origin: Organic Synthesis Lab, MSU, Moscow.TRC 1190
m/z	RELATIVE INTENSITY
41	46
42	25
44	287
47	64
48	24
49	75
60	46
61	135
67	47
69	34
71	84
72	96
73	372
74	40
78	41
83	44
84	210
85	148
86	109
90	292
94	28
95	130
96	145
97	134
98	92
101	43
102	37
106	76
107	245
108	749
109	422
110	196
111	27
113	50
114	71
118	109
119	135
120	289
121	163
122	116
123	20
126	360
131	153
132	343
133	134
134	178
141	76
143	1381
144	1763
145	1124
146	556
147	104
148	80
149	141
150	126
151	45
154	60
155	67
156	202
157	71
158	98
160	402
161	713
163	193
166	107
167	105
168	122
169	104
170	55
178	1755
179	3457
180	3152
181	1498
182	319
183	104
190	85
191	98
192	142
193	64
194	65
201	77
202	91
203	144
204	112
205	48
206	35
213	445
214	1000
215	1490
216	1155
217	589
218	570
219	161
220	89
225	35
226	153
227	72
228	129
229	62
230	67
235	38
237	101
239	182
240	90
241	92
243	45
249	44
250	344
251	529
252	386
253	389
254	181
255	165
262	43
263	33
264	70
265	34
268	31
270	58
272	110
274	192
275	48
276	115
278	44
285	85
286	2145
287	313
288	2264
289	341
290	1270
291	190
292	287
293	41
294	33
296	51
298	130
300	122
320	164
321	369
322	244
323	646
324	259
325	398
326	99
327	106
356	2092
357	391
358	4352
359	653
360	3699
361	572
362	1680
363	295
364	450
365	78
391	62
392	43
393	203
394	89
395	228
396	39
397	76
399	41
426	3301
427	451
428	8005
429	1270
430	9999
431	1280
432	6326
433	875
434	2483
435	265
436	674
437	58
438	120
