Mass Spectrum: 3-Fluorophenylacetic acid
Formula: C8 H7 F O2
CAS: 331-25-9
Molecular weight: 154
Origin: NIST Mass Spectrometry Data Center, 1994
m/z	RELATIVE INTENSITY
14	18
17	16
18	21
26	46
27	69
28	73
29	68
31	147
32	8
33	59
37	87
38	162
39	464
40	27
41	13
42	28
43	55
44	100
45	404
46	17
49	48
50	280
51	285
52	45
53	39
55	184
56	74
57	693
58	45
59	182
60	20
61	143
62	288
63	524
64	74
65	36
68	80
69	80
70	81
71	21
73	28
74	113
75	157
76	47
77	142
78	34
79	28
80	65
81	301
82	21
83	1955
84	157
85	49
86	79
87	71
88	33
89	290
90	91
91	46
92	16
93	17
94	31
95	95
96	42
97	87
104	11
105	44
107	624
109	9999
110	2106
111	149
112	57
121	15
123	9
125	46
126	47
136	71
137	29
152	13
154	3101
155	286
156	23
