Mass Spectrum: Caffeic acid
Formula: C9 H8 O4
CAS: 331-39-5
Molecular weight: 180
Origin: W.T.RAINEY OAK RIDGE NATIONAL LABORATORY,OAK RIDGE,TN.USA
m/z	RELATIVE INTENSITY
38	319
39	847
41	180
43	172
44	249
45	588
50	652
51	1180
52	486
53	694
55	499
62	638
63	1166
64	194
65	199
66	161
67	388
69	230
74	166
75	138
76	161
77	1194
78	833
79	499
81	222
88	416
89	1722
90	305
95	166
105	444
106	555
107	583
110	249
117	888
118	138
123	694
126	138
134	4027
135	3896
136	666
137	222
138	138
145	611
151	138
152	222
162	388
163	3055
164	305
165	33
179	1527
180	9999
181	986
182	194
