Mass Spectrum: 1-Phenanthrenecarboxylic acid, 1,2,3,4,4a,4b,5,6,7,9,10,10a-dodecahydro-1,4a-dimethyl-7-(1-methylethylidene)-, methyl ester, [1R-(1.alpha.,4a.beta.,4b.alpha.,10a.alpha.)]-
Formula: C21 H32 O2
CAS: 3310-97-2
Molecular weight: 316
Origin: D.F.ZINKEL US FOREST PRODUCTS LAB., MADISON, WISCONSIN, USA
m/z	RELATIVE INTENSITY
71	100
73	500
77	3100
78	2200
79	3900
80	1200
81	2800
82	200
83	200
85	100
88	100
89	100
91	5600
92	2800
93	4000
94	1000
95	1500
96	100
97	300
101	800
102	100
103	1100
104	900
105	3900
106	1700
107	2800
108	1000
109	2000
110	100
114	100
115	2000
116	700
117	2800
118	700
119	3900
120	1200
121	5600
122	2000
123	1000
127	200
128	1400
129	1600
130	400
131	1800
132	800
133	2400
134	4200
135	9999
136	4600
137	100
141	600
142	300
143	900
144	200
145	900
146	300
147	1200
148	5900
149	1500
153	100
155	200
157	400
158	100
159	700
160	300
161	600
171	300
172	200
173	1000
181	1900
185	200
187	700
199	100
213	100
214	100
241	100
256	400
257	700
316	6300
317	1100
