Mass Spectrum: Methyl palustrate
Formula: C21 H32 O2
CAS: 3310-94-9
Molecular weight: 316
m/z	RELATIVE INTENSITY
36	300
37	600
38	600
39	800
40	900
41	8699
42	400
43	9999
44	3300
45	3000
46	100
47	100
51	400
53	2000
54	300
55	6399
56	1100
57	1100
58	800
59	4500
60	300
61	400
63	300
65	1700
66	300
67	3700
68	300
69	2700
70	400
71	600
72	100
73	2500
74	100
75	400
77	2700
78	1100
79	4999
80	400
81	2400
82	300
83	1400
85	600
86	600
87	900
88	300
89	300
90	400
91	8999
92	1400
93	4500
94	400
95	2000
99	400
100	300
101	600
103	1200
104	800
105	7699
106	5299
107	6199
108	900
109	3700
110	300
115	3000
116	1100
117	4600
118	900
119	2700
120	400
121	2400
122	900
123	1100
127	800
128	3000
129	4999
130	1400
131	4300
132	400
133	5099
134	900
135	1700
136	400
141	2000
142	1400
143	3200
144	600
145	2500
146	900
147	1200
148	3800
149	5599
150	1400
152	300
153	400
154	400
155	1100
156	400
157	1900
158	400
159	3500
160	1100
161	400
162	400
165	400
167	400
169	900
171	800
173	900
175	400
183	400
185	4500
186	400
187	400
197	400
199	400
201	400
207	100
213	1400
221	300
239	400
241	3700
242	400
256	100
257	500
301	2900
302	600
316	1400
317	300
