Mass Spectrum: Etomidate
Formula: C14 H16 N2 O2
CAS: 33125-97-2
Molecular weight: 244
Origin: Patti Price, Georgia Bureau of Investigation, Decatur, Georgia
m/z	RELATIVE INTENSITY
43	30
45	10
50	50
51	250
52	90
53	70
54	10
62	10
63	60
64	10
65	60
66	40
67	70
68	40
69	10
75	20
76	30
77	1020
78	250
79	770
80	40
81	10
89	40
90	10
91	40
92	20
93	10
94	30
95	350
96	30
97	10
100	10
101	20
102	80
103	690
104	1731
105	9999
106	750
107	40
113	10
114	10
115	50
116	30
117	10
118	10
121	50
122	10
127	10
128	40
129	10
142	10
143	30
144	10
155	20
156	10
168	10
169	20
170	20
171	20
172	40
173	10
197	20
198	110
199	150
200	40
201	10
215	10
244	810
245	130
246	10
