Mass Spectrum: N-Cyclohexyl-1,3-propanediamine
Formula: C9 H20 N2
CAS: 3312-60-5
Molecular weight: 156
Origin: Japan AIST/NIMC Database- Spectrum MS-NW-4048
m/z	RELATIVE INTENSITY
14	30
15	239
16	30
17	30
18	149
26	109
27	909
28	109
29	819
30	9989
31	279
36	10
37	30
38	60
39	949
40	179
41	3069
42	1289
43	1519
44	5979
45	599
46	40
50	50
51	139
52	109
53	459
54	809
55	2889
56	4839
57	4779
58	1789
59	169
60	10
62	10
63	30
64	10
65	90
66	70
67	479
68	1409
69	469
70	9999
71	799
72	90
73	1069
74	70
75	30
76	10
77	159
78	50
79	229
80	159
81	519
82	1439
83	1859
84	1069
85	359
86	30
87	30
91	50
92	20
93	60
94	169
95	70
96	1779
97	269
98	8009
99	859
100	1249
101	99
103	10
104	20
105	70
106	60
107	70
108	70
109	99
110	919
111	559
112	4499
113	4049
114	349
115	20
117	30
118	30
119	40
120	30
121	10
122	40
123	40
124	949
125	179
126	639
127	119
128	10
129	10
130	20
131	20
132	50
133	40
134	20
135	99
136	40
137	30
138	219
139	1559
140	209
141	40
153	20
154	20
155	70
156	529
157	60
