Mass Spectrum: 2,3,4-Trimethoxycinnamic acid
Formula: C12 H14 O5
CAS: 33130-03-9
Molecular weight: 238
Origin: NIST Mass Spectrometry Data Center, 1994
m/z	RELATIVE INTENSITY
4	28
14	35
15	1342
16	3
17	10
18	20
26	79
27	200
28	408
29	209
30	92
31	48
37	27
38	199
39	421
40	48
41	57
42	38
43	45
44	50
45	349
46	121
49	71
50	271
51	438
52	139
53	755
54	57
55	220
56	33
57	47
59	232
60	43
61	59
62	270
63	712
64	322
65	506
66	180
67	64
68	75
69	207
71	52
73	41
74	163
75	243
76	287
77	903
78	313
79	590
80	108
81	378
82	80
83	32
85	73
86	73
87	27
88	50
89	333
90	204
91	614
92	531
93	311
94	104
95	102
96	120
97	17
98	30
99	44
101	55
102	102
103	247
104	140
105	294
106	219
107	821
108	304
109	364
110	67
111	36
115	26
116	35
117	127
118	208
119	470
120	565
121	588
122	107
123	79
124	65
125	83
130	86
131	253
132	153
133	574
134	325
135	646
136	527
137	629
138	87
139	122
140	61
145	128
146	154
147	481
148	813
149	995
150	199
151	1391
152	186
153	163
154	69
159	82
160	40
161	405
162	40
163	5096
164	1240
165	418
166	90
167	143
168	41
173	38
174	23
175	111
176	23
177	688
178	918
179	3177
180	404
181	226
182	34
189	31
191	1913
192	927
193	206
194	71
195	103
205	106
206	773
207	6482
208	718
209	123
221	275
222	62
223	273
224	59
238	9999
239	1325
240	82
