Mass Spectrum: 3-Amino-4,5-dihydro-1-phenylpyrazole
Formula: C9 H11 N3
CAS: 3314-35-0
Molecular weight: 161
Origin: NIST Mass Spectrometry Data Center
m/z	RELATIVE INTENSITY
13	50
14	60
15	190
16	90
17	50
18	150
25	30
26	440
27	1461
28	4704
29	821
30	1051
31	60
32	80
36	30
37	330
38	741
39	1531
40	470
41	671
42	911
43	991
44	50
45	20
50	1511
51	4664
52	1411
53	510
54	1862
55	641
56	2402
57	400
58	80
61	110
62	290
63	981
64	1491
65	951
66	270
67	160
68	40
69	110
70	190
73	100
74	380
75	320
77	6456
78	1001
79	360
80	400
82	120
83	100
84	170
87	50
88	90
89	450
90	520
91	3473
92	2112
93	510
94	80
102	100
103	240
104	2012
105	751
106	550
107	340
108	280
109	20
114	50
115	230
116	2803
117	701
118	701
119	1211
120	821
121	120
128	30
129	70
130	290
131	1141
132	510
133	520
134	90
141	30
142	150
143	430
144	130
146	30
156	40
158	1952
159	6446
160	4634
161	9999
162	1151
163	50
