Mass Spectrum: Benzene, 4-chloro-2-iodo-1-methyl-
Formula: C7 H6 Cl I
CAS: 33184-48-4
Molecular weight: 252
Origin: NIST Mass Spectrometry Data Center, 1994
m/z	RELATIVE INTENSITY
15	83
25	53
26	285
27	329
35	115
36	171
37	768
38	1091
39	2944
40	268
41	78
43	162
44	86
47	108
48	86
49	600
50	1670
51	1270
52	199
60	243
61	1253
62	2819
63	5938
64	1000
65	426
71	60
72	225
73	1427
74	926
75	902
76	76
84	238
85	645
86	854
87	762
88	60
89	9999
90	2409
91	168
96	81
97	258
99	2019
100	148
101	551
102	48
123	216
124	1707
125	8798
126	1523
127	5047
128	468
152	40
217	865
218	51
252	7296
253	691
254	2231
255	201
