Mass Spectrum: tri(2-Ethylhexyl) trimellitate
Formula: C33 H54 O6
CAS: 3319-31-1
Molecular weight: 546
Origin: NIST Mass Spectrometry Data Center, 1998.
m/z	RELATIVE INTENSITY
27	140
29	500
30	10
31	10
38	10
39	170
40	20
41	1710
42	320
43	2600
44	90
50	10
51	10
52	10
53	110
54	100
55	1900
56	880
57	5779
58	250
59	20
64	20
65	110
66	10
67	130
68	130
69	910
70	2770
71	3200
72	190
73	10
74	10
75	90
76	70
77	30
78	10
79	40
81	100
82	270
83	1210
84	660
85	70
91	10
92	30
93	30
95	40
96	10
97	130
98	20
99	10
102	20
103	230
104	270
105	50
106	10
107	10
109	40
110	60
111	60
112	1480
113	1700
114	140
115	20
117	10
118	10
119	30
120	140
121	240
122	50
128	10
129	20
131	40
132	40
133	10
134	10
135	10
137	20
145	10
147	80
148	930
149	360
150	40
159	20
161	20
162	20
163	10
165	120
166	160
167	50
175	140
176	360
177	90
178	20
179	30
189	10
190	10
191	10
193	3710
194	560
195	80
203	10
204	10
205	10
206	10
207	40
208	10
211	760
212	70
213	10
220	10
223	30
224	10
233	20
234	10
247	10
248	10
260	90
261	50
262	10
275	10
276	10
278	20
279	20
288	40
289	10
303	10
305	9999
306	1950
307	280
308	30
319	10
323	1690
324	300
325	50
417	330
418	100
419	10
435	740
436	190
437	30
