Mass Spectrum: Acetamide, N-(4-methoxyphenyl)-2,2,2-trifluoro-
Formula: C9 H8 F3 N O2
CAS: 332-34-3
Molecular weight: 219
Origin: Zaikin V.G., TIPS RAS, Moscow, Russia
m/z	RELATIVE INTENSITY
26	30
27	30
28	60
38	40
39	90
41	140
44	30
50	80
51	160
52	390
53	210
54	120
61	40
62	50
63	190
64	210
65	150
67	60
69	721
75	160
76	60
77	170
78	190
79	210
80	130
81	210
83	70
90	70
91	130
92	140
93	20
95	611
96	110
97	40
102	50
106	260
107	150
108	50
109	1311
110	90
121	40
122	4364
123	370
124	210
128	150
134	470
135	50
148	60
149	561
150	240
156	60
157	120
168	30
171	140
172	50
176	40
188	30
200	50
204	1421
205	160
218	30
219	9999
220	1011
221	80
