Mass Spectrum: Piperidine, 1-(2-phenylethyl)-
Formula: C13 H19 N
CAS: 332-14-9
Molecular weight: 189
Origin: Japan AIST/NIMC Database- Spectrum MS-IW- 866
m/z	RELATIVE INTENSITY
15	10
27	50
28	50
29	40
30	99
39	60
41	349
42	369
43	40
44	259
50	10
51	50
52	20
53	20
54	20
55	419
56	70
57	10
63	10
65	50
67	20
68	30
69	199
70	259
71	10
77	129
78	50
79	99
80	10
81	10
82	10
83	40
84	30
89	10
91	90
92	10
96	199
97	30
98	9999
99	709
100	20
102	10
103	90
104	119
105	219
106	20
117	10
130	10
186	10
187	20
188	40
189	20
