Mass Spectrum: 3,4,5-Trichloropyridine
Formula: C5 H2 Cl3 N
CAS: 33216-52-3
Molecular weight: 181
Origin: NIST Mass Spectrometry Data Center
m/z	RELATIVE INTENSITY
12	170
13	80
17	30
24	120
25	240
26	120
27	70
28	120
33	50
35	801
36	540
37	1241
38	360
39	100
40	90
47	811
48	641
49	2863
50	330
51	240
52	70
56	571
59	60
60	571
61	170
62	390
63	90
71	310
72	631
73	190
74	430
75	1181
76	220
77	460
78	380
79	190
82	90
84	4674
85	711
86	1601
87	180
90	130
91	110
94	300
95	60
96	260
98	80
106	90
107	140
109	300
110	2913
111	310
112	1051
118	430
119	2442
120	360
121	1411
122	110
123	290
144	100
146	4994
147	530
148	3223
149	190
150	540
154	470
155	110
156	480
158	130
181	9999
182	791
183	9519
184	641
185	3353
186	170
187	370
