Mass Spectrum: Glycyl-L-phenyl alanine
Formula: C11 H14 N2 O3
CAS: 3321-03-7
Molecular weight: 222
Origin: Japan AIST/NIMC Database- Spectrum MS-NW-2034
m/z	RELATIVE INTENSITY
12	10
14	20
15	50
16	50
17	99
18	389
26	50
27	289
28	1019
29	279
30	9999
31	549
32	50
36	20
37	20
38	70
39	429
40	60
41	259
42	179
43	179
44	569
45	70
46	40
47	10
49	10
50	159
51	409
52	119
53	60
54	50
55	109
56	70
57	169
58	109
59	169
60	50
61	30
62	80
63	239
64	70
65	719
66	60
67	50
68	40
69	99
70	60
71	50
72	10
73	80
74	809
75	309
76	80
77	489
78	259
79	189
80	30
81	40
82	30
83	50
84	109
85	599
86	50
87	40
88	20
89	209
90	189
91	5619
92	979
93	109
94	20
95	30
96	20
97	40
98	50
99	20
100	10
101	30
102	149
103	589
104	439
105	179
106	40
107	119
108	20
109	20
110	20
111	30
112	30
113	129
114	30
115	50
116	90
117	379
118	449
119	499
120	1149
121	129
122	10
123	10
124	10
125	20
126	10
127	10
128	109
129	149
130	199
131	439
132	239
133	149
134	20
135	10
136	20
137	10
140	10
142	10
143	30
144	30
145	60
146	139
147	589
148	1169
149	189
150	30
151	10
152	10
154	10
155	10
156	20
157	40
158	50
159	40
160	30
161	219
162	40
163	20
164	20
165	20
166	40
167	10
169	10
170	10
171	10
172	20
173	30
174	50
175	60
176	159
177	90
178	1319
179	169
180	20
185	20
186	60
187	60
188	20
189	20
191	10
192	149
193	339
194	40
199	10
200	10
201	10
202	50
203	20
204	659
205	119
206	10
220	10
222	159
223	30
