Mass Spectrum: Glycine, N,N-dimethyl-, ethyl ester
Formula: C6 H13 N O2
CAS: 33229-89-9
Molecular weight: 131
Origin: Japan AIST/NIMC Database- Spectrum MS-NW-1038
m/z	RELATIVE INTENSITY
14	30
15	319
18	20
19	10
26	30
27	179
28	80
29	279
30	449
31	70
40	30
41	90
42	849
43	169
44	309
45	50
55	10
56	70
57	229
58	9999
59	399
60	20
72	70
74	60
100	30
102	40
130	20
131	669
132	50
