Mass Spectrum: p-Pentylaniline
Formula: C11 H17 N
CAS: 33228-44-3
Molecular weight: 163
Origin: NIST Mass Spectrometry Data Center, 1994
m/z	RELATIVE INTENSITY
14	15
15	85
16	9
17	10
26	86
27	682
28	422
29	644
30	135
39	552
40	91
41	498
42	115
43	54
44	2
50	70
51	259
52	245
53	212
54	132
55	35
56	8
57	25
59	21
61	10
62	41
63	128
64	76
65	314
66	142
67	64
68	9
69	5
72	9
74	18
75	22
77	818
78	378
79	475
80	151
81	13
87	7
89	110
90	43
91	193
92	164
93	191
94	60
95	6
101	9
102	32
103	71
104	169
105	6
106	9999
107	1127
108	58
114	4
115	54
116	22
117	104
118	160
119	159
120	122
121	38
127	6
128	7
130	52
131	18
132	64
133	21
134	16
135	5
163	1168
164	130
