Mass Spectrum: Octadecyl nicotinate
Formula: C24 H41 N O2
CAS: 33233-29-3
Molecular weight: 375
Origin: Zaikin V.G., TIPS RAS, Moscow, Russia
m/z	RELATIVE INTENSITY
26	130
27	240
28	200
29	511
39	280
40	70
41	1451
42	330
43	2042
44	110
50	130
51	450
52	140
53	130
54	320
55	1782
56	581
57	1341
58	60
65	40
67	430
68	290
69	1061
70	350
71	470
73	70
77	150
78	1431
79	1832
80	460
81	310
82	230
83	691
84	200
85	250
91	30
93	290
94	50
95	190
96	150
97	531
98	120
99	60
105	190
106	2352
107	3794
108	300
109	120
111	190
112	40
113	30
119	60
120	120
121	170
122	30
123	210
124	9999
125	721
126	50
134	30
135	30
137	200
138	30
139	40
149	60
150	70
151	420
152	30
162	40
163	90
164	270
165	400
177	30
178	581
179	190
192	601
193	70
206	651
207	320
208	30
218	30
219	40
220	571
221	180
233	30
234	641
235	140
248	821
249	80
262	911
263	160
276	911
277	210
282	50
288	30
290	871
291	180
303	30
304	841
305	160
318	851
319	170
330	40
331	160
332	791
333	170
346	611
347	120
360	160
374	260
375	420
376	90
