Mass Spectrum: Fluchloralin
Formula: C12 H13 Cl F3 N3 O4
CAS: 33245-39-5
Molecular weight: 355
Origin: NIST Mass Spectrometry Data Center, 1995
m/z	RELATIVE INTENSITY
12	21
14	49
15	229
16	43
17	55
18	53
19	15
27	5026
28	1033
29	1178
30	1289
31	109
32	48
35	29
36	67
37	46
38	139
39	949
40	29
41	3214
42	651
43	5066
44	266
45	53
46	70
49	377
50	189
51	342
52	309
53	121
54	138
55	136
56	232
57	772
58	44
59	58
61	126
63	7363
64	560
65	2303
66	114
67	32
68	32
69	528
70	99
72	19
73	37
74	203
75	633
76	354
77	267
78	156
79	66
80	50
81	235
82	90
83	77
84	29
87	73
88	236
89	280
90	162
91	106
92	102
93	138
94	112
95	310
96	85
97	38
98	23
99	106
100	65
101	128
102	218
103	198
104	114
105	672
106	116
107	173
108	132
109	170
110	40
111	32
112	78
113	210
114	150
115	111
116	104
117	156
118	180
119	173
120	177
121	113
122	62
123	206
124	78
125	364
126	526
127	305
128	106
129	76
130	160
131	461
132	284
133	285
134	126
135	90
136	38
137	66
138	229
139	235
140	374
141	207
142	38
143	496
144	475
145	1141
146	342
147	231
148	165
149	69
150	42
151	244
152	218
153	774
154	120
155	37
156	58
157	102
158	404
159	789
160	745
161	206
162	68
163	62
164	72
165	102
166	220
167	135
168	55
169	91
170	95
171	321
172	582
173	418
174	442
175	109
176	146
177	34
178	81
179	90
180	37
181	64
182	47
183	76
184	124
185	301
186	556
187	593
188	342
189	347
190	131
191	35
192	31
193	27
194	23
196	36
197	93
198	370
199	296
200	253
201	489
202	585
203	97
204	29
205	23
206	565
207	34
211	59
212	155
213	209
214	305
215	171
216	95
217	213
218	218
219	98
220	99
221	31
222	17
225	42
226	57
227	72
228	148
229	88
230	91
231	168
232	335
233	107
234	131
235	43
236	29
237	23
239	35
240	34
241	51
242	25
243	37
244	132
245	83
246	37
247	182
248	1046
249	106
250	34
255	61
256	23
257	37
258	56
259	57
260	159
261	37
262	25
263	23
264	4944
265	525
266	71
274	32
276	32
277	25
278	49
280	106
281	24
287	39
289	185
290	36
294	226
295	33
296	178
297	120
298	64
299	37
306	9999
307	1245
308	185
309	33
310	1800
311	240
312	605
313	49
320	55
321	27
322	85
323	28
324	36
325	27
326	9095
327	1225
328	3284
329	438
330	54
336	674
337	117
338	620
339	82
340	146
355	535
356	91
357	190
358	30
