Mass Spectrum: Hexane, 1-chloro-5-methyl-
Formula: C7 H15 Cl
CAS: 33240-56-1
Molecular weight: 134
Origin: NIST Mass Spectrometry Data Center, 1990.
m/z	RELATIVE INTENSITY
14	14
15	157
26	243
27	1783
28	154
29	1046
38	236
39	2537
40	655
41	5832
42	3649
43	7283
44	253
49	575
50	163
51	497
52	108
53	629
54	108
55	6500
56	1552
57	1164
58	62
61	87
62	147
63	356
65	174
67	246
68	62
69	446
70	134
75	100
77	376
79	146
83	2081
84	126
91	9999
92	596
93	3274
94	127
97	106
119	87
