Mass Spectrum: 1-(2-Nitrophenyl)pyrrole
Formula: C10 H8 N2 O2
CAS: 33265-60-0
Molecular weight: 188
Origin: NIST Mass Spectrometry Data Center, 1994
m/z	RELATIVE INTENSITY
12	94
13	18
16	48
17	40
18	152
25	81
26	1206
27	1255
28	1309
29	18
30	4203
37	1334
38	3111
39	9999
40	1638
41	202
42	228
46	364
50	7244
51	6917
52	2504
53	608
54	297
55	3630
56	1672
57	202
58	732
61	519
62	1828
63	4851
64	2378
65	2296
66	428
67	264
68	2021
69	94
70	94
71	518
73	137
74	1028
75	2033
76	2860
77	7482
78	2947
79	1083
80	378
82	110
83	404
84	1122
85	157
86	298
87	703
88	1094
89	4733
90	1731
91	1009
92	974
93	177
99	82
100	88
101	391
102	2054
103	2629
104	1676
105	2753
106	937
107	216
113	900
114	1342
115	3970
116	1994
117	656
118	3843
119	910
120	95
127	75
128	845
129	1618
130	1175
131	2844
132	718
133	125
134	156
135	56
140	990
141	595
143	4013
144	635
145	138
146	47
147	208
155	76
156	89
157	249
158	1292
159	394
160	58
171	5247
172	684
188	2644
189	367
190	38
