Mass Spectrum: Iron, tricarbonyl[(1,2,3,4-.eta.<4>)-1,3-cyclooctadiene]-
Formula: C11 H12 Fe O3
CAS: 33270-50-7
Molecular weight: 248
Origin: D.HENNEBERG, MAX-PLANCK INSTITUTE, MULHEIM, WEST GERMANY
m/z	RELATIVE INTENSITY
27	869
28	9999
29	149
32	69
38	69
39	1539
40	139
41	1179
42	29
43	79
50	179
51	500
52	269
53	369
54	600
55	129
56	719
57	59
63	89
65	509
66	639
67	1919
68	59
77	1159
78	519
79	3929
80	1779
81	109
82	29
84	49
91	849
92	39
93	1700
94	69
96	19
105	39
106	9
107	59
108	1359
109	69
110	259
121	39
122	9
134	739
135	29
136	339
158	3
160	9
162	259
164	439
190	29
192	239
220	169
