Mass Spectrum: .alpha.-D-Glucopyranose, 5TMS derivative
Formula: C21 H52 O6 Si5
CAS: 3327-61-5
Molecular weight: 540
m/z	RELATIVE INTENSITY
45	400
59	200
72	200
73	8908
74	701
75	701
89	200
101	100
103	601
117	601
129	801
130	200
131	300
133	500
143	100
147	2402
148	500
149	300
189	300
190	100
191	4004
192	801
193	400
203	300
204	9999
205	2102
206	901
207	100
217	1702
218	601
219	300
221	100
229	40
230	50
231	300
232	70
233	70
234	10
242	30
243	140
244	40
245	40
246	10
247	20
257	20
259	10
265	80
266	20
267	10
271	50
272	10
273	20
277	10
278	20
279	20
291	200
292	60
293	40
294	10
303	20
304	30
305	250
306	90
307	60
308	10
317	100
318	50
319	120
320	40
321	40
322	10
331	30
332	60
333	40
334	20
345	100
346	30
347	40
348	10
361	100
362	30
363	20
379	30
393	110
394	40
395	20
405	10
407	10
435	170
436	80
437	50
438	10
525	10
