Mass Spectrum: Androst-5-ene-3.beta.,16.beta.-diol, 2TMS derivative
Formula: C25 H46 O2 Si2
CAS: 33283-05-5
Molecular weight: 434
m/z	RELATIVE INTENSITY
41	444
43	296
45	741
54	963
59	296
61	481
67	741
69	370
73	8592
74	815
75	5555
76	370
77	593
79	1259
81	1555
91	2370
92	370
93	2592
94	370
95	1370
101	444
103	370
105	1666
106	370
107	2407
108	370
109	741
115	370
117	741
119	2963
120	1111
121	1666
129	9999
130	1926
131	2222
132	555
133	1629
143	1778
144	593
145	5111
146	815
147	815
149	296
155	593
156	370
157	1296
158	370
159	1296
160	444
161	1296
162	296
169	593
171	667
172	370
173	1111
181	370
182	296
183	555
185	444
186	370
187	630
195	555
196	185
197	518
199	852
211	370
212	296
213	2148
214	370
215	8444
216	2111
239	4518
240	741
253	593
254	1926
255	481
303	259
304	963
305	2481
306	741
329	2222
330	444
344	5814
345	1926
346	296
419	1629
420	555
421	296
434	5111
435	1555
436	444
