Mass Spectrum: 1,1'-Biphenyl, 2,4-dichloro-
Formula: C12 H8 Cl2
CAS: 33284-50-3
Molecular weight: 222
Origin: NIST Mass Spectrometry Data Center, 1998.
m/z	RELATIVE INTENSITY
26	20
27	50
35	10
36	10
37	40
38	70
39	180
40	10
47	10
49	60
50	400
51	440
52	90
53	10
55	10
56	10
60	20
61	150
62	340
63	440
64	30
65	10
67	20
68	20
72	30
73	160
74	560
75	1090
76	820
77	190
78	30
79	10
80	180
81	70
83	10
84	70
85	160
86	240
87	240
88	50
89	40
93	930
94	330
96	20
97	110
98	400
99	430
100	120
101	120
102	150
103	20
104	10
107	10
108	40
109	100
110	150
111	470
112	250
113	170
114	40
115	20
120	20
121	40
122	100
123	160
124	80
125	250
126	430
127	70
128	10
132	10
133	20
134	30
135	80
136	60
137	60
138	30
139	20
144	10
145	10
146	20
147	70
148	90
149	180
150	1230
151	1640
152	5749
153	760
154	40
157	10
159	50
160	100
161	70
162	80
163	20
164	10
170	80
171	10
172	60
173	30
174	10
175	10
183	70
184	30
185	80
186	790
187	220
188	280
189	70
190	10
194	20
195	10
196	70
197	10
198	40
200	10
207	10
209	10
220	30
222	9999
223	1450
224	6729
225	900
226	1160
227	140
228	10
