Mass Spectrum: Androst-5-ene-3,11,17-triol, (3.beta.,11.beta.,17.beta.)-, 3TMS derivative
Formula: C28 H54 O3 Si3
CAS: 33287-29-5
Molecular weight: 522
m/z	RELATIVE INTENSITY
41	170
43	150
44	60
45	360
46	20
47	80
50	20
51	20
52	20
53	60
54	20
55	380
56	20
57	80
58	20
59	250
60	60
61	170
62	20
63	20
65	20
66	20
67	290
68	20
69	170
70	20
71	40
72	130
73	9999
74	781
75	2722
76	170
77	190
78	20
79	420
80	110
81	320
82	60
83	80
84	20
85	110
87	60
88	20
89	150
90	20
91	861
92	170
93	631
94	130
95	380
96	60
97	60
98	20
99	60
101	380
102	60
103	591
104	110
105	971
106	290
107	821
108	150
109	150
110	20
111	40
113	60
114	20
115	420
116	170
117	550
118	170
119	971
120	360
121	230
122	40
123	40
124	20
125	20
126	20
127	110
128	130
129	2112
130	611
131	1031
132	420
133	550
134	110
135	80
136	20
137	20
139	20
140	20
141	230
142	210
143	1772
144	611
145	911
146	360
147	510
148	150
149	130
150	20
151	60
152	20
153	60
154	60
155	591
156	320
157	881
158	380
159	420
160	130
161	80
162	20
163	40
164	20
165	110
166	60
167	190
168	150
169	1601
170	550
171	1051
172	380
173	230
174	40
175	40
176	20
177	40
178	20
179	130
180	80
181	631
182	440
183	480
184	270
185	400
186	130
187	170
188	40
189	20
190	20
191	190
192	60
193	170
194	150
195	671
196	420
197	801
198	290
199	380
200	130
201	40
202	20
203	20
204	40
205	60
206	40
207	400
208	130
209	360
210	270
211	911
212	290
213	1541
214	320
215	60
217	60
218	20
219	80
220	40
221	190
222	130
223	270
224	320
225	230
226	420
227	110
228	20
229	20
230	20
231	60
232	40
233	110
234	60
235	110
236	110
237	1852
238	400
239	150
240	20
241	20
243	20
244	40
245	40
246	40
247	170
248	80
249	80
250	20
251	190
252	1331
253	380
254	60
255	40
256	20
257	20
259	40
260	20
261	60
262	80
263	20
267	20
269	40
270	20
271	20
272	20
273	60
274	40
275	60
276	20
277	20
281	60
282	20
283	20
284	20
285	60
286	80
287	150
288	80
289	80
290	60
291	20
295	20
297	20
299	40
300	40
301	250
302	110
303	761
304	170
305	40
309	20
310	20
311	110
312	40
313	60
314	110
315	110
316	130
317	40
318	20
321	20
323	20
324	60
325	60
326	40
327	1471
328	460
329	170
330	40
331	20
337	110
338	60
339	40
340	20
341	80
342	1311
343	440
344	130
345	20
355	20
356	20
357	20
358	20
359	20
360	20
363	20
364	20
365	20
375	20
377	110
378	60
379	60
389	20
390	40
391	270
392	150
393	130
394	60
395	20
403	20
404	170
405	60
406	60
407	20
415	20
416	20
417	881
418	340
419	150
420	20
429	20
430	20
431	80
432	1892
433	761
434	340
435	80
436	20
493	20
494	20
507	60
508	20
509	20
520	40
521	60
522	671
523	400
524	150
525	20
526	20
