Mass Spectrum: 25-Hydroxycholesterol, 2TMS derivative
Formula: C33 H62 O2 Si2
CAS: 33287-27-3
Molecular weight: 546
Origin: NIST Mass Spectrometry Data Center, 2010
m/z	RELATIVE INTENSITY
27	10
29	30
39	30
40	10
41	170
42	20
43	170
44	20
45	140
46	10
47	80
51	10
53	40
54	10
55	460
56	40
57	80
58	20
59	70
60	20
61	130
63	10
65	20
66	10
67	230
68	40
69	430
70	30
71	40
73	2632
74	280
75	2042
76	150
77	140
78	20
79	260
80	40
81	631
82	60
83	140
84	10
85	30
87	10
88	10
89	80
91	360
92	70
93	410
94	90
95	621
96	60
97	130
98	10
99	30
100	10
101	60
102	10
103	60
104	30
105	460
106	120
107	550
108	100
109	400
110	40
111	220
112	20
113	30
115	180
116	60
117	220
118	70
119	550
120	250
121	500
122	80
123	150
124	20
125	20
126	10
127	20
128	40
129	1872
130	340
131	9999
132	1241
133	831
134	130
135	240
136	40
137	90
138	10
139	10
140	10
141	40
142	40
143	370
144	110
145	490
146	130
147	320
148	100
149	190
150	30
151	40
152	10
153	10
154	10
155	120
156	40
157	180
158	110
159	390
160	170
161	300
162	60
163	150
164	30
165	30
166	10
167	20
168	10
169	60
170	20
171	100
172	50
173	190
174	60
175	120
176	20
177	80
178	10
179	20
180	10
181	40
182	30
183	40
184	20
185	90
186	30
187	80
188	30
189	180
190	30
191	30
192	10
193	20
194	10
195	30
196	30
197	60
198	30
199	90
200	20
201	80
202	20
203	50
204	20
205	20
209	10
211	40
212	10
213	120
214	40
215	210
216	40
217	130
218	30
219	20
221	10
225	10
226	10
227	30
228	30
229	40
231	30
232	10
233	10
235	10
237	10
239	40
240	10
241	30
242	10
243	40
244	20
245	110
246	20
247	10
250	10
251	10
253	60
254	20
255	140
256	30
257	30
258	10
259	10
267	20
268	10
269	10
270	10
271	631
272	150
273	30
274	10
281	10
282	10
283	10
284	10
286	10
287	10
295	140
296	40
297	10
299	10
303	10
309	20
310	50
311	20
312	10
323	10
324	10
325	10
326	10
327	340
328	80
329	20
343	40
344	10
345	10
351	90
352	20
353	10
365	20
366	50
367	30
368	10
372	10
385	30
386	10
387	10
389	10
399	10
400	40
401	10
402	10
414	30
415	20
416	90
417	30
418	10
428	10
441	90
442	40
443	10
455	10
456	260
457	100
458	30
531	50
532	20
533	10
546	90
547	40
548	10
