Mass Spectrum: Thiophene, 2,4-diphenyl-
Formula: C16 H12 S
CAS: 3328-86-7
Molecular weight: 236
m/z	RELATIVE INTENSITY
39	1301
45	801
50	801
51	1301
63	1001
69	500
77	1101
89	1101
102	601
115	901
118	601
121	1401
134	1001
139	300
165	500
189	801
191	1201
202	1001
203	500
234	1301
235	801
236	9999
237	2002
238	601
