Mass Spectrum: 3,16,20-Tris[(trimethylsilyl)oxy]-5.alpha-pregnane, (3.beta.,16.alpha.,20.alpha.)-
Formula: C30 H60 O3 Si3
CAS: 33287-36-4
Molecular weight: 552
Origin: STER PREG TMSI L SE30 01 2998 E M.HORN
m/z	RELATIVE INTENSITY
41	550
42	100
43	500
44	200
45	487
47	218
53	275
55	1050
56	100
57	175
58	100
59	400
60	100
61	400
65	100
67	1050
68	200
69	1100
70	100
71	100
72	218
73	9999
74	1350
75	7700
76	600
77	550
78	100
79	875
80	150
81	1450
82	275
83	350
85	100
87	100
89	250
91	1050
92	200
93	1600
94	300
95	1500
96	200
97	200
99	100
101	400
103	475
105	1250
106	406
107	1600
108	350
109	650
110	100
111	106
113	106
115	250
116	306
117	9999
118	1450
119	1325
120	400
121	750
122	150
123	200
127	175
128	100
129	1000
130	406
131	750
132	206
133	1300
134	287
135	575
141	5418
142	918
143	1250
144	225
145	650
146	200
147	3900
148	700
149	800
150	100
155	400
156	4750
157	2600
158	500
159	618
160	200
161	600
162	150
163	250
167	106
168	106
169	300
170	450
171	275
172	100
173	375
174	150
175	350
181	200
182	100
183	1606
184	300
185	218
186	100
187	300
188	100
189	200
191	1500
192	300
193	206
195	300
196	287
197	300
199	175
201	206
207	300
208	100
209	175
213	175
215	306
216	275
217	800
218	150
219	100
221	100
227	100
229	100
231	300
241	175
267	206
281	150
283	400
284	100
305	150
331	100
332	100
357	300
358	100
372	500
373	250
374	100
419	218
420	106
447	2418
448	918
449	400
450	106
462	6100
463	2418
464	1000
465	250
466	100
537	200
538	100
539	50
552	75
553	25
