Mass Spectrum: 3.beta.,4.beta.-Bis(trimethylsiloxy)cholest-5-ene
Formula: C33 H62 O2 Si2
CAS: 33287-25-1
Molecular weight: 546
Origin: NIST Mass Spectrometry Data Center
m/z	RELATIVE INTENSITY
14	30
26	30
27	100
28	160
29	300
39	100
40	50
41	1001
42	150
43	2512
44	80
45	230
47	40
52	20
53	100
54	50
55	1551
56	490
57	2312
58	150
59	170
60	30
61	70
65	70
67	741
68	120
69	1581
70	340
71	1271
72	180
73	9999
74	831
75	1141
76	40
77	230
78	40
79	761
80	110
81	1481
82	160
83	841
84	90
85	240
86	40
87	30
89	50
91	1021
92	160
93	1111
94	250
95	2002
96	200
97	470
98	40
99	90
101	130
102	30
103	1361
104	240
105	1621
106	450
107	1121
108	250
109	901
110	100
111	370
112	40
113	90
114	20
115	260
116	170
117	891
118	561
119	1371
120	310
121	881
122	190
123	490
124	530
125	190
126	20
127	100
128	160
129	3213
130	601
131	1501
132	520
133	1812
134	460
135	1211
136	170
137	260
138	70
139	80
140	20
141	170
142	210
143	1942
144	781
145	1251
146	370
147	4894
148	811
149	1121
150	150
151	200
152	40
153	90
154	240
155	390
156	550
157	1131
158	1451
159	1381
160	410
161	510
162	80
163	250
164	60
165	250
166	50
167	320
168	190
169	1201
170	310
171	540
172	250
173	671
174	140
175	320
176	60
177	200
178	40
179	480
180	200
181	490
182	280
183	410
184	120
185	290
186	90
187	330
188	70
189	110
190	30
191	661
192	170
193	1001
194	470
195	731
196	310
197	350
198	120
199	270
200	70
201	300
202	70
203	70
204	50
205	160
206	120
207	430
208	340
209	300
210	60
211	510
212	180
213	260
214	80
215	290
216	50
217	200
218	60
219	190
220	80
221	130
222	110
223	50
224	20
225	80
226	120
227	180
228	50
229	170
230	60
231	90
232	30
233	160
234	70
235	80
236	30
237	40
238	10
239	70
240	30
241	90
242	20
243	140
244	50
245	130
246	60
247	340
248	170
249	100
250	20
251	40
252	30
253	701
254	190
255	90
256	40
257	80
258	20
259	160
260	130
261	430
262	130
263	50
269	80
270	120
271	80
273	50
274	30
275	60
276	10
281	80
282	50
283	160
284	80
285	150
286	60
287	60
289	50
291	20
296	20
297	60
298	40
299	60
300	30
301	60
302	30
303	40
304	20
309	30
310	20
311	80
312	40
314	20
315	10
317	30
321	10
325	110
326	170
327	1061
328	240
329	40
331	20
338	20
339	30
340	150
341	70
342	40
343	90
346	10
347	20
348	10
349	40
350	40
351	250
352	90
353	340
354	110
357	30
360	10
361	10
362	170
363	70
364	10
365	40
366	2432
367	841
368	130
369	40
370	20
371	30
372	20
373	20
374	10
375	30
376	70
377	40
378	10
384	70
388	40
389	30
390	10
399	20
400	20
405	20
413	10
414	20
415	220
416	130
417	1001
418	350
419	90
420	20
427	20
428	30
430	250
431	70
432	20
437	10
439	20
441	490
442	190
443	170
444	50
454	10
455	60
456	1762
457	621
458	220
459	40
530	10
531	180
532	90
533	30
546	300
547	140
548	40
