Mass Spectrum: Flurothyl
Formula: C4 H4 F6 O
CAS: 333-36-8
Molecular weight: 182
Origin: Chuck Anderson, Aldrich Chemical Co.
m/z	RELATIVE INTENSITY
14	8
15	14
26	17
28	7
29	535
30	82
31	765
32	105
33	2152
34	22
42	8
43	47
44	149
45	133
47	16
49	35
50	130
51	352
60	30
61	1841
62	53
63	675
64	627
65	160
68	10
69	813
70	3
78	6
79	50
80	21
81	111
82	103
83	6410
84	142
93	40
101	39
111	3
112	121
113	9999
114	322
115	25
131	98
162	9
163	630
164	26
181	10
182	61
183	4
