Mass Spectrum: Ferrocene, 1,1',2,2',3,3'-hexachloro-
Formula: C10 H4 Cl6 Fe
CAS: 33306-55-7
Molecular weight: 390
Origin: L D SMITHSON
m/z	RELATIVE INTENSITY
56	352
61	880
62	1585
72	422
73	417
83	326
91	1297
93	378
96	639
97	5319
98	600
99	1773
107	684
109	456
117	587
122	248
123	248
131	209
132	417
133	300
134	235
152	222
153	874
155	274
159	352
167	1799
169	1786
171	613
194	2660
195	378
196	1669
197	248
198	326
223	1669
225	1669
227	522
228	443
229	1134
230	522
231	1069
232	254
233	326
264	3220
265	424
266	4003
267	482
268	1995
269	261
270	456
356	222
388	365
390	5658
391	815
392	9999
393	1369
394	7901
395	1199
396	3442
397	456
398	860
