Mass Spectrum: 2-Propanamine, N-(1-methylethylidene)-
Formula: C6 H13 N
CAS: 3332-08-9
Molecular weight: 99
Origin: D.HENNEBERG, MAX-PLANCK INSTITUTE, MULHEIM, WEST GERMANY
m/z	RELATIVE INTENSITY
27	509
28	867
29	129
30	86
31	13
38	9
39	396
40	121
41	1696
42	9999
43	1815
44	407
45	11
50	4
51	6
52	10
53	12
54	73
55	66
56	208
57	216
58	373
59	18
65	10
66	10
67	40
68	203
69	194
70	89
71	78
72	5
77	5
79	13
80	7
81	12
82	61
83	102
84	8464
85	490
86	39
96	7
97	11
98	531
99	1467
100	136
101	11
