Mass Spectrum: Tetramethylbutanedinitrile
Formula: C8 H12 N2
CAS: 3333-52-6
Molecular weight: 136
Origin: NIST Mass Spectrometry Data Center, 1998.
m/z	RELATIVE INTENSITY
14	10
15	90
26	120
27	550
28	310
29	90
30	10
37	70
38	240
39	1760
40	470
41	3490
42	2350
43	190
49	10
50	60
51	450
52	1120
53	560
54	3230
55	240
56	10
62	20
63	50
64	260
65	170
66	410
67	440
68	4540
69	9999
70	480
71	10
75	10
76	30
77	60
78	90
79	60
80	290
81	50
82	20
90	10
91	20
92	20
93	70
94	380
95	30
96	10
104	10
105	40
106	20
107	10
110	10
119	10
120	10
121	340
122	20
137	20
