Mass Spectrum: Benzene, 1-methyl-4-(2-propenyl)-
Formula: C10 H12
CAS: 3333-13-9
Molecular weight: 132
Origin: NIST Mass Spectrometry Data Center, 1990.
m/z	RELATIVE INTENSITY
15	118
26	132
27	592
28	222
32	45
37	56
38	242
39	1342
40	145
41	225
50	651
51	1375
52	373
53	437
58	125
61	110
62	398
63	1100
64	669
65	1327
66	116
73	44
74	289
75	270
76	286
77	1813
78	754
79	766
80	50
86	107
87	126
89	581
91	3319
92	356
98	48
101	69
102	361
103	801
104	439
105	1455
106	137
115	4507
116	1765
117	9999
118	1056
126	69
127	293
128	589
129	660
130	186
131	1680
132	5303
133	587
