Mass Spectrum: 4-Imidazolidinone, 5-methyl-2-thioxo-
Formula: C4 H6 N2 O S
CAS: 33368-94-4
Molecular weight: 130
Origin: T.SUZUKI FAC. OF AGRI., TOHOKU UNIV., SENDAI, JAPAN
m/z	RELATIVE INTENSITY
41	1370
42	2710
43	430
44	1660
45	510
56	510
57	770
58	450
59	1780
60	2740
61	710
69	510
74	570
86	1520
89	380
102	2110
104	380
130	9999
131	770
132	700
