Mass Spectrum: 3,5-Dibromo-4-hydroxybenzoic acid
Formula: C7 H4 Br2 O3
CAS: 3337-62-0
Molecular weight: 294
Origin: Japan AIST/NIMC Database- Spectrum MS-IW- 60
m/z	RELATIVE INTENSITY
17	10
18	40
25	10
26	10
28	60
29	30
31	20
36	20
37	139
38	90
39	60
44	40
45	129
49	30
50	80
51	259
52	70
53	339
54	30
55	40
60	70
61	429
62	829
63	629
64	80
65	30
66	50
69	40
70	70
71	70
72	30
73	60
74	90
75	10
77	20
78	10
79	189
80	99
81	30
82	70
84	60
85	129
86	109
89	20
90	409
91	299
92	80
93	30
94	20
98	20
99	20
105	10
106	20
107	50
108	60
109	10
110	20
111	50
112	20
116	30
117	90
118	40
119	99
120	10
124	20
125	30
126	20
129	30
130	30
131	90
132	30
133	229
134	319
135	169
136	20
138	50
139	99
140	50
141	179
142	109
143	219
144	70
145	50
147	30
148	60
149	30
157	10
158	40
159	90
160	40
161	70
169	199
170	439
171	239
172	429
173	40
185	10
186	30
187	30
188	30
189	20
197	169
198	10
199	179
200	10
201	20
211	10
214	10
215	10
216	40
217	10
218	20
220	10
221	109
222	30
223	209
224	20
225	99
237	40
239	80
241	40
248	40
249	339
250	119
251	669
252	129
253	329
254	50
265	10
266	20
267	10
268	40
269	10
270	20
276	10
277	3169
278	279
279	6189
280	499
281	3059
282	229
283	20
293	20
294	5089
295	449
296	9999
297	809
298	4929
299	389
300	40
