Mass Spectrum: Methane, diazo-
Formula: C H2 N2
CAS: 334-88-3
Molecular weight: 42
m/z	RELATIVE INTENSITY
12	1102
13	2205
14	9999
15	252
26	126
27	583
28	1795
29	205
40	220
41	1102
42	4252
43	110
