Mass Spectrum: trans-2-Decenoic acid
Formula: C10 H18 O2
CAS: 334-49-6
Molecular weight: 170
Origin: NIST Mass Spectrometry Data Center
m/z	RELATIVE INTENSITY
15	70
17	10
18	60
20	20
26	170
27	2732
29	3894
30	100
31	180
36	50
37	40
38	150
39	3263
40	641
41	7307
42	2142
43	9999
44	460
45	1001
46	30
47	20
50	110
51	320
52	180
53	1421
54	1211
55	5345
56	4434
57	2192
58	280
59	150
60	561
61	100
62	20
63	60
64	20
65	280
66	230
67	1481
68	2462
69	3503
70	2332
71	781
72	80
73	6015
74	310
75	40
77	220
78	80
79	440
80	160
81	2122
82	1001
83	1191
84	2732
85	550
86	2432
87	901
88	170
89	20
91	100
92	30
93	110
94	170
95	1041
96	1231
97	991
98	1832
99	2012
100	771
101	550
102	330
103	30
105	80
106	30
107	30
108	591
109	571
110	2382
111	741
112	70
113	731
114	731
115	200
116	40
119	90
121	30
122	40
123	1151
124	340
125	40
126	20
127	510
128	100
129	60
134	170
135	30
137	150
138	20
141	130
142	20
151	50
152	490
153	130
