Mass Spectrum: Benzene, 1,3-dichloro-2-ethyl-
Formula: C8 H8 Cl2
CAS: 33407-02-2
Molecular weight: 174
m/z	RELATIVE INTENSITY
15	30
18	40
26	30
27	170
28	30
29	20
36	20
37	70
38	100
39	220
40	10
41	30
43	90
44	50
47	20
49	120
50	530
51	80
52	80
53	40
55	20
60	30
61	140
62	250
63	400
64	40
65	40
66	10
67	210
68	240
69	340
70	90
71	10
72	40
73	310
74	370
75	751
76	170
77	681
78	100
79	20
80	10
83	10
84	80
85	130
86	120
87	140
88	50
89	380
90	40
91	80
96	20
97	110
98	70
99	230
100	60
101	490
102	520
103	971
104	130
105	80
106	10
107	30
108	20
109	100
110	40
111	160
112	50
113	50
114	10
115	30
116	10
117	30
118	10
119	100
120	10
121	10
123	470
124	200
125	180
126	70
127	10
128	20
129	10
130	10
131	20
132	10
133	130
134	10
135	110
136	70
137	190
138	100
139	1421
140	150
141	460
142	40
143	20
144	10
145	90
146	80
147	270
148	70
149	10
157	10
158	20
159	9999
160	801
161	6436
162	561
163	1071
165	90
172	20
173	50
174	2893
175	290
176	1852
177	170
178	310
179	30
180	30
182	20
