Mass Spectrum: 1,3,6,8-Tetrachlorodibenzo-p-dioxin
Formula: C12 H4 Cl4 O2
CAS: 33423-92-6
Molecular weight: 320
Origin: W. MILES, AGRIC. CAN., LAB. SERV. DIV., OTTAWA, ONT., CAN.
m/z	RELATIVE INTENSITY
97	1600
98	770
109	1140
113	810
115	560
122	500
123	550
129	440
133	410
159	810
160	1110
161	1300
187	220
194	3310
195	560
196	2140
221	220
222	240
229	540
230	280
231	490
250	240
257	4930
259	4650
261	1540
285	1350
287	1280
289	450
320	7550
321	1010
322	9999
323	1330
324	4840
325	660
326	1100
