Mass Spectrum: Benz[j]aceanthrylen-1-ol, 1,2-dihydro-3-methyl-
Formula: C21 H16 O
CAS: 3342-98-1
Molecular weight: 284
Origin: G.TAKAHASHI CHEST DISEASE RES. INST., KYOTO UNIV., JAPAN
m/z	RELATIVE INTENSITY
41	270
43	320
44	340
57	260
73	270
112	290
113	660
114	270
118	270
119	480
120	520
125	560
126	850
127	210
128	550
131	510
132	780
133	1370
134	340
141	630
142	410
149	230
211	160
213	220
215	180
224	230
225	150
226	470
227	140
228	270
237	520
238	230
239	1370
240	480
241	750
242	140
248	210
249	140
250	750
251	290
252	2600
253	1030
254	260
255	1480
256	750
257	140
261	520
262	290
263	2140
264	750
265	4700
266	9999
267	6060
268	1520
269	740
282	330
283	1030
284	6670
285	1360
