Mass Spectrum: Naphthalene, 1,2,3,4-tetrahydro-1-nonyl-
Formula: C19 H30
CAS: 33425-49-9
Molecular weight: 258
m/z	RELATIVE INTENSITY
14	10
15	40
16	10
26	30
27	420
28	130
29	681
30	20
38	10
39	210
40	40
41	641
42	110
43	490
44	40
50	10
51	60
52	20
53	160
54	20
55	160
56	40
57	90
58	20
62	10
63	30
64	20
65	70
66	10
67	30
68	10
69	40
70	10
71	20
75	10
76	10
77	110
78	50
79	40
81	10
83	10
88	20
89	30
90	10
91	861
92	70
93	10
95	10
97	10
101	10
102	50
103	110
104	120
105	90
106	10
113	10
114	20
115	430
116	390
117	280
118	70
119	10
125	10
126	10
127	120
128	300
129	450
130	370
131	9999
132	1141
133	60
139	10
140	10
141	40
142	20
143	30
144	70
145	80
146	20
152	10
153	10
155	10
157	20
158	10
159	10
256	10
258	591
259	120
260	10
