Mass Spectrum: 1-Methyl-4-piperidyl cyclohexylphenylglycolate
Formula: C20 H29 N O3
CAS: 33445-17-9
Molecular weight: 331
Origin: VERIFINN
m/z	RELATIVE INTENSITY
27	230
29	500
39	230
41	801
42	1071
43	781
44	1521
53	170
55	2562
56	200
57	400
58	160
67	390
68	180
69	350
70	1131
71	270
77	821
79	831
81	130
82	721
83	370
84	220
91	1191
96	4544
97	2162
98	8137
99	3003
105	1151
106	130
107	3623
108	270
114	1081
115	340
116	1171
117	180
120	60
121	120
128	80
129	360
130	50
133	90
142	160
143	490
144	50
152	60
171	350
172	50
188	90
189	9999
190	1441
191	110
248	611
249	1391
250	210
331	581
332	140
