Mass Spectrum: 2,4-Heptadien-1-ol, (E,E)-
Formula: C7 H12 O
CAS: 33467-79-7
Molecular weight: 112
m/z	RELATIVE INTENSITY
14	60
15	90
17	170
18	2242
26	280
27	2222
28	250
29	1331
30	320
31	991
32	160
37	160
38	400
39	3563
40	771
41	2352
42	460
43	571
44	60
45	470
46	130
47	90
49	60
50	931
51	1201
52	581
53	1672
54	490
55	1621
56	631
57	1071
58	60
59	400
61	120
62	230
63	500
64	120
65	1211
66	881
67	791
68	731
69	400
70	340
71	1131
72	70
74	300
75	350
76	70
77	5165
78	951
79	9999
80	530
81	2412
82	180
83	1621
84	400
85	60
86	50
92	210
93	1001
94	4474
95	500
96	80
97	130
98	10
109	70
111	80
112	410
