Mass Spectrum: 2,6-Dichlorobenzyl methyl ether
Formula: C8 H8 Cl2 O
CAS: 33486-90-7
Molecular weight: 190
Origin: NIST Mass Spectrometry Data Center
m/z	RELATIVE INTENSITY
15	120
26	20
27	20
28	20
29	510
30	90
31	20
35	10
36	20
37	100
38	130
39	320
40	20
41	10
43	110
44	150
45	721
46	20
47	30
48	10
49	120
50	460
51	410
52	30
53	20
55	10
60	50
61	260
62	621
63	1071
64	90
65	90
66	10
71	10
72	70
73	581
74	520
75	1121
76	140
77	270
78	20
79	20
80	10
81	10
83	30
84	190
85	250
86	260
87	310
88	130
89	2082
90	270
91	1181
92	130
93	10
94	10
96	40
97	260
98	30
99	430
100	30
101	110
102	10
103	10
104	10
105	110
106	10
107	50
108	30
109	330
110	170
111	1181
112	230
113	370
114	60
118	10
119	40
120	20
121	20
122	10
123	1361
124	520
125	1331
126	260
127	300
128	30
131	10
133	300
134	20
135	190
136	10
137	40
138	20
139	440
140	50
141	150
142	20
144	10
145	200
146	120
147	260
148	80
149	100
150	20
151	10
153	20
155	9999
156	871
157	3233
158	310
159	7507
160	601
161	4774
162	380
163	761
164	60
173	280
174	40
175	240
176	30
177	70
178	10
189	400
190	1401
191	370
192	911
193	110
194	150
195	10
