Mass Spectrum: Octanoic acid, pentadecafluoro-, anhydride
Formula: C16 F30 O3
CAS: 33496-48-9
Molecular weight: 810
Origin: RADIAN CORP
m/z	RELATIVE INTENSITY
16	40
18	20
20	80
28	760
29	70
31	440
32	240
36	50
39	70
40	80
41	190
42	10
43	180
44	1000
45	3940
46	60
47	90
50	150
51	890
58	10
62	30
67	230
69	7290
70	100
73	160
74	90
77	240
78	60
79	20
81	190
82	30
93	690
94	100
95	360
97	390
100	1600
101	190
109	140
112	210
113	50
117	110
119	2170
120	50
124	70
131	9999
132	330
143	190
147	70
150	90
151	80
155	30
162	260
169	980
170	10
181	2040
182	100
193	120
212	20
219	250
231	810
232	40
243	100
281	280
331	140
350	30
369	20
395	70
427	30
455	110
