Mass Spectrum: 2,2'',4,4',4'',6,6',6''-Octanitro-m-terphenyl
Formula: C18 H6 N8 O16
CAS: 33491-88-2
Molecular weight: 590
Origin: Japan AIST/NIMC Database- Spectrum MS-IW-3327
m/z	RELATIVE INTENSITY
12	20
14	40
16	109
26	40
27	219
28	1319
29	209
30	8849
31	50
32	30
37	30
38	99
39	139
40	20
41	30
42	40
43	119
44	2169
45	50
46	489
47	80
49	10
50	319
51	569
52	129
53	1059
54	70
55	50
56	20
57	20
60	10
61	60
62	359
63	349
64	569
65	279
66	239
67	99
68	119
69	9999
70	369
71	50
73	40
74	979
75	709
76	569
77	1459
78	229
79	119
80	229
81	50
82	20
83	20
84	10
85	60
86	589
87	789
88	619
89	229
90	429
91	199
92	309
93	329
94	119
95	30
96	20
97	20
98	669
99	1029
100	449
101	369
102	299
103	429
104	649
105	139
106	60
107	50
108	50
109	30
110	419
111	589
112	339
113	239
114	199
115	159
116	759
117	179
118	90
119	90
120	809
121	99
122	329
123	1129
124	489
125	209
126	149
127	419
128	199
129	119
130	219
131	189
132	119
133	109
134	249
135	349
136	259
137	149
138	249
139	109
140	179
141	149
142	139
143	99
144	199
145	70
146	209
147	329
148	539
149	359
150	249
151	199
152	199
153	80
154	99
155	80
156	60
157	90
158	169
159	219
160	159
161	259
162	259
163	219
164	269
165	119
166	129
167	80
168	99
169	60
170	229
171	219
172	159
173	319
174	459
175	349
176	259
177	139
178	419
179	549
180	169
181	50
182	70
183	99
184	99
185	709
186	509
187	349
188	379
189	219
190	279
191	149
192	129
193	70
194	349
195	90
196	80
197	289
198	679
199	579
200	309
201	319
202	179
203	289
204	169
205	80
206	99
207	60
208	169
209	499
210	209
211	129
212	159
213	159
214	239
215	129
216	169
217	179
218	139
219	80
220	419
221	119
222	129
223	80
224	189
225	149
226	299
227	139
228	339
229	159
230	139
231	139
232	189
233	2669
234	409
235	90
236	3549
237	479
238	319
239	80
240	70
241	70
242	159
243	99
244	209
245	159
246	139
247	70
248	70
249	80
250	70
251	20
252	30
253	80
254	439
255	159
256	259
257	99
258	109
259	90
260	80
261	50
262	99
263	60
264	50
265	20
266	20
267	529
268	129
269	80
270	129
271	70
272	119
273	60
274	80
275	80
276	40
277	99
278	119
279	30
280	30
282	10
283	30
284	139
285	50
286	50
287	40
288	60
289	50
290	50
291	60
292	50
293	30
294	10
296	10
298	10
299	30
300	99
301	40
302	119
303	60
304	70
305	40
306	30
307	30
308	20
309	20
310	10
314	20
315	20
316	40
317	40
318	60
319	30
320	40
321	50
322	30
323	10
324	20
325	10
326	10
329	20
330	90
331	40
332	30
333	40
334	30
335	10
336	20
337	70
338	30
340	20
345	40
346	99
347	40
348	70
349	50
350	40
351	20
353	40
354	20
356	30
360	30
361	20
362	40
363	20
364	20
365	30
366	10
375	10
376	70
377	40
378	20
379	40
383	20
391	10
392	20
393	10
394	20
395	20
396	10
399	10
400	359
401	70
402	299
403	50
404	10
406	10
407	10
408	40
409	10
410	10
411	70
412	30
413	30
421	10
422	20
423	20
424	30
425	20
427	20
429	99
430	30
436	70
437	20
438	20
439	20
440	10
441	10
452	70
453	20
454	10
457	70
458	10
459	50
461	10
467	10
468	339
469	40
470	1739
471	369
472	80
482	20
484	20
498	70
499	20
513	10
514	20
528	159
529	30
530	10
532	20
544	839
545	179
546	50
560	10
574	40
