Mass Spectrum: Ethyl 2,4-dimethylbenzoate
Formula: C11 H14 O2
CAS: 33499-42-2
Molecular weight: 178
Origin: NIST Mass Spectrometry Data Center
m/z	RELATIVE INTENSITY
12	10
13	10
14	70
15	310
16	20
17	20
18	90
19	20
26	200
27	1712
28	320
29	1171
30	190
37	30
38	140
39	1271
40	120
41	170
42	20
43	190
44	20
49	10
50	410
51	1221
52	370
53	500
54	30
55	50
61	50
62	230
63	731
64	190
65	561
66	80
67	20
74	30
75	150
77	3313
78	1321
79	1902
80	130
81	10
85	10
86	20
87	50
89	250
90	100
91	981
92	90
93	460
94	40
98	10
101	50
102	270
103	1511
104	1792
105	3463
106	360
107	50
115	10
117	10
118	20
119	190
120	20
121	130
122	20
130	20
132	5785
133	9999
134	1271
135	140
145	130
146	20
147	120
149	1892
150	791
151	90
159	20
160	50
161	40
163	450
164	40
178	3353
179	420
180	30
