Mass Spectrum: Benzaldehyde, 4-methoxy-, O-methyloxime
Formula: C9 H11 N O2
CAS: 33499-40-0
Molecular weight: 165
m/z	RELATIVE INTENSITY
50	901
51	1101
63	1902
64	2002
65	100
77	3603
78	300
90	3703
91	1001
92	1902
93	200
95	601
103	2302
104	200
107	2502
108	200
118	801
119	500
133	2803
134	4504
135	1702
136	801
137	100
138	150
164	100
165	9999
166	1001
