Mass Spectrum: Benzaldehyde, 4-methyl-, O-methyloxime
Formula: C9 H11 N O
CAS: 33499-39-7
Molecular weight: 149
m/z	RELATIVE INTENSITY
39	1702
50	801
51	1201
63	1702
64	100
65	3103
66	200
77	1702
78	1001
79	1301
89	1902
90	1702
91	9999
92	2402
103	801
107	701
116	1601
117	2002
118	2903
119	801
120	300
122	1401
123	150
133	150
134	100
148	200
149	7807
150	801
