Mass Spectrum: Perfluorooctanoyl chloride
Formula: C8 Cl F15 O
CAS: 335-64-8
Molecular weight: 432
Origin: ASES Database, Dalian Institute, P.R. China
m/z	RELATIVE INTENSITY
31	1311
50	780
63	9999
65	3272
69	7847
85	1381
87	400
93	800
100	2692
109	680
119	3383
131	3002
135	390
169	2982
181	790
219	890
231	290
281	300
369	2292
