Mass Spectrum: Decanoic acid, nonadecafluoro-
Formula: C10 H F19 O2
CAS: 335-76-2
Molecular weight: 514
Origin: Japan AIST/NIMC Database- Spectrum MS-IW- 728
m/z	RELATIVE INTENSITY
20	20
28	20
31	109
32	10
44	40
45	3229
46	30
47	30
50	30
51	439
57	10
67	129
69	3739
70	40
74	10
75	10
78	20
81	30
82	10
93	119
95	359
96	30
97	489
98	10
100	979
101	50
106	20
109	109
112	50
113	169
117	90
119	1319
120	30
124	10
129	10
131	9999
132	319
133	50
137	20
141	20
143	60
145	20
147	99
150	50
151	40
155	10
159	10
162	90
163	30
169	1009
170	30
175	10
181	1009
182	40
183	30
193	50
195	50
197	30
200	10
201	10
213	30
219	409
220	10
231	1079
232	60
233	10
241	10
243	30
245	30
263	20
269	80
281	419
282	20
291	10
295	20
313	10
319	189
320	10
331	139
345	20
347	10
359	10
381	50
391	30
409	10
431	249
432	30
439	10
447	30
450	109
451	10
469	50
495	1019
496	109
497	10
515	20
