Mass Spectrum: Perfluoroheptyl iodide
Formula: C7 F15 I
CAS: 335-58-0
Molecular weight: 496
Origin: NIST Mass Spectrometry Data Center, 1990.
m/z	RELATIVE INTENSITY
14	23
28	247
31	831
32	116
50	152
51	53
59	37
69	9999
70	128
74	122
81	109
93	599
100	2279
101	105
112	217
119	4843
120	96
124	68
127	2990
131	3979
132	122
143	102
150	84
158	120
162	102
169	3446
170	121
175	64
177	3264
178	37
181	1063
182	35
208	330
219	659
227	842
231	518
232	33
239	402
243	47
277	79
281	1394
282	104
289	49
331	739
332	55
369	8105
370	607
477	212
496	1963
497	144
