Mass Spectrum: 3,3-Dimethylacryloyl chloride
Formula: C5 H7 Cl O
CAS: 3350-78-5
Molecular weight: 118
Origin: Japan AIST/NIMC Database- Spectrum MS-NW-7788
m/z	RELATIVE INTENSITY
12	10
13	20
14	40
15	109
18	10
25	40
26	279
27	1829
28	289
29	3289
30	80
35	80
36	259
37	289
38	529
39	2829
40	359
41	309
42	139
43	60
44	20
47	20
48	30
49	159
50	419
51	399
52	159
53	1129
54	319
55	5039
56	259
57	10
60	10
61	30
62	30
63	149
64	10
65	50
66	30
67	189
68	50
69	10
72	10
73	20
75	119
76	20
77	209
78	30
79	70
81	10
82	389
83	9999
84	569
85	50
86	20
89	20
90	149
91	219
92	60
93	70
97	10
99	10
100	30
103	30
105	10
118	60
119	139
120	20
121	40
