Mass Spectrum: Pyrrolidine, 1-(1-oxobutyl)-
Formula: C8 H15 N O
CAS: 33527-93-4
Molecular weight: 141
m/z	RELATIVE INTENSITY
26	500
27	2602
28	2106
29	1301
30	701
38	100
39	1501
40	400
41	4204
42	1802
43	9999
44	601
53	200
54	100
55	4404
56	2002
57	2602
58	100
67	200
68	1201
69	1802
70	7807
71	4804
72	801
81	100
83	200
84	300
85	1501
86	300
95	100
96	100
97	200
98	2502
99	400
111	200
112	1301
113	5505
114	300
126	1201
127	300
139	100
140	200
141	2803
142	200
