Mass Spectrum: Fluoranthene, 2-methyl-
Formula: C17 H12
CAS: 33543-31-6
Molecular weight: 216
Origin: Pu Leung, NIH, Bethesda, MD
m/z	RELATIVE INTENSITY
41	31
42	15
43	36
44	14
47	46
48	22
49	249
50	167
51	254
52	31
53	4
55	27
56	4
57	19
61	31
62	157
63	300
64	24
65	15
67	22
68	35
69	36
70	6
71	148
73	15
74	177
75	128
76	53
77	35
79	13
80	13
81	379
83	16
84	148
85	35
86	260
87	241
88	99
89	54
94	781
95	1763
97	14
98	157
99	134
100	145
101	39
102	13
105	522
106	1115
107	535
108	2559
110	66
111	68
112	18
113	49
114	21
115	36
122	52
123	35
124	18
125	15
126	31
134	31
135	33
137	31
138	8
139	42
146	13
149	30
150	86
151	36
152	24
161	64
162	72
163	157
164	36
165	53
173	13
174	70
175	39
176	53
177	8
185	59
186	108
187	452
188	265
189	713
190	94
197	16
198	91
199	98
200	211
201	63
202	143
203	31
209	25
210	36
211	358
212	223
213	2313
214	761
215	8028
216	9999
217	1763
218	143
