Mass Spectrum: 3H-1,2-Dithiole-3-thione, 4-methyl-
Formula: C4 H4 S3
CAS: 3354-41-4
Molecular weight: 148
Origin: J.MOLLER PHYS. LAB., UNIV. COPENHAGEN, COPENHAGEN, DENMARK
m/z	RELATIVE INTENSITY
40	400
43	230
44	650
45	1500
57	340
58	650
59	370
64	280
69	1300
70	340
71	1300
72	630
74	250
76	2700
77	260
78	260
83	520
84	1200
100	230
102	330
115	3500
116	300
117	350
147	580
148	9999
149	800
150	1400
