Mass Spectrum: 2-Butyne, 1-chloro-
Formula: C4 H5 Cl
CAS: 3355-17-7
Molecular weight: 88
Origin: B. Derendyaev, Novosibirsk Institute of Organic Chemistry
m/z	RELATIVE INTENSITY
39	3899
49	709
50	2099
51	3699
52	1799
53	9999
54	429
88	6099
89	271
90	1899
91	91
