Mass Spectrum: 3-(2-Hydroxyethyl)-2-oxazolidinone
Formula: C5 H9 N O3
CAS: 3356-88-5
Molecular weight: 131
Origin: James Little,Eastman Chem.Co.,Kingsport,TN
m/z	RELATIVE INTENSITY
27	1491
29	2402
30	1621
31	1091
40	210
41	841
42	2572
43	711
44	581
45	871
54	480
55	280
56	9999
57	681
58	260
69	100
70	120
72	90
73	220
74	170
86	110
87	80
88	1071
100	8998
101	5415
102	310
113	540
114	90
115	140
131	450
132	80
133	10
