Mass Spectrum: Glycolic acid, 2TMS derivative
Formula: C8 H20 O3 Si2
CAS: 33581-77-0
Molecular weight: 220
Origin: NIST Mass Spectrometry Data Center
m/z	RELATIVE INTENSITY
15	20
26	10
27	20
28	40
29	130
30	10
31	50
41	10
42	70
43	550
44	300
45	1491
46	100
47	230
48	10
49	10
51	110
52	170
53	50
54	10
55	90
56	30
57	180
58	400
59	661
60	70
61	100
62	10
66	1561
69	10
70	40
71	60
72	280
73	8177
74	751
75	721
76	50
77	20
81	270
85	10
87	70
88	210
89	100
90	10
91	10
95	50
99	10
101	70
102	80
103	400
104	50
105	80
106	10
107	10
113	20
115	120
116	30
117	280
118	40
119	90
120	10
121	10
129	10
130	10
131	380
132	60
133	901
134	130
135	70
136	10
145	20
147	9999
148	1521
149	891
150	90
151	30
161	611
162	100
163	50
177	1181
178	180
179	100
180	10
190	40
191	10
205	871
206	150
207	80
208	10
