Mass Spectrum: Heptafluorobutyric acid, n-hexyl ester
Formula: C10 H13 F7 O2
CAS: 336-65-2
Molecular weight: 298
Origin: NIST Mass Spectrometry Data Center
m/z	RELATIVE INTENSITY
15	40
20	10
26	100
27	1511
28	571
29	2132
30	60
31	150
32	10
33	30
37	10
38	50
39	1361
40	330
41	5845
42	3653
43	9088
44	370
45	170
47	60
50	140
51	140
52	100
53	350
54	581
55	6116
56	9999
57	1591
58	60
59	20
61	30
62	20
63	10
64	10
65	50
66	20
67	350
68	150
69	6906
70	250
71	60
74	10
75	10
77	20
78	80
79	140
80	20
81	110
82	50
83	170
84	1521
85	1131
86	70
90	10
93	70
95	10
97	10
100	991
101	30
109	270
110	10
111	10
112	10
113	10
119	761
120	20
127	10
128	10
129	130
130	10
131	140
132	10
147	30
150	250
151	10
159	10
169	2692
170	70
178	10
197	170
198	10
199	10
215	10
227	10
241	20
255	60
