Mass Spectrum: Ethyl heptafluorobutanoylacetate
Formula: C8 H7 F7 O3
CAS: 336-62-9
Molecular weight: 284
Origin: NIST Mass Spectrometry Data Center, 1994
m/z	RELATIVE INTENSITY
12	54
13	206
14	398
15	709
16	45
17	28
18	40
19	144
20	40
24	19
25	96
26	452
27	2323
28	677
29	6864
30	291
31	1974
32	57
33	70
37	32
39	19
40	88
41	1664
42	1927
43	2336
44	221
45	1482
46	171
47	134
49	20
50	202
51	119
52	25
53	115
55	45
56	78
57	40
59	42
60	58
61	52
62	43
63	126
64	93
67	72
69	9999
70	301
71	162
72	19
73	93
74	66
75	382
76	41
77	21
78	25
79	9
81	88
82	20
83	15
85	14
87	4378
88	161
89	58
90	9
91	803
92	50
93	277
94	65
95	77
100	578
101	17
103	14
105	16
106	27
107	15
109	153
111	29
112	17
113	109
114	14
115	3712
116	192
117	31
118	14
119	419
120	166
121	18
122	76
123	36
125	58
131	69
141	180
143	18
147	22
150	27
151	45
153	14
159	15
161	23
163	106
169	1301
170	38
173	32
189	40
191	653
192	36
193	15
195	20
197	188
209	244
210	19
211	22
212	24
217	83
219	305
220	34
237	215
239	2603
240	193
241	20
257	24
284	286
285	41
