Mass Spectrum: Heptafluorobutyric anhydride
Formula: C8 F14 O3
CAS: 336-59-4
Molecular weight: 410
Origin: Japan AIST/NIMC Database- Spectrum MS-NW-3474
m/z	RELATIVE INTENSITY
31	559
41	20
43	20
44	149
45	159
47	40
50	289
51	30
55	20
60	10
62	40
63	20
65	10
67	10
69	5509
70	80
71	20
74	20
75	70
78	70
79	10
81	99
85	10
89	20
91	20
93	50
97	10
100	979
101	30
109	189
110	10
112	10
119	779
120	20
131	109
147	10
150	149
151	10
155	10
169	9999
170	359
171	10
197	1059
198	50
