Mass Spectrum: Benzenebutanol
Formula: C10 H14 O
CAS: 3360-41-6
Molecular weight: 150
Origin: Japan AIST/NIMC Database- Spectrum MS-NW-5588
m/z	RELATIVE INTENSITY
15	30
18	20
26	30
27	309
28	119
29	119
30	10
31	649
32	20
37	20
38	60
39	649
40	60
41	489
42	30
43	60
44	90
45	30
50	169
51	509
52	139
53	99
54	70
55	50
56	10
57	90
58	20
59	20
61	20
62	70
63	289
64	80
65	1209
66	90
67	10
71	20
73	10
74	50
75	50
76	50
77	599
78	659
79	429
80	40
81	10
86	10
87	20
88	10
89	219
90	119
91	8119
92	1099
93	109
94	40
95	10
101	10
102	60
103	359
104	9999
105	1209
106	149
107	60
108	10
115	359
116	139
117	2449
118	249
119	30
121	10
122	10
127	10
128	40
129	50
130	30
131	409
132	1239
133	139
134	10
148	10
149	10
150	1919
151	219
152	10
