Mass Spectrum: 1,1'-(p-Phenylene)bis(2-phenylethanedione)
Formula: C22 H14 O4
CAS: 3363-97-1
Molecular weight: 342
Origin: Japan AIST/NIMC Database- Spectrum MS-IW-3605
m/z	RELATIVE INTENSITY
27	20
28	10
39	10
50	179
51	459
52	20
63	10
74	30
75	60
76	399
77	2549
78	179
103	10
104	449
105	9999
106	839
107	50
132	90
133	10
151	10
152	40
153	20
181	10
208	10
209	259
210	40
223	10
237	1299
238	219
239	30
342	1199
343	289
344	40
