Mass Spectrum: Benzene, 1-cyclobuten-1-yl-
Formula: C10 H10
CAS: 3365-26-2
Molecular weight: 130
Origin: D.HENNEBERG, MAX-PLANCK INSTITUTE, MULHEIM, WEST GERMANY
m/z	RELATIVE INTENSITY
27	803
28	177
29	63
30	22
31	5
36	1
37	77
38	186
39	908
40	240
41	82
42	9
43	29
44	10
45	22
47	7
49	66
50	1149
51	2279
52	706
53	185
54	14
55	23
56	27
57	98
58	23
59	30
60	9
61	121
62	370
63	1091
64	948
65	558
66	35
67	13
68	11
69	28
70	6
71	6
72	4
73	118
74	622
75	616
76	964
77	1474
78	485
79	66
80	7
81	10
83	1
84	5
85	40
86	94
87	207
88	63
89	355
90	53
91	1166
92	93
93	6
94	1
95	6
96	10
97	20
98	104
99	48
100	26
101	206
102	4330
103	783
104	108
105	199
106	19
107	20
108	6
109	5
110	10
111	9
112	3
113	46
114	72
115	5942
116	586
117	47
118	1
119	3
120	16
122	11
123	5
124	3
125	58
126	230
127	1827
128	4130
129	9999
130	8664
131	903
132	55
133	3
