Mass Spectrum: Hydrazine, 1-methyl-1-(1-methylethyl)-
Formula: C4 H12 N2
CAS: 33668-54-1
Molecular weight: 88
Origin: ATLAS OF MASS SPECTRA OF ORGANIC COMPOUNDS, V. A. KOPTYUG, ED.
m/z	RELATIVE INTENSITY
26	150
27	1230
28	2600
29	1150
30	1190
31	1150
38	100
39	780
40	180
41	1370
42	1510
43	1610
44	1510
45	4110
46	1640
54	180
55	190
56	3840
57	550
58	320
59	210
70	270
71	90
72	160
73	9999
74	510
87	140
88	4790
89	470
