Mass Spectrum: Propane, 1,3-bis(ethylthio)-
Formula: C7 H16 S2
CAS: 33672-52-5
Molecular weight: 164
Origin: UNION OIL CO. OF CALIFORNIA, BREA, CAL, USA
m/z	RELATIVE INTENSITY
25	69
26	1033
27	6667
28	865
29	6463
30	145
32	117
33	125
34	229
35	1145
36	21
37	84
38	107
39	1611
40	158
41	4097
42	285
43	180
44	69
45	5089
46	2036
47	5674
48	280
49	262
50	33
51	15
52	5
53	71
54	18
55	15
56	23
57	145
58	662
59	1389
60	1608
61	3104
62	494
63	214
64	234
65	43
66	64
67	88
68	58
69	328
70	28
71	305
72	623
73	6463
74	1977
75	5522
76	349
77	247
78	103
79	802
80	31
81	71
82	3
83	3
85	144
86	36
87	992
88	79
89	1221
90	69
91	76
92	13
93	654
94	93
95	62
96	8
97	5
99	8
100	4
101	125
102	845
103	318
104	62
105	127
106	649
107	8117
108	458
109	712
110	33
111	73
112	85
115	6
119	20
120	5
121	4
122	35
123	3
124	3
128	3
129	4
133	23
135	9999
136	718
137	901
138	58
139	23
140	3
141	3
150	3
151	3
164	2290
165	229
166	211
167	20
168	7
