Mass Spectrum: Disulfide, 1-methylethyl propyl
Formula: C6 H14 S2
CAS: 33672-51-4
Molecular weight: 150
m/z	RELATIVE INTENSITY
12	10
13	10
14	70
15	330
16	20
25	10
26	150
27	2602
28	380
29	220
30	10
32	40
33	40
34	40
35	20
36	10
37	60
38	150
39	1471
40	210
41	3023
42	280
43	9999
44	360
45	761
46	260
47	450
48	30
49	70
50	10
51	10
55	10
56	10
57	50
58	180
59	480
60	100
61	70
62	10
63	10
64	250
65	70
66	1091
67	30
68	100
69	30
70	10
71	40
72	10
73	200
74	270
75	120
76	120
77	20
78	50
79	200
80	20
81	20
90	10
91	10
92	10
93	70
94	10
95	10
103	10
106	10
107	50
108	2212
109	120
110	200
111	10
112	10
121	10
135	10
150	2102
151	180
152	200
153	20
154	10
