Mass Spectrum: Butanamide,N-(2-chlorophenyl)-
Formula: C10 H12 Cl N O
CAS: 33694-15-4
Molecular weight: 197
Origin: M. ODA, MIN. AGRIC. CHEM. INSP. STN., TOKYO, JAPAN
m/z	RELATIVE INTENSITY
43	2500
63	400
64	300
65	400
71	900
73	200
75	300
90	400
91	300
92	400
99	500
100	200
101	200
102	100
111	100
126	400
127	9999
128	100
129	3300
153	100
154	200
162	1200
197	1900
199	600
