Mass Spectrum: Benzenamine, N-[(2-methoxyphenyl)methylene]-
Formula: C14 H13 N O
CAS: 3369-37-7
Molecular weight: 211
Origin: D.HENNEBERG, MAX-PLANCK INSTITUTE, MULHEIM, WEST GERMANY
m/z	RELATIVE INTENSITY
26	86
28	363
29	22
30	15
31	8
32	18
34	8
37	3
38	15
39	251
40	22
41	50
42	11
43	10
44	17
47	5
48	6
49	6
50	94
51	1196
52	124
53	22
54	9
55	13
57	7
62	10
63	100
64	110
65	436
66	132
67	13
69	9
74	7
75	37
76	163
77	3824
78	550
79	91
80	9
81	5
85	3
88	7
89	140
90	224
91	4033
92	415
93	9999
94	724
95	20
98	4
101	10
102	60
103	58
104	446
105	110
106	83
107	118
108	40
109	4
113	9
114	22
115	92
116	64
117	35
118	560
119	3672
120	346
121	28
125	4
126	17
127	32
128	34
129	11
130	7
132	81
133	25
134	69
135	5
136	8
138	8
139	97
140	71
141	71
142	14
143	10
144	8
145	4
149	6
150	13
151	97
152	185
153	62
154	18
155	10
156	9
164	9
165	60
166	131
167	528
168	107
169	19
170	3
176	6
177	40
178	79
179	59
180	510
181	119
182	68
183	17
192	12
193	17
194	42
195	277
196	217
197	37
198	3
208	5
209	22
210	289
211	1189
212	163
213	17
