Mass Spectrum: Terbumeton
Formula: C10 H19 N5 O
CAS: 33693-04-8
Molecular weight: 225
Origin: NIST Mass Spectrometry Data Center, 1995
m/z	RELATIVE INTENSITY
12	18
15	733
17	15
18	92
26	26
27	307
28	153
29	799
30	463
39	353
40	129
41	1058
42	880
43	1378
44	657
52	20
53	120
54	87
55	510
56	434
57	1141
58	1061
66	37
67	155
68	947
69	1126
70	217
71	818
72	92
75	138
78	51
80	45
81	52
82	219
83	986
84	375
85	568
86	159
87	167
90	29
93	119
94	200
95	106
96	491
97	29
98	1195
99	121
100	708
101	54
105	227
108	84
109	104
110	86
111	710
112	374
113	33
114	57
115	261
121	24
122	56
123	131
124	107
125	279
126	1276
127	248
128	662
129	39
134	19
136	625
137	102
138	177
139	428
140	421
141	2033
142	220
150	44
151	78
152	51
153	44
154	2717
155	258
164	22
165	56
166	110
167	270
168	1403
169	7524
170	916
171	74
178	59
180	116
181	30
182	244
183	71
192	12
193	77
194	165
195	22
196	25
197	53
208	279
210	9999
211	1154
212	86
225	3751
226	488
227	27
