Mass Spectrum: 4H-Inden-4-one, 1,2,3,5,6,7-hexahydro-1,1,2,3,3-pentamethyl-
Formula: C14 H22 O
CAS: 33704-61-9
Molecular weight: 206
Origin: NIST Mass Spectrometry Data Center
m/z	RELATIVE INTENSITY
27	290
29	360
39	921
41	1782
42	220
43	731
51	520
52	220
53	921
55	2292
57	410
58	170
65	1081
66	260
67	861
69	1101
71	390
77	1972
78	410
79	2162
80	611
81	911
83	420
88	120
91	2772
92	440
93	2062
94	611
95	500
103	440
104	170
105	3443
106	520
107	3883
115	771
116	280
117	791
118	160
119	1832
120	480
121	3703
122	400
123	721
127	130
128	250
130	150
131	751
132	150
133	1651
134	500
135	6766
136	911
143	160
145	420
147	1091
148	330
149	1551
150	520
158	160
159	280
161	741
162	170
163	3513
164	671
173	951
174	200
175	210
176	340
177	601
188	80
189	140
190	70
191	9999
192	1551
193	110
204	320
206	5325
207	921
