Mass Spectrum: Pyrrolidine, 1-(1-oxooctadecyl)-
Formula: C22 H43 N O
CAS: 33707-76-5
Molecular weight: 337
m/z	RELATIVE INTENSITY
41	769
42	210
43	1608
44	280
67	210
68	70
69	489
70	1049
71	1049
72	594
81	210
82	70
83	210
84	35
85	385
95	70
96	70
97	210
98	594
99	70
109	70
110	70
111	70
112	70
113	9999
114	909
115	70
125	70
126	1678
127	420
140	280
141	70
154	70
155	70
168	245
169	70
182	210
196	70
210	35
224	70
238	70
252	35
266	35
280	35
294	70
308	70
336	210
337	559
338	70
