Mass Spectrum: Benzene, p-di-tert-pentyl-
Formula: C16 H26
CAS: 3373-10-2
Molecular weight: 218
Origin: NIST Mass Spectrometry Data Center, 1990.
m/z	RELATIVE INTENSITY
27	382
28	160
29	696
39	267
41	923
43	851
44	65
51	123
53	135
55	280
64	67
65	135
71	941
77	250
78	95
79	126
91	860
92	74
103	146
104	60
105	358
115	444
116	162
117	679
118	92
119	204
127	101
128	245
129	239
130	96
131	476
132	149
133	167
141	72
143	78
145	1018
146	203
159	540
160	2133
161	537
162	61
173	94
174	232
175	93
189	9999
190	1643
191	125
203	280
218	727
219	122
