Mass Spectrum: 2-Oxazolidinone, 3-(2-hydroxypropyl)-5-methyl-
Formula: C7 H13 N O3
CAS: 3375-84-6
Molecular weight: 159
m/z	RELATIVE INTENSITY
14	48
15	463
16	19
17	64
18	265
19	96
26	78
27	522
28	1099
29	611
30	437
32	64
38	41
39	458
40	129
41	2313
42	4466
43	1467
44	252
45	1587
46	46
51	16
52	24
53	19
54	139
55	158
56	719
57	212
58	263
59	180
60	16
67	21
68	175
69	65
70	2568
71	187
72	207
73	83
74	8484
75	233
76	43
77	21
80	16
81	18
82	56
83	16
84	187
85	29
86	96
87	64
88	26
96	27
97	16
98	112
99	19
100	152
101	368
102	293
103	30
113	32
114	731
115	9999
116	633
117	69
126	37
128	155
129	33
140	32
141	26
142	27
144	120
159	27
160	40
