Mass Spectrum: 1,6-Hexanedione, 1,6-diphenyl-
Formula: C18 H18 O2
CAS: 3375-38-0
Molecular weight: 266
Origin: Japan AIST/NIMC Database- Spectrum MS-NW-6491
m/z	RELATIVE INTENSITY
18	10
26	10
27	119
28	70
29	30
32	10
38	10
39	139
40	10
41	99
42	10
43	40
50	169
51	769
52	60
53	30
55	159
56	10
57	10
62	10
63	30
64	10
65	60
66	10
67	10
68	10
69	20
74	30
75	40
76	129
77	4009
78	489
79	50
81	10
83	10
89	20
90	10
91	209
92	40
96	10
102	10
103	40
104	40
105	9999
106	829
107	50
115	80
116	30
117	60
118	20
119	219
120	3509
121	409
122	30
127	20
128	119
129	50
131	99
132	30
133	319
134	349
135	40
141	20
142	40
143	109
144	119
145	559
146	5989
147	1369
148	119
149	20
152	10
153	10
159	10
160	70
161	179
162	20
171	30
181	10
215	10
219	10
220	20
229	10
230	10
232	10
238	309
239	50
247	149
248	239
249	50
266	289
267	60
268	10
