Mass Spectrum: Decanoic acid, 2-hydroxy-1-(hydroxymethyl)ethyl ester
Formula: C13 H26 O4
CAS: 3376-48-5
Molecular weight: 246
m/z	RELATIVE INTENSITY
26	200
27	2903
28	1301
29	5205
30	200
31	2302
32	200
38	100
39	1601
40	300
41	6906
42	2302
43	9999
44	1101
45	1702
46	100
47	100
51	100
52	100
53	400
54	500
55	5505
56	2602
57	6206
58	300
59	300
60	1401
61	1101
62	100
65	100
66	100
67	701
68	601
69	2302
70	701
71	4804
72	300
73	1802
74	1301
75	1501
76	100
77	200
78	100
79	200
80	100
81	801
82	300
83	1001
84	2502
85	2402
86	200
87	1101
88	100
89	200
91	200
93	300
94	100
95	801
96	100
97	701
98	2602
99	200
100	200
101	300
102	100
103	100
105	400
106	100
107	100
109	100
110	200
111	300
112	901
113	200
115	200
116	1301
117	200
121	100
125	100
126	200
127	100
129	701
130	100
134	2102
135	200
136	100
137	100
139	100
143	300
144	100
147	200
153	100
154	400
155	9408
156	1101
157	100
162	100
171	100
172	300
173	1802
174	200
185	100
186	400
187	100
212	100
215	901
216	100
229	100
246	100
