Mass Spectrum: 2-Propanone, O-methyloxime
Formula: C4 H9 N O
CAS: 3376-35-0
Molecular weight: 87
m/z	RELATIVE INTENSITY
29	2102
30	1001
31	801
38	200
39	801
40	601
41	1101
42	1501
43	1501
45	400
54	1301
55	1101
56	7206
57	300
58	601
72	1501
73	100
87	9999
88	500
