Mass Spectrum: Hexane, 2-bromo-
Formula: C6 H13 Br
CAS: 3377-86-4
Molecular weight: 164
Origin: NIST Mass Spectrometry Data Center, 1992
m/z	RELATIVE INTENSITY
12	3
14	15
15	296
24	4
26	384
27	2807
28	443
29	1946
30	46
31	10
37	64
38	234
39	2153
40	498
41	4672
42	1683
43	9999
44	347
45	6
48	3
49	19
50	129
51	164
52	83
53	337
54	179
55	1772
56	675
57	1624
58	73
59	2
61	9
62	14
63	32
64	9
65	50
66	19
67	104
68	2
69	406
70	21
71	4
73	3
74	10
77	15
78	9
79	44
80	41
81	47
82	46
83	53
84	3
85	6308
86	410
87	12
93	26
94	3
95	22
104	3
105	16
106	17
107	90
108	14
109	82
119	7
120	7
121	35
122	10
123	28
135	4
164	3
166	3
