Mass Spectrum: Hexane, 3-bromo-
Formula: C6 H13 Br
CAS: 3377-87-5
Molecular weight: 164
Origin: Japan AIST/NIMC Database- Spectrum MS-NW-8664
m/z	RELATIVE INTENSITY
15	60
26	99
27	1269
28	219
29	1139
30	30
37	20
38	80
39	989
40	169
41	2829
42	789
43	9999
44	329
49	10
50	60
51	90
52	40
53	239
54	99
55	1739
56	569
57	1559
58	70
62	10
63	20
65	30
66	10
67	70
68	20
69	409
70	50
71	50
77	10
79	20
80	50
81	20
82	50
83	60
84	109
85	7779
86	519
87	10
93	20
95	20
105	10
106	20
107	60
108	20
109	40
112	10
113	10
119	10
121	20
123	10
135	20
137	20
