Mass Spectrum: 6-Undecylamine
Formula: C11 H25 N
CAS: 33788-00-0
Molecular weight: 171
Origin: NIST Mass Spectrometry Data Center, 1990.
m/z	RELATIVE INTENSITY
15	55
27	516
28	462
29	1090
30	3700
31	61
32	15
39	295
41	1063
42	443
43	1195
44	512
45	13
51	23
52	18
53	88
54	149
55	1032
56	651
57	335
58	55
65	21
66	12
67	63
68	40
69	129
70	127
71	55
72	21
77	11
79	18
81	24
82	43
83	259
84	28
86	17
97	24
100	9999
101	608
102	27
114	16
126	34
170	55
171	25
