Mass Spectrum: Ormosanine, (18.alpha.)-
Formula: C20 H35 N3
CAS: 33792-80-2
Molecular weight: 317
Origin: S.MCLEAN LASH MILLER CHEM. LABS., TORONTO, CANADA
m/z	RELATIVE INTENSITY
43	4700
84	9999
96	1400
98	4000
150	900
151	3800
191	1100
219	5200
220	1200
233	1500
234	3800
235	800
245	600
259	700
316	900
317	4200
318	1100
