Mass Spectrum: Phosphonic acid, (p-hydroxyphenyl)-
Formula: C6 H7 O4 P
CAS: 33795-18-5
Molecular weight: 174
Origin: MUS311 A. Mujsce, AT&T Bell Labs., Murray Hill, N.J., USA
m/z	RELATIVE INTENSITY
15	10
16	10
17	39
18	64
25	28
26	97
27	145
28	32
29	117
31	77
32	22
33	29
36	40
37	281
38	539
39	1507
40	623
41	52
42	77
43	41
44	9
45	9
46	27
47	180
48	21
49	99
50	456
51	365
52	68
53	252
54	42
55	516
56	25
60	55
61	242
62	364
63	631
64	184
65	2074
66	3210
67	225
68	99
72	10
73	88
74	238
75	107
76	63
77	93
78	14
79	115
80	11
81	94
82	41
92	37
94	9999
95	637
96	36
98	22
109	15
110	45
128	5
129	8
138	7
139	9
141	4
142	4
153	5
156	39
157	8
158	46
159	5
172	5
174	143
175	10
