Mass Spectrum: Benzene, 1,3-diphenoxy-
Formula: C18 H14 O2
CAS: 3379-38-2
Molecular weight: 262
Origin: Japan AIST/NIMC Database- Spectrum MS-IW- 59
m/z	RELATIVE INTENSITY
27	40
38	50
39	219
40	20
50	189
51	839
52	70
53	20
55	40
62	40
63	339
64	419
65	219
66	50
67	10
69	50
71	30
74	60
75	109
76	169
77	1499
78	139
79	20
80	10
87	10
88	20
89	99
90	20
91	209
92	179
93	30
94	90
95	149
96	10
101	20
102	90
103	40
105	80
107	10
110	10
113	30
114	40
115	1889
116	219
117	40
118	20
121	529
122	40
126	30
127	179
128	469
129	199
130	40
131	149
132	10
138	10
139	539
140	409
141	5939
142	759
143	50
147	80
148	10
151	30
152	40
153	10
155	70
156	70
157	229
158	50
160	20
165	60
166	20
167	50
168	1409
169	1119
170	139
171	60
172	10
178	80
179	40
181	10
183	50
184	40
185	90
186	50
187	10
189	30
190	40
191	119
192	90
193	99
194	20
201	10
202	60
203	70
204	30
205	109
206	40
207	80
208	10
215	159
216	50
217	60
218	60
219	129
220	30
221	10
222	10
227	10
231	30
232	20
233	299
234	349
235	60
236	10
242	10
243	70
244	20
245	60
246	10
247	30
259	10
260	30
261	429
262	9999
263	1959
264	219
265	20
