Mass Spectrum: 11-Heneicosanol
Formula: C21 H44 O
CAS: 3381-26-8
Molecular weight: 312
Origin: NIST Mass Spectrometry Data Center, 1994
m/z	RELATIVE INTENSITY
27	1083
28	117
29	3584
30	135
39	928
40	290
41	7317
42	1514
43	9999
44	891
45	23
53	393
54	730
55	7185
56	1518
57	7165
58	2257
59	495
65	90
66	163
67	1514
68	853
69	5832
70	1307
71	4669
72	427
79	252
80	106
81	1172
82	1522
83	6660
84	886
85	2115
86	289
93	72
95	1564
96	1340
97	8522
98	969
99	340
100	262
109	488
110	633
111	2599
112	314
113	275
114	243
123	212
124	874
125	488
126	411
127	479
128	197
137	72
138	120
139	198
140	97
141	252
142	120
152	178
153	202
155	73
166	177
167	114
169	3001
170	461
171	2671
172	357
184	408
185	647
186	81
197	299
211	162
253	83
294	317
295	66
