Mass Spectrum: Isopropalin
Formula: C15 H23 N3 O4
CAS: 33820-53-0
Molecular weight: 309
Origin: ACCUSTANDARD Chemicals / NIST MS Data Center.
m/z	RELATIVE INTENSITY
13	6
14	23
15	81
16	2
17	24
18	78
27	1303
28	538
29	622
30	188
31	23
32	53
38	44
39	443
41	1937
42	334
43	1999
44	96
45	17
46	9
50	55
51	184
52	150
53	179
54	78
55	79
56	107
57	199
58	35
59	41
60	4
62	54
63	159
64	86
65	336
66	106
67	97
68	55
69	17
70	45
71	19
72	22
74	50
75	171
76	163
77	766
78	392
79	312
80	126
81	56
82	14
84	7
85	5
86	7
87	24
88	37
89	271
90	239
91	766
92	203
93	179
94	75
95	29
96	21
97	6
98	18
99	12
100	11
101	60
102	206
103	497
104	621
105	369
106	228
107	96
108	34
109	11
111	8
113	11
115	294
116	350
117	566
118	593
119	383
120	189
121	85
122	29
123	21
124	7
127	46
128	122
129	123
130	408
131	406
132	399
133	479
134	258
135	136
136	27
137	12
138	25
139	8
140	19
141	25
142	68
143	187
144	306
145	465
146	286
147	310
148	110
149	139
150	141
151	20
152	11
153	7
154	25
155	24
156	107
157	109
158	178
159	160
160	274
161	283
162	131
163	80
164	197
165	537
166	62
167	10
168	24
169	16
170	45
171	80
172	139
173	128
174	111
175	133
176	239
177	760
178	133
179	10
180	480
181	52
182	6
183	10
184	16
185	39
186	80
187	93
188	173
189	98
190	115
191	151
192	132
193	238
194	49
195	58
196	23
197	7
198	8
199	29
200	27
201	44
202	42
203	40
204	28
205	107
206	181
207	64
208	167
209	23
210	27
213	15
214	8
215	20
216	27
217	36
218	95
219	57
220	62
221	8
222	703
223	70
224	17
226	9
227	8
228	7
230	9
231	11
232	35
233	81
234	265
235	56
236	63
237	7
238	4889
239	600
240	78
241	14
245	5
246	17
247	13
248	20
249	6
250	10
251	13
252	79
253	12
258	7
260	70
261	17
262	13
263	6
264	1661
265	276
266	44
275	23
276	39
280	9999
281	1519
282	183
283	18
292	535
293	102
294	29
295	7
309	628
310	118
311	21
