Mass Spectrum: 1-Bromo-3,7-dimethyloctane
Formula: C10 H21 Br
CAS: 3383-83-3
Molecular weight: 220
Origin: NIST Mass Spectrometry Data Center, 1990.
m/z	RELATIVE INTENSITY
15	89
27	1890
28	309
29	1795
39	2577
40	747
41	7585
42	2034
43	7709
44	273
51	200
52	137
53	1056
54	137
55	8803
56	2706
57	9999
58	441
65	161
67	597
69	4544
70	2529
71	9068
72	456
79	204
81	200
82	201
83	1567
84	466
85	1302
93	132
95	167
97	1124
98	135
99	218
107	381
109	407
111	253
113	2113
114	173
125	111
135	270
137	273
140	155
149	2522
150	235
151	2461
152	138
163	306
165	267
177	797
178	99
179	789
