Mass Spectrum: Trimethylindium
Formula: C3 H9 In
CAS: 3385-78-2
Molecular weight: 160
Origin: MUS30 A. Mujsce, AT&T Bell Labs., Murray Hill, N.J., USA
m/z	RELATIVE INTENSITY
15	175
113	275
115	5676
116	45
117	58
125	49
127	106
128	235
129	113
130	1346
131	40
140	20
141	25
143	452
144	163
145	9999
146	254
