Mass Spectrum: Silane, trimethoxy[2-(7-oxabicyclo[4.1.0]hept-3-yl)ethyl]-
Formula: C11 H22 O4 Si
CAS: 3388-04-3
Molecular weight: 246
Origin: RADIAN CORP
m/z	RELATIVE INTENSITY
15	90
26	50
27	640
29	690
30	30
33	20
39	900
40	100
41	1480
42	550
43	310
44	150
45	240
46	10
47	170
50	20
51	90
52	60
53	400
54	410
55	480
56	50
57	160
58	10
59	1410
60	400
61	1480
62	110
63	120
65	150
66	150
67	640
68	240
69	150
70	140
71	50
73	20
74	170
75	110
76	100
77	920
78	330
79	720
80	570
81	180
82	40
83	80
84	160
85	70
86	20
87	130
88	10
89	30
90	560
91	5250
92	450
93	510
94	50
95	100
96	70
97	590
98	60
99	40
101	30
103	40
104	180
105	150
106	300
107	1350
108	190
109	90
111	70
112	50
113	150
114	40
115	90
116	20
117	220
118	380
119	110
121	9999
122	900
123	460
124	40
125	40
126	40
127	70
128	50
129	50
130	40
131	90
132	30
133	120
135	120
136	40
137	40
138	30
139	110
140	20
141	60
142	20
143	30
144	20
145	90
146	40
147	60
149	400
150	50
151	50
153	50
154	50
155	40
157	20
158	60
159	70
160	210
161	50
162	30
163	110
164	90
165	80
166	20
167	60
168	130
169	30
170	40
171	60
172	50
173	150
174	30
175	70
176	20
177	60
181	20
182	130
183	50
184	20
185	130
186	290
187	60
188	20
189	10
190	20
195	50
196	510
197	110
198	40
199	140
200	30
203	40
213	40
214	180
215	40
216	20
217	50
228	20
