Mass Spectrum: 5-Methoxy-1-tetralone
Formula: C11 H12 O2
CAS: 33892-75-0
Molecular weight: 176
Origin: Japan AIST/NIMC Database- Spectrum MS-NW-9708
m/z	RELATIVE INTENSITY
15	30
18	10
26	10
27	119
28	90
29	20
37	10
38	60
39	309
40	30
41	90
42	30
43	70
44	10
45	30
50	239
51	859
52	139
53	99
54	10
55	139
56	10
57	50
58	20
59	30
60	10
61	20
62	139
63	429
64	119
65	279
66	80
67	30
73	20
74	269
75	139
76	189
77	1299
78	289
79	169
80	20
85	10
86	30
87	50
88	50
89	519
90	3059
91	1089
92	199
93	30
94	10
98	10
101	20
102	129
103	409
104	169
105	999
106	90
107	60
108	10
113	20
114	30
115	719
116	209
117	379
118	629
119	979
120	4209
121	459
122	30
127	40
128	40
129	40
130	20
131	419
132	139
133	489
134	1409
135	159
136	10
143	60
144	119
145	339
146	189
147	1229
148	4519
149	459
150	40
157	10
158	239
159	209
160	139
161	2239
162	379
163	40
170	10
172	10
174	10
175	429
176	9999
177	1269
178	109
