Mass Spectrum: 3,4-Dimethoxyphenyl isothiocyanate
Formula: C9 H9 N O2 S
CAS: 33904-04-0
Molecular weight: 195
Origin: NIST Mass Spectrometry Data Center, 1994
m/z	RELATIVE INTENSITY
12	38
14	392
15	3742
16	72
25	53
26	424
27	228
28	313
29	665
30	121
31	282
32	292
36	32
37	436
38	754
39	1042
40	107
41	171
42	84
43	127
44	240
45	553
46	40
47	49
49	291
50	2006
51	2744
52	447
53	948
55	233
56	200
57	90
58	202
59	135
60	40
61	422
62	881
63	1840
64	786
65	2082
66	985
67	193
68	92
69	472
70	1062
71	118
72	299
73	80
74	327
75	442
76	573
77	1080
78	572
79	1390
80	589
81	142
82	651
83	1967
84	285
85	136
86	479
87	99
88	141
89	204
90	525
91	119
92	550
93	2125
94	6155
95	927
96	299
97	404
99	45
102	137
104	38
105	78
106	279
107	303
108	38
109	2358
110	298
111	285
112	45
117	44
118	47
119	295
120	299
121	413
122	1305
123	263
124	883
125	248
126	62
134	1227
135	140
136	273
137	1628
138	150
139	100
148	193
149	278
150	269
151	100
152	3681
153	344
154	182
163	231
164	64
178	112
180	4887
181	471
182	284
195	9999
196	1090
197	543
198	55
