Mass Spectrum: 4-Nitrophenoxyacetonitrile
Formula: C8 H6 N2 O3
CAS: 33901-46-1
Molecular weight: 178
Origin: NIST Mass Spectrometry Data Center
m/z	RELATIVE INTENSITY
12	40
13	120
14	100
16	50
17	10
18	40
24	30
25	70
26	510
27	170
28	320
30	6336
31	60
32	30
36	50
37	621
38	2342
39	731
40	1471
41	170
42	30
44	20
46	480
49	150
50	1982
51	1041
52	1141
53	510
54	571
55	50
61	651
62	1661
63	5935
64	5895
65	791
66	170
67	50
68	130
69	30
73	160
74	821
75	861
76	841
77	1231
78	410
79	320
80	1301
81	110
82	891
83	40
92	7196
93	480
94	100
96	60
99	20
100	40
101	50
102	981
103	140
104	520
105	190
106	80
107	200
108	1121
109	100
120	801
121	90
122	120
123	20
131	230
132	1231
133	120
146	20
148	6446
149	571
150	70
152	10
161	80
162	390
163	40
178	9999
179	941
180	100
