Mass Spectrum: 7-Norbornyl t-butyl ether
Formula: C11 H20 O
CAS: 3391-07-9
Molecular weight: 168
Origin: NIST Mass Spectrometry Data Center, 1994
m/z	RELATIVE INTENSITY
15	328
17	15
18	39
27	1243
28	361
29	2324
30	57
31	189
32	9
37	22
39	1922
41	4675
42	359
43	898
44	50
45	60
50	54
51	185
52	117
53	569
54	418
55	1158
56	1803
57	9999
58	436
59	635
60	20
63	31
65	310
66	437
67	1311
68	566
69	200
70	465
71	156
72	15
73	17
77	382
79	1271
80	199
81	652
82	15
83	1153
84	257
85	12
91	268
92	164
93	438
94	1375
95	1072
96	84
97	179
98	46
110	407
111	939
112	843
113	310
114	22
135	7
153	123
154	12
168	164
169	21
