Mass Spectrum: 11-Tridecyn-1-ol
Formula: C13 H24 O
CAS: 33925-75-6
Molecular weight: 196
Origin: NIST Mass Spectrometry Data Center, 1994
m/z	RELATIVE INTENSITY
17	80
18	246
27	1297
38	131
39	3268
40	717
41	8354
42	1115
43	2041
44	160
50	182
51	623
52	467
53	3210
54	3601
55	7574
56	855
57	1044
58	255
65	793
66	1063
67	8703
68	9999
69	3155
70	579
71	868
72	106
77	919
78	298
79	3530
80	1352
81	6008
82	2088
83	963
84	298
85	313
91	681
92	87
93	2028
94	1104
95	5100
96	1467
97	557
98	358
99	38
105	74
106	36
107	947
108	444
109	1323
110	409
111	305
112	88
121	580
122	178
123	195
135	261
136	142
149	139
