Mass Spectrum: 1-(1-Propenylthio)propane
Formula: C6 H12 S
CAS: 33922-70-2
Molecular weight: 116
Origin: Dr. Jiri Zamecnik, DCIEM, North York, Canada, GP Library
m/z	RELATIVE INTENSITY
47	5580
53	6320
55	1660
58	1400
59	4740
61	940
71	2480
72	2490
73	9160
74	9999
75	3210
76	2220
85	1160
87	9440
88	670
89	1000
97	140
101	150
116	9860
117	1590
118	1050
119	90
