Mass Spectrum: 3-Heptene, 4-ethyl-
Formula: C9 H18
CAS: 33933-74-3
Molecular weight: 126
m/z	RELATIVE INTENSITY
26	30
27	671
29	651
30	20
31	621
38	20
39	691
40	170
41	2122
42	400
43	601
44	70
50	40
51	100
52	50
53	370
54	130
55	9999
56	1071
57	190
58	10
65	100
66	40
67	400
68	120
69	2282
70	1441
71	110
77	90
78	20
79	120
80	20
81	190
82	120
83	2242
84	891
85	60
93	10
95	50
96	40
97	1992
98	601
99	40
111	30
112	10
126	1792
127	190
128	10
