Mass Spectrum: 2-Butanone, 4-hydroxy-3-methyl-
Formula: C5 H10 O2
CAS: 3393-64-4
Molecular weight: 102
Origin: Japan AIST/NIMC Database- Spectrum MS-NW-5480
m/z	RELATIVE INTENSITY
13	20
14	129
15	849
16	10
17	20
18	70
25	20
26	209
27	829
28	269
29	899
30	369
31	2689
32	30
33	10
37	60
38	109
39	679
40	259
41	2329
42	4359
43	9999
44	299
45	279
47	10
49	20
50	60
51	40
52	20
53	99
54	70
55	289
56	129
57	1219
58	119
59	539
60	30
61	4269
62	119
63	30
67	20
69	679
70	50
71	399
72	739
73	269
74	30
75	20
83	40
84	909
85	229
86	20
87	199
88	10
101	10
102	129
103	30
