Mass Spectrum: Thiophene, 2-methyl-5-propyl-
Formula: C8 H12 S
CAS: 33933-73-2
Molecular weight: 140
m/z	RELATIVE INTENSITY
26	10
27	771
29	100
33	10
34	10
37	10
38	40
39	320
40	130
41	20
42	10
43	10
44	941
45	651
46	30
47	60
48	60
49	10
50	70
51	230
52	70
53	220
54	20
55	30
56	10
57	40
58	130
59	440
60	30
61	40
62	30
63	70
64	20
65	170
66	90
67	480
68	40
69	150
70	60
71	190
72	30
73	20
74	20
75	10
76	20
77	741
78	360
79	90
80	10
81	20
82	20
83	20
84	40
85	120
86	10
87	10
88	10
89	10
90	10
91	100
92	20
93	30
95	50
96	20
97	300
98	50
99	40
103	20
104	10
105	20
106	10
107	10
108	10
109	70
110	150
111	9999
112	741
113	480
114	30
121	20
122	20
123	140
124	50
125	70
126	10
135	10
137	30
138	20
139	60
140	2742
141	280
142	140
143	10
