Mass Spectrum: 1,2-Dimethoxy-4,5-dinitrobenzene
Formula: C8 H8 N2 O6
CAS: 3395-03-7
Molecular weight: 228
Origin: NIST Mass Spectrometry Data Center, 1994
m/z	RELATIVE INTENSITY
15	3159
17	138
18	215
25	64
30	7263
37	422
38	786
39	3101
40	329
41	53
42	453
43	1192
44	22
45	22
46	765
49	564
50	5723
51	1167
52	677
53	3821
54	994
55	637
56	424
57	196
58	22
59	1628
60	142
61	1035
62	1827
63	782
64	782
65	817
66	2092
67	778
68	767
69	4633
70	338
71	116
72	97
73	32
74	25
75	1773
76	426
77	1523
78	1887
79	463
80	1075
81	2558
82	1329
83	996
84	172
85	71
90	90
91	183
93	5480
94	788
95	622
96	541
97	237
98	80
99	176
104	122
105	99
106	568
107	189
108	197
109	1494
110	319
111	262
112	182
119	94
121	2075
122	328
123	600
124	556
125	1977
126	154
136	3811
137	1064
138	297
139	187
140	2859
141	205
152	136
153	472
164	74
167	99
180	146
183	115
198	177
212	209
228	9999
229	1002
230	175
