Mass Spectrum: 1,2-Cyclobutanedicarboxylic acid, dimethyl ester
Formula: C8 H12 O4
CAS: 3396-20-1
Molecular weight: 172
Origin: D.HENNEBERG, MAX-PLANCK INSTITUTE, MULHEIM, WEST GERMANY
m/z	RELATIVE INTENSITY
26	737
27	3492
28	1428
29	722
30	138
31	361
32	62
33	76
35	4
36	5
37	38
38	119
39	1638
40	528
41	1575
42	702
43	1100
44	78
45	901
46	22
47	15
49	17
50	193
51	400
52	338
53	3473
54	1587
55	1638
56	251
57	307
58	91
59	4016
60	120
61	33
62	5
63	7
64	3
65	20
66	36
67	128
68	124
69	437
70	74
71	912
72	47
73	7
74	53
75	83
77	7
78	6
79	68
80	128
81	3541
82	2377
83	704
84	233
85	411
86	25
87	65
88	11
90	38
91	20
92	5
93	7
94	13
95	21
96	13
97	860
98	99
99	136
100	19
101	26
106	3
107	10
108	35
109	1032
110	91
111	251
112	9999
113	4087
114	307
115	50
116	3
117	3
125	39
126	3
127	12
129	26
130	12
134	4
138	3
139	24
140	6542
141	4231
142	331
143	34
144	84
145	5
155	3
157	9
172	49
173	15
