Mass Spectrum: Trichloroacetic acid, pentyl ester
Formula: C7 H11 Cl3 O2
CAS: 33972-81-5
Molecular weight: 232
Origin: V.G.Zaikin, Petrochem. Synth. Inst., Moscow
m/z	RELATIVE INTENSITY
26	320
27	1932
28	440
29	2212
30	120
31	80
35	90
36	230
37	110
38	160
39	1191
40	280
41	2933
42	2672
43	9999
44	350
47	450
49	150
51	110
53	150
55	1952
56	140
57	150
63	70
69	651
70	1381
71	1952
72	130
82	490
83	120
84	390
85	70
86	60
110	340
111	30
112	190
117	470
118	50
119	490
120	50
121	160
