Mass Spectrum: 1,1'-Biphenyl, 2,2',4,4',6,6'-hexachloro-
Formula: C12 H4 Cl6
CAS: 33979-03-2
Molecular weight: 358
Origin: N. Todua, WGM, MMES
m/z	RELATIVE INTENSITY
44	182
45	122
47	182
48	122
49	182
50	182
56	122
60	182
61	253
62	182
63	122
66	122
67	122
71	182
72	182
73	375
74	375
75	182
78	182
79	182
83	122
84	253
85	314
86	253
87	182
91	253
92	182
95	182
96	182
97	253
98	314
99	182
106	122
107	182
108	314
109	557
111	436
112	253
114	182
115	182
116	122
119	182
120	253
121	253
122	314
123	182
124	122
126	496
127	436
128	253
131	182
132	253
133	253
134	182
135	182
142	122
144	810
145	932
146	679
147	314
148	253
156	182
157	182
158	182
159	182
160	182
161	253
162	253
163	253
164	182
167	182
168	182
169	182
170	122
171	122
179	253
180	375
181	436
182	436
183	375
184	253
185	182
191	122
192	182
193	182
194	182
195	182
203	182
204	182
205	182
206	182
207	182
215	122
216	182
217	253
218	810
219	314
220	618
221	182
222	253
228	182
229	122
230	182
238	182
240	182
242	182
243	122
252	314
253	436
254	314
255	375
256	253
257	253
258	182
264	182
288	2675
289	496
290	3414
291	557
292	1611
293	314
294	496
295	182
296	182
322	182
323	314
324	253
325	375
326	182
327	314
328	182
329	182
358	4903
359	679
360	9999
361	1307
362	8196
363	1175
364	3414
365	557
366	871
367	253
368	253
