Mass Spectrum: 1,3,5-Triazine-2,4-diamine, 6-chloro-
Formula: C3 H4 Cl N5
CAS: 3397-62-4
Molecular weight: 145
Origin: Japan AIST/NIMC Database- Spectrum MS-IW-6134
m/z	RELATIVE INTENSITY
13	20
16	10
26	20
27	179
28	409
29	20
34	10
35	30
36	209
38	80
39	20
40	30
41	159
42	1009
43	2679
44	60
47	10
52	40
53	90
56	10
61	20
62	459
63	10
64	149
66	10
67	209
68	2919
69	99
72	80
73	20
77	10
83	119
87	139
89	50
93	30
102	139
103	40
104	90
105	10
106	10
109	90
110	3069
111	159
129	139
131	40
145	9999
146	669
147	3229
148	209
