Mass Spectrum: Senecionanium, 12-(acetyloxy)-14,15,20,21-tetradehydro-15,20-dihydro-8-hydroxy-4-methyl-11,16-dioxo-, (8.xi.,12.beta.,14Z)-
Formula: C21 H28 N O7
CAS: 33979-15-6
Molecular weight: 406
Origin: CARL DJERASSI DEPT OF CHEM STANFORD UNIV STANFORD CALIF 94305
m/z	RELATIVE INTENSITY
34	208
37	938
40	2083
43	9999
45	2083
46	104
52	104
53	2813
54	208
55	1458
56	104
57	1146
58	1979
65	104
67	313
68	104
69	208
70	1042
71	104
77	521
78	417
79	1771
80	625
81	1667
82	938
83	1250
84	104
91	521
93	208
94	1146
95	625
96	833
97	208
98	104
100	625
105	104
107	1979
108	1354
109	625
110	2604
111	417
119	1042
120	208
121	104
122	1354
123	1146
124	104
128	313
133	313
134	521
135	6458
136	729
137	625
138	521
140	313
150	938
151	1771
152	1042
154	313
166	833
167	625
168	938
184	104
274	313
290	417
302	3542
303	625
304	104
305	104
318	625
319	104
346	208
361	104
405	3438
406	729
