Mass Spectrum: Furan, tetrahydro-2,2-dimethyl-5-(1-methylpropyl)-
Formula: C10 H20 O
CAS: 33978-70-0
Molecular weight: 156
m/z	RELATIVE INTENSITY
26	30
27	550
29	1141
30	30
31	110
38	20
39	571
40	210
41	1802
42	550
43	4584
44	330
45	190
50	10
51	50
52	20
53	270
54	100
55	2622
56	550
57	1161
58	90
59	1371
60	50
63	10
65	50
66	60
67	350
68	120
69	1021
70	2863
71	1001
72	60
73	10
77	60
78	20
79	260
80	40
81	9999
82	801
83	571
84	50
85	30
86	10
87	40
91	30
92	10
93	30
94	20
95	100
96	30
97	80
98	550
99	8938
100	641
101	40
105	10
107	20
108	10
109	190
110	20
111	30
112	10
121	10
123	480
124	50
125	20
126	20
127	10
137	10
138	50
139	40
141	100
142	10
154	20
155	50
156	10
