Mass Spectrum: 2-(1-Cyclohexenyl)ethylamine
Formula: C8 H15 N
CAS: 3399-73-3
Molecular weight: 125
Origin: NIST Mass Spectrometry Data Center
m/z	RELATIVE INTENSITY
15	20
18	20
26	30
27	450
28	80
29	200
30	9999
31	180
32	60
37	10
38	60
39	891
40	160
41	941
42	210
43	160
44	40
50	110
51	280
52	180
53	520
54	280
55	490
56	90
62	30
63	80
64	20
65	280
66	160
67	651
68	370
69	40
70	10
74	10
77	460
78	100
79	681
80	180
81	1201
82	140
89	10
91	270
92	30
93	200
94	290
95	260
96	430
97	30
103	10
105	10
107	10
108	621
109	50
122	10
125	520
126	50
