Mass Spectrum: Arsinous bromide, diethyl-
Formula: C4 H10 As Br
CAS: 3399-96-0
Molecular weight: 212
m/z	RELATIVE INTENSITY
77	467
78	867
89	667
101	1133
102	1333
103	2000
104	9999
105	1866
133	467
154	2000
155	2000
156	2000
157	2000
183	2466
184	3600
185	2200
186	3333
212	3733
213	200
214	3466
215	133
