Mass Spectrum: S-(-)-N,S-Dimethyl-S-phenylsulfoximine
Formula: C8 H11 N O S
CAS: 33993-53-2
Molecular weight: 169
Origin: NIST Mass Spectrometry Data Center, 1994
m/z	RELATIVE INTENSITY
12	49
13	45
14	293
15	1846
16	52
17	15
18	114
25	16
26	84
27	1008
28	2560
29	153
30	842
32	100
33	91
34	84
37	159
38	439
39	1637
40	133
41	82
42	1262
43	318
44	1052
45	1277
46	356
47	445
48	350
49	321
50	3128
51	8250
52	631
53	735
54	52
55	59
57	105
58	130
60	635
61	762
62	348
63	1719
64	388
65	1632
66	307
67	75
68	72
69	649
70	144
71	117
72	31
73	147
74	824
75	638
76	868
77	9999
78	2164
79	1973
80	224
81	318
82	224
83	73
84	122
85	135
86	23
89	68
91	1078
92	351
93	329
94	1465
95	322
96	23
97	2359
98	185
99	117
100	64
104	597
105	2247
106	8007
107	676
108	235
109	824
110	159
111	171
112	165
113	36
120	74
121	91
122	32
123	163
124	924
125	3650
126	972
127	224
128	49
136	57
137	30
138	79
139	89
140	751
141	1580
142	175
143	87
154	6378
155	534
156	336
157	31
168	283
169	2284
170	241
171	111
