Mass Spectrum: Cyclopentylcarboxylic acid
Formula: C6 H10 O2
CAS: 3400-45-1
Molecular weight: 114
Origin: NIST Mass Spectrometry Data Center, 1990.
m/z	RELATIVE INTENSITY
14	49
15	134
17	7
18	27
25	36
26	247
27	1273
28	323
29	480
30	38
31	150
32	11
37	178
38	395
39	2564
40	714
41	4631
42	1002
43	347
44	133
45	726
47	33
50	85
51	164
52	86
53	354
54	33
55	1322
56	88
57	124
58	102
59	56
60	187
61	47
62	71
63	87
64	43
65	262
66	143
67	1052
68	1506
69	2377
70	163
71	211
72	43
73	9999
74	370
75	51
81	71
86	2789
87	118
95	113
96	205
97	106
99	156
113	343
114	657
115	60
