Mass Spectrum: 3(2H)-Furanone, dihydro-5-methyl-
Formula: C5 H8 O2
CAS: 34003-72-0
Molecular weight: 100
Origin: DM6-188-U62
m/z	RELATIVE INTENSITY
26	350
27	1150
28	1800
29	1190
30	160
31	720
37	100
38	200
39	1350
40	3150
42	9999
43	1960
44	510
45	50
53	80
54	60
55	260
56	290
57	1000
58	1800
59	60
65	20
67	100
68	80
69	210
70	1520
71	250
72	550
82	20
83	50
84	30
85	210
97	30
98	20
99	40
100	3920
101	220
102	20
