Mass Spectrum: Tebuthiuron
Formula: C9 H16 N4 O S
CAS: 34014-18-1
Molecular weight: 228
Origin: ACCUSTANDARD Chemicals / NIST MS Data Center.
m/z	RELATIVE INTENSITY
15	485
17	23
18	86
26	119
27	860
28	95
29	565
30	262
32	36
33	55
37	75
38	163
39	986
40	235
41	1506
42	490
43	132
44	104
45	425
46	198
47	353
50	72
51	95
52	124
53	358
54	72
55	826
56	243
57	1076
58	188
59	571
60	201
61	124
62	309
65	111
67	262
68	137
69	250
70	143
71	306
72	141
73	476
74	2222
75	120
76	158
78	75
81	48
82	160
83	265
84	111
85	247
86	159
87	719
88	1285
89	777
90	97
94	99
95	74
97	65
98	63
99	74
100	118
101	199
113	88
114	72
125	91
128	92
129	327
154	103
156	9999
157	827
158	517
159	50
171	2983
172	366
173	123
