Mass Spectrum: Hexane, 2-methyl-4-methylene-
Formula: C8 H16
CAS: 3404-80-6
Molecular weight: 112
Origin: NIST Mass Spectrometry Data Center, 1990.
m/z	RELATIVE INTENSITY
15	165
26	195
27	1572
28	644
29	858
39	3194
40	763
41	5450
42	1981
43	4167
44	215
50	253
51	530
52	258
53	1181
55	8571
56	1624
57	434
63	153
65	327
66	160
67	787
68	270
69	1441
70	9999
71	844
77	254
79	276
81	217
83	1468
84	478
97	270
112	2137
113	232
