Mass Spectrum: 1,1'-Binaphthalene, 3,3'-dimethyl-
Formula: C22 H18
CAS: 34042-82-5
Molecular weight: 282
Origin: A. G. LOUDON
m/z	RELATIVE INTENSITY
113	400
115	200
118	200
119	200
125	500
126	1900
127	200
131	200
132	600
133	1000
138	300
139	300
140	200
141	700
225	200
235	200
239	500
250	400
251	200
252	2400
253	800
261	200
263	1100
264	600
265	2000
266	4700
267	4000
268	800
276	300
277	200
279	400
280	700
281	2700
282	9999
283	2300
284	300
