Mass Spectrum: 4-Methyl-2-hexene,c&t
Formula: C7 H14
CAS: 3404-55-5
Molecular weight: 98
Origin: Japan AIST/NIMC Database- Spectrum MS-NW-4619
m/z	RELATIVE INTENSITY
14	10
15	70
26	90
27	969
28	60
29	839
30	20
37	30
38	99
39	1289
40	229
41	7159
42	449
43	379
44	10
49	10
50	90
51	169
52	60
53	549
54	149
55	3269
56	1159
57	159
61	10
62	30
63	50
64	10
65	109
66	50
67	529
68	329
69	9999
70	1129
71	50
74	10
77	50
78	10
79	50
80	10
81	99
82	30
83	1019
84	80
97	20
98	2059
99	169
