Mass Spectrum: 1,3-Butadiene, 2-ethyl-
Formula: C6 H10
CAS: 3404-63-5
Molecular weight: 82
Origin: NIST Mass Spectrometry Data Center, 1990.
m/z	RELATIVE INTENSITY
14	86
15	353
26	750
27	3674
28	871
29	784
32	107
37	225
38	701
39	4859
40	1123
41	5021
42	761
43	244
49	227
50	1313
51	1585
52	905
53	2725
54	2289
55	1012
56	363
63	227
65	1660
67	9999
68	669
69	744
77	293
79	643
80	175
81	1096
82	3395
83	279
