Mass Spectrum: 1-Pentene, 2,3-dimethyl-
Formula: C7 H14
CAS: 3404-72-6
Molecular weight: 98
Origin: NIST Mass Spectrometry Data Center, 1990.
m/z	RELATIVE INTENSITY
15	388
18	55
26	280
27	2496
28	151
29	1604
30	51
37	121
38	347
39	3811
40	783
41	9999
42	807
43	616
44	52
50	286
51	494
52	203
53	1118
54	52
55	5391
56	1528
57	190
62	70
63	109
65	264
67	965
69	8568
70	3248
71	175
77	116
79	122
81	123
83	2252
84	155
98	1226
99	102
