Mass Spectrum: 4-Methyl-2-heptene
Formula: C8 H16
CAS: 3404-56-6
Molecular weight: 112
Origin: NIST Mass Spectrometry Data Center, 1990.
m/z	RELATIVE INTENSITY
15	109
27	1209
28	361
29	856
39	2723
41	6222
42	800
43	595
44	80
50	170
51	375
52	182
53	1148
54	80
55	5375
56	840
57	105
63	121
65	328
67	1397
69	9999
70	3669
71	203
77	166
79	177
81	120
83	770
84	416
97	524
112	1940
113	196
