Mass Spectrum: 1-Butanamine, N-butyl-N-methyl-
Formula: C9 H21 N
CAS: 3405-45-6
Molecular weight: 143
Origin: CARL DJERASSI DEPT OF CHEM STANFORD UNIV STANFORD CALIF 94305
m/z	RELATIVE INTENSITY
15	100
18	100
27	400
28	200
29	1000
30	300
31	100
41	900
42	1000
43	500
44	3300
45	100
55	200
56	100
57	900
58	3500
59	100
69	100
70	200
71	100
72	300
73	100
83	100
84	200
85	100
86	300
87	100
98	200
99	100
100	9999
101	700
112	100
114	100
115	100
126	100
127	100
128	100
129	100
142	100
143	1300
