Mass Spectrum: N-Methyl-N-propyl-propylamine
Formula: C7 H17 N
CAS: 3405-42-3
Molecular weight: 115
Origin: AIR PRODUCTS & CHEMICALS, INC BOX 538, ALLENTOWN, PA 18105, D M PAREES
m/z	RELATIVE INTENSITY
27	610
29	190
30	180
39	310
41	860
42	1250
43	1140
44	4480
45	130
56	130
57	300
58	1010
70	190
72	370
84	280
86	9999
87	650
114	190
115	1710
116	150
