Mass Spectrum: Cyclopentene, 3-propyl-
Formula: C8 H14
CAS: 34067-75-9
Molecular weight: 110
Origin: CONTINENTAL OIL CO., PONCA CITY, OKLA, USA
m/z	RELATIVE INTENSITY
13	14
14	55
15	285
16	12
24	4
25	13
26	193
27	1505
28	351
29	479
30	14
36	6
37	65
38	192
39	1705
40	330
41	2003
42	176
43	133
44	5
49	16
50	149
51	309
52	161
53	489
54	245
55	267
56	77
57	15
58	5
61	19
62	46
63	128
64	48
65	456
66	991
67	9999
68	900
69	244
70	41
71	7
73	5
74	20
75	23
76	17
77	333
78	109
79	555
80	148
81	679
82	200
83	42
84	21
85	5
89	9
90	7
91	86
92	20
93	67
94	12
95	180
96	42
97	8
98	5
103	6
104	4
105	9
106	7
107	11
108	55
109	53
110	1003
111	88
112	3
