Mass Spectrum: [1,1'-Biphenyl]-4,4'-disulfonyl dichloride
Formula: C12 H8 Cl2 O4 S2
CAS: 3406-84-6
Molecular weight: 350
Origin: Japan AIST/NIMC Database- Spectrum MS-NW-6211
m/z	RELATIVE INTENSITY
16	20
26	30
27	119
28	20
29	10
32	20
35	119
36	759
37	40
38	249
39	259
40	10
41	10
43	20
44	50
45	60
48	459
49	40
50	529
51	459
52	80
53	20
55	20
56	10
57	30
58	10
60	10
61	50
62	299
63	1329
64	919
65	40
66	60
67	10
69	109
70	50
71	20
72	20
73	30
74	429
75	809
76	3209
77	249
78	80
79	70
80	30
81	30
82	30
83	30
84	60
85	90
86	169
87	259
88	99
89	129
90	20
91	99
92	50
93	90
94	50
95	20
96	10
97	20
98	159
99	189
100	269
101	209
102	319
103	30
105	30
106	10
107	10
108	549
109	50
110	40
111	139
112	70
113	179
114	109
115	60
116	10
117	20
121	20
122	40
123	30
124	20
125	229
126	759
127	139
128	60
129	10
132	30
133	10
134	10
135	10
136	30
137	30
138	50
139	579
140	359
141	50
142	10
144	10
145	30
146	10
147	10
149	119
150	1009
151	2939
152	9999
153	1399
154	159
155	30
156	40
157	10
158	10
159	10
160	30
161	20
162	10
167	149
168	289
169	60
170	20
171	90
172	40
173	20
175	70
176	10
177	20
182	30
183	80
184	60
185	30
186	139
187	249
188	209
189	90
190	60
191	10
199	30
200	179
201	40
202	40
203	60
204	20
205	20
207	10
215	10
216	149
217	70
218	20
219	20
221	10
222	50
223	10
224	30
225	10
226	10
232	10
234	10
235	20
237	10
239	10
249	10
250	20
251	3769
252	579
253	1439
254	229
255	90
256	10
267	149
268	30
269	60
270	10
278	10
280	10
282	10
283	20
284	20
285	10
286	90
287	20
288	60
289	10
290	10
295	10
299	149
300	30
301	70
302	20
303	10
314	10
315	4949
316	759
317	2199
318	339
319	209
320	30
321	10
350	2879
351	449
352	2199
353	339
354	519
355	90
356	40
