Mass Spectrum: Phenol, 2-(2-benzothiazolyl)-
Formula: C13 H9 N O S
CAS: 3411-95-8
Molecular weight: 227
Origin: NIST Mass Spectrometry Data Center, 1994
m/z	RELATIVE INTENSITY
17	21
18	58
26	65
27	52
28	83
32	49
37	226
38	698
39	1668
40	103
41	26
42	28
45	770
46	41
47	54
49	53
50	685
51	745
52	354
53	189
54	32
55	38
57	124
58	566
60	40
61	168
62	548
63	1936
64	856
65	1166
66	105
69	2595
70	325
71	216
72	49
73	123
74	220
75	363
76	273
77	375
78	103
79	27
80	27
81	314
82	1084
83	136
84	82
85	71
86	1093
88	108
89	118
90	168
91	359
92	112
93	205
94	78
95	158
96	345
97	78
99	287
100	811
101	93
102	160
103	78
104	40
105	61
106	81
107	174
108	911
109	764
110	98
111	39
114	278
115	68
116	162
117	38
119	27
120	60
121	52
122	213
125	22
126	59
127	173
128	181
129	50
133	92
134	80
135	46
137	29
138	31
139	113
140	152
141	32
145	106
146	116
147	41
148	35
149	54
152	30
153	80
154	364
155	125
159	76
160	305
161	38
164	59
166	551
167	698
168	105
169	34
170	42
171	273
172	206
173	826
174	117
175	48
184	28
186	131
196	125
197	509
198	3036
199	4522
200	772
201	233
202	33
227	9999
228	1655
229	603
230	70
