Mass Spectrum: Isoproturon
Formula: C12 H18 N2 O
CAS: 34123-59-6
Molecular weight: 206
Origin: P.A. Leclercq, Lab. Instrum. Anal., Tech. Univ. Eindhoven, Netherlands
m/z	RELATIVE INTENSITY
51	303
56	606
63	303
65	606
72	9999
73	606
78	606
79	303
89	303
91	909
92	303
103	303
117	303
118	303
119	606
120	303
121	606
128	303
132	606
133	303
134	606
135	303
146	3030
147	606
148	303
160	303
161	909
162	303
163	606
191	1818
192	303
206	3636
207	606
