Mass Spectrum: Trisulfide, methyl 2-propenyl
Formula: C4 H8 S3
CAS: 34135-85-8
Molecular weight: 152
Origin: NIST Mass Spectrometry Data Center
m/z	RELATIVE INTENSITY
26	40
27	150
29	20
32	110
33	40
34	20
35	10
36	10
37	150
38	360
39	2933
40	230
41	4354
42	150
43	10
44	100
45	5005
46	1041
47	2452
48	180
49	110
50	10
53	80
54	40
55	60
56	10
57	80
58	240
59	210
60	100
61	300
62	20
63	10
64	1902
65	240
66	210
67	20
68	50
69	330
70	60
71	821
72	320
73	9809
74	430
75	430
76	60
77	70
78	140
79	1792
80	250
81	170
82	20
85	60
86	10
87	9999
88	1221
89	510
90	60
91	30
93	10
96	120
97	30
98	20
103	420
104	100
105	550
106	70
107	50
108	10
109	10
110	50
111	1802
112	140
113	250
114	20
115	10
119	10
120	10
152	841
153	60
154	110
155	10
156	10
