Mass Spectrum: Bibenzyl, 3-chloro-
Formula: C14 H13 Cl
CAS: 34176-92-6
Molecular weight: 216
m/z	RELATIVE INTENSITY
39	480
40	30
41	180
51	350
52	70
55	140
62	90
63	360
64	90
65	871
66	50
75	150
76	130
77	250
78	80
89	571
90	190
91	9999
92	771
99	120
101	90
102	70
103	120
104	60
125	841
126	290
127	310
128	120
141	100
165	90
178	130
179	90
216	1451
217	230
218	470
219	70
