Mass Spectrum: Benzonitrile, m-phenethyl-
Formula: C15 H13 N
CAS: 34176-91-5
Molecular weight: 207
m/z	RELATIVE INTENSITY
39	751
40	60
41	210
43	140
50	230
51	510
52	160
62	120
63	460
64	160
65	1551
66	130
75	180
76	200
77	370
78	140
89	550
90	170
91	9999
92	751
93	50
102	100
103	90
116	300
117	40
141	130
207	2042
208	380
209	30
