Mass Spectrum: Isomaltol
Formula: C6 H6 O3
CAS: 3420-59-5
Molecular weight: 126
Origin: W. KELLY UNILEVER RESEARCH COLWORTH/WELWYN, BEDFORD U.K.
m/z	RELATIVE INTENSITY
26	800
27	1200
29	800
37	160
38	180
39	270
40	70
41	180
42	500
43	2700
44	830
51	140
52	140
53	480
54	430
55	2200
56	190
58	500
67	100
69	180
71	100
72	60
83	450
84	520
97	100
108	60
111	9999
112	600
126	6300
127	440
128	60
