Mass Spectrum: 1H-Indole, 6-methyl-
Formula: C9 H9 N
CAS: 3420-02-8
Molecular weight: 131
Origin: Japan AIST/NIMC Database- Spectrum MS-IW-1271
m/z	RELATIVE INTENSITY
27	50
28	80
37	20
38	50
39	139
40	10
41	10
49	10
50	179
51	469
52	279
53	60
54	10
61	30
62	109
63	239
64	479
65	579
66	50
73	10
74	99
75	149
76	179
77	1169
78	219
79	30
80	10
82	10
85	10
86	20
87	40
88	30
89	90
90	20
91	20
98	20
99	10
100	10
101	139
102	439
103	989
104	219
105	20
107	20
114	10
115	20
116	20
127	10
128	309
129	199
130	9999
131	8269
132	789
133	30
