Mass Spectrum: 2,4-Dichloro-.omega.-nitrostyrene
Formula: C8 H5 Cl2 N O2
CAS: 34209-97-7
Molecular weight: 217
Origin: NIST Mass Spectrometry Data Center, 1994
m/z	RELATIVE INTENSITY
16	32
17	99
18	249
25	94
30	4019
35	220
36	369
37	969
38	865
39	630
46	851
47	222
48	153
49	1160
50	4001
51	2416
52	187
55	77
60	287
61	1450
62	1684
63	1857
64	203
68	1192
69	481
71	84
72	433
73	1743
74	3894
75	5358
76	581
77	80
84	951
85	1300
86	1129
87	999
88	355
89	1209
90	641
91	169
96	228
97	773
98	1792
99	9999
100	1950
101	1821
102	458
103	69
106	63
107	116
108	382
109	1807
110	556
111	943
112	259
113	252
114	228
115	140
117	100
118	128
119	131
120	78
121	142
122	63
123	1577
124	625
125	697
126	535
127	222
128	177
129	64
130	137
132	91
133	302
134	581
135	5645
136	5863
137	2282
138	2132
139	243
140	91
145	195
146	291
147	156
148	229
149	109
150	587
151	91
152	7541
153	736
154	2469
155	265
156	87
159	1474
160	214
161	988
162	111
163	193
165	105
166	275
168	126
170	5539
171	1170
172	3629
173	1145
174	823
175	424
176	117
182	6603
183	557
184	2104
185	400
186	91
187	203
217	2516
218	253
219	1744
220	143
221	233
