Mass Spectrum: 3-Acetoxybenzaldehyde
Formula: C9 H8 O3
CAS: 34231-78-2
Molecular weight: 164
Origin: NIST Mass Spectrometry Data Center
m/z	RELATIVE INTENSITY
11	10
12	10
13	50
14	210
15	991
18	20
25	20
26	90
27	110
29	440
31	20
36	10
37	240
38	821
39	1932
40	210
41	90
43	9999
44	250
45	10
49	70
50	500
51	530
52	50
53	170
54	10
55	60
60	20
61	180
62	440
63	1241
64	721
65	1742
66	440
67	30
73	50
74	190
75	120
76	180
77	210
78	30
79	20
91	30
92	260
93	1491
94	460
95	30
105	80
106	10
107	20
119	20
121	6726
122	7457
123	611
124	50
164	1872
165	200
166	10
