Mass Spectrum: 3-Isopropylbenzaldehyde
Formula: C10 H12 O
CAS: 34246-57-6
Molecular weight: 148
Origin: Philip Morris R&D
m/z	RELATIVE INTENSITY
39	1109
41	947
45	262
50	403
51	1451
55	161
63	343
65	464
73	40
74	383
75	20
76	202
77	2540
78	585
79	1814
89	141
91	1512
92	20
102	20
103	1472
104	444
105	4475
106	323
115	423
117	121
119	1613
121	20
131	40
133	9999
134	968
147	282
148	6733
149	847
