Mass Spectrum: 1-Chloropyrene
Formula: C16 H9 Cl
CAS: 34244-14-9
Molecular weight: 236
Origin: NIST Mass Spectrometry Data Center, 1990.
m/z	RELATIVE INTENSITY
17	47
18	110
28	178
39	110
50	107
51	139
61	63
62	175
63	177
67	59
74	519
75	241
76	68
79	42
85	111
86	293
87	808
97	55
98	354
99	1361
100	3309
105	107
110	158
111	134
118	1880
119	566
121	44
122	149
123	175
124	50
134	73
135	80
146	66
148	57
149	109
150	278
151	108
161	68
173	141
174	472
175	240
197	185
198	791
199	1112
200	3628
201	3143
202	522
207	21
234	84
236	9999
237	2029
238	3372
239	649
240	88
