Mass Spectrum: N-Acetyl-dl-alanine methylamide
Formula: C6 H12 N2 O2
CAS: 34276-27-2
Molecular weight: 144
Origin: Japan AIST/NIMC Database- Spectrum MS-IW-1964
m/z	RELATIVE INTENSITY
14	30
15	579
16	10
26	30
27	159
28	639
29	90
30	1389
31	60
32	189
39	20
40	40
41	119
42	839
43	2539
44	9999
45	559
46	20
53	10
54	20
55	139
56	179
57	80
58	1099
59	239
60	90
68	40
69	90
70	60
71	20
72	1579
73	70
83	10
84	40
85	80
86	4329
87	8079
88	399
89	20
101	80
113	10
114	40
126	30
129	40
144	40
