Mass Spectrum: Trimethyl(n-octyl)silane
Formula: C11 H26 Si
CAS: 3429-76-3
Molecular weight: 186
Origin: V.G.Zaikin, TIPS, Russian Acad. Sci.
m/z	RELATIVE INTENSITY
41	670
42	180
43	850
44	480
45	540
46	120
55	240
56	60
57	180
58	200
59	1851
60	250
61	300
72	300
73	9999
74	850
75	380
85	180
87	420
99	240
101	260
171	1541
172	240
173	180
186	10
