Mass Spectrum: Dimethyl-dioctyl-silane
Formula: C18 H40 Si
CAS: 3429-75-2
Molecular weight: 284
Origin: ASES Database, Dalian Institute, P.R. China
m/z	RELATIVE INTENSITY
59	5384
73	2302
85	710
87	1791
99	1301
101	1090
111	690
113	490
115	590
157	700
171	9999
172	1581
269	100
