Mass Spectrum: D-Gluconic acid, 6TMS derivative
Formula: C24 H60 O7 Si6
CAS: 34290-52-3
Molecular weight: 628
Origin: G.A.REINECCIUS UNIV. OF MINNESOTA, ST. PAUL, MINN., USA
m/z	RELATIVE INTENSITY
45	280
59	160
72	140
73	9999
74	800
75	780
101	100
103	1470
104	140
117	650
129	390
131	200
133	490
143	200
147	3220
148	550
149	380
157	190
189	590
190	160
191	400
204	800
205	2500
206	560
207	360
217	1750
218	400
219	470
220	160
221	350
229	220
245	130
277	700
278	210
279	130
291	240
292	2970
293	970
294	490
295	100
299	130
305	1430
306	510
307	860
308	240
309	110
319	2190
320	690
321	550
322	150
331	190
333	3310
334	1030
335	560
336	120
345	130
359	600
360	190
361	110
393	110
394	110
422	100
423	1000
424	380
425	210
433	390
434	160
435	530
436	190
437	110
