Mass Spectrum: 3-Mercapto-3-methylbutanol
Formula: C5 H12 O S
CAS: 34300-94-2
Molecular weight: 120
Origin: W.Holscher ET AL.J.Agr.Food Chem.,40,655(1992)
m/z	RELATIVE INTENSITY
34	150
37	170
38	280
39	4044
40	921
41	9999
42	971
43	2092
44	510
45	1271
47	621
49	110
50	170
53	881
55	831
56	550
57	661
58	150
59	881
61	150
63	130
65	130
67	701
68	921
69	6816
70	220
71	2042
72	180
73	150
74	150
75	941
85	530
86	1631
87	921
88	110
89	90
103	110
120	150
