Mass Spectrum: 1-Adamantanethiol
Formula: C10 H16 S
CAS: 34301-54-7
Molecular weight: 168
Origin: L.N.Kulikova, V.G. Zaikin, Peoples' Friendship University of Russia, Moscow
m/z	RELATIVE INTENSITY
27	60
28	10
29	30
39	190
40	30
41	290
43	20
45	50
47	30
51	40
52	20
53	130
55	210
56	20
57	20
59	20
65	140
66	40
67	480
68	20
69	110
77	420
78	150
79	1381
80	170
81	410
91	450
92	120
93	1351
94	150
95	40
105	90
107	450
108	30
111	100
119	20
133	20
135	9999
136	1361
137	60
168	681
169	50
170	20
