Mass Spectrum: 2-Cyclohexen-1-one, 4-(3-hydroxy-1-butenyl)-3,5,5-trimethyl-
Formula: C13 H20 O2
CAS: 34318-21-3
Molecular weight: 208
Origin: Philip Morris R&D
m/z	RELATIVE INTENSITY
38	68
39	802
40	252
41	1052
42	79
43	2717
44	100
45	2015
46	42
50	24
51	160
52	119
53	405
54	85
55	524
56	117
57	161
58	92
59	47
60	33
62	25
63	56
65	276
66	123
67	409
68	56
69	379
70	40
71	258
77	449
78	128
79	512
80	312
81	508
82	212
83	162
84	23
85	33
90	53
91	605
92	90
93	185
94	163
95	1006
96	78
97	37
99	21
103	33
105	137
106	60
107	657
108	9999
109	2629
110	259
111	64
115	22
117	38
119	65
121	96
122	67
123	336
124	91
133	60
134	76
135	648
136	74
137	198
138	83
147	20
149	78
150	57
151	170
152	1834
153	184
165	172
166	36
175	45
193	68
208	243
