Mass Spectrum: Lactic acid dimer, bis(trimethylsilyl)-
Formula: C12 H26 O5 Si2
CAS: 343224-19-1
Molecular weight: 306
Origin: O A MAMER, MCGILL UNIVERSITY, MONTRE
m/z	RELATIVE INTENSITY
26	160
27	232
28	129
29	232
31	99
32	255
43	718
44	355
45	1247
46	114
47	347
51	110
55	1162
56	501
58	558
59	521
60	119
61	333
66	428
67	154
72	331
73	9999
74	944
75	1846
76	177
86	121
87	259
88	1068
89	136
101	304
102	307
103	175
115	111
116	165
117	8289
118	910
119	510
129	805
130	199
131	248
133	263
145	340
147	1898
148	337
149	219
162	123
185	148
191	637
192	144
215	238
218	678
219	908
220	106
221	111
227	192
233	103
262	144
291	449
292	153
