Mass Spectrum: (1-Ethyl-2-pyrrolidinyl)methanol
Formula: C7 H15 N O
CAS: 3433-34-9
Molecular weight: 129
Origin: Japan AIST/NIMC Database- Spectrum MS-NW-5450
m/z	RELATIVE INTENSITY
14	20
15	159
16	10
17	179
18	169
26	99
27	629
28	399
29	619
30	379
31	239
32	10
37	10
38	30
39	359
40	90
41	919
42	629
43	709
44	399
45	30
46	10
50	30
51	50
52	60
53	139
54	269
55	419
56	519
57	169
58	269
59	20
65	30
66	20
67	159
68	589
69	209
70	2599
71	249
72	80
73	20
74	50
77	10
78	20
79	40
80	129
81	50
82	309
83	119
84	159
85	30
86	80
88	20
92	10
93	20
94	60
95	50
96	659
97	199
98	9999
99	729
100	80
101	10
106	10
107	10
108	60
109	60
110	139
111	219
112	90
113	10
114	189
115	10
123	10
124	10
125	20
126	10
127	20
128	149
129	70
130	10
