Mass Spectrum: 2-Piperidinemethanol
Formula: C6 H13 N O
CAS: 3433-37-2
Molecular weight: 115
Origin: NIST Mass Spectrometry Data Center
m/z	RELATIVE INTENSITY
13	250
15	430
16	180
26	240
27	1371
28	2803
29	821
30	1802
31	871
32	40
38	180
39	1181
40	300
41	1581
42	1431
43	520
44	540
53	180
54	591
55	1441
56	4804
57	410
67	550
68	460
69	350
70	180
72	200
80	260
82	350
84	9999
85	621
115	150
