Mass Spectrum: 2-(4-Biphenylyl)-2-propanol
Formula: C15 H16 O
CAS: 34352-74-4
Molecular weight: 212
Origin: NIST Mass Spectrometry Data Center
m/z	RELATIVE INTENSITY
15	390
16	10
18	20
19	10
27	200
28	50
29	160
31	240
37	10
39	310
40	40
41	180
43	9999
44	230
45	30
50	200
51	400
52	80
53	30
55	10
57	40
58	10
59	180
61	20
62	80
63	260
64	50
65	80
69	20
70	10
74	110
75	180
76	360
77	310
78	60
79	10
82	60
83	110
85	10
86	40
87	80
88	80
89	160
91	80
94	10
95	10
98	320
100	20
101	50
102	120
103	20
105	10
106	20
110	10
111	10
113	30
115	200
116	30
117	10
125	30
126	150
127	140
128	120
129	30
137	10
139	80
140	10
141	40
150	130
151	350
152	1041
153	561
154	360
155	110
156	10
163	20
165	190
166	50
167	120
168	40
169	110
170	20
176	60
177	60
178	230
179	140
180	40
181	190
182	30
189	10
191	10
194	190
195	100
197	3653
198	550
199	50
212	851
213	140
214	10
