Mass Spectrum: Benzonitrile, 4-ethenyl-
Formula: C9 H7 N
CAS: 3435-51-6
Molecular weight: 129
Origin: A.A.Kutin, Moscow, Russia
m/z	RELATIVE INTENSITY
36	3
37	25
38	31
39	83
40	3
41	3
43	1
45	1
49	28
50	212
51	321
52	84
53	10
54	4
55	1
56	0
61	40
62	70
63	153
64	129
66	2
68	9
71	2
72	7
73	34
74	158
75	354
76	443
77	326
78	226
79	25
80	3
83	2
84	4
85	13
86	21
87	45
88	49
89	41
90	15
91	8
96	3
97	10
98	44
99	94
100	189
101	722
102	2020
103	1299
104	102
105	5
108	7
109	4
110	4
111	6
112	6
114	40
115	6
119	5
122	2
123	10
124	5
127	384
128	3106
129	9999
130	1222
131	54
