Mass Spectrum: Benzoic acid, 4-[(1,3-dioxobutyl)amino]-
Formula: C11 H11 N O4
CAS: 34376-24-4
Molecular weight: 221
Origin: Japan AIST/NIMC Database- Spectrum MS-IW- 958
m/z	RELATIVE INTENSITY
15	60
17	219
18	1369
26	20
27	80
28	169
29	40
30	10
31	20
37	20
38	60
39	229
40	30
41	109
42	119
43	3549
44	149
45	40
46	20
50	50
51	70
52	60
53	70
54	40
55	50
56	10
57	40
58	999
59	30
60	30
61	10
62	40
63	169
64	149
65	779
66	99
67	20
68	10
69	299
70	10
71	20
73	10
74	20
75	30
76	30
77	80
78	30
79	40
80	30
81	80
82	10
83	10
84	379
85	639
86	30
89	20
90	149
91	179
92	779
93	139
94	20
95	10
97	10
103	20
104	50
105	30
106	40
107	10
108	70
109	40
110	10
111	10
117	10
118	99
119	249
120	4669
121	429
122	30
132	20
133	20
134	80
135	30
136	129
137	9999
138	829
139	70
144	10
146	509
147	50
148	10
149	30
150	50
160	30
161	20
162	20
163	129
164	529
165	50
172	20
176	10
177	10
178	60
179	109
180	10
203	20
204	80
205	10
221	3949
222	519
223	60
