Mass Spectrum: Pyrrolidine, 3-methyl-
Formula: C5 H11 N
CAS: 34375-89-8
Molecular weight: 85
Origin: AP-2099
m/z	RELATIVE INTENSITY
12	15
13	24
14	102
15	574
16	20
17	60
24	1
25	14
26	199
27	891
28	1775
29	586
30	755
31	14
36	4
37	50
38	112
39	740
40	162
41	1207
42	1027
43	9999
44	443
45	9
47	3
48	2
49	13
50	66
51	84
52	95
53	121
54	103
55	403
56	408
57	236
58	19
65	18
66	7
67	140
68	323
69	109
70	177
71	10
79	3
80	41
81	11
82	125
83	53
84	1481
85	2287
86	145
87	5
