Mass Spectrum: Thiophene, 2-iodo-
Formula: C4 H3 I S
CAS: 3437-95-4
Molecular weight: 210
Origin: RADIAN CORP
m/z	RELATIVE INTENSITY
26	30
32	70
37	140
38	200
39	1370
40	40
44	70
45	340
49	80
50	140
56	50
57	830
58	130
59	30
69	50
80	30
81	350
82	320
83	2170
84	130
85	100
127	1290
128	40
139	30
152	70
159	50
164	20
165	180
171	60
184	80
210	9999
211	510
212	460
