Mass Spectrum: N-Methyl-L-prolinol
Formula: C6 H13 N O
CAS: 34381-71-0
Molecular weight: 115
Origin: Chuck Anderson, Aldrich Chemical Co.
m/z	RELATIVE INTENSITY
15	154
18	29
26	51
27	296
28	330
29	244
30	187
31	175
32	7
36	38
38	36
39	240
40	60
41	419
42	2187
43	185
44	337
51	6
53	62
54	112
55	238
56	93
57	269
58	78
65	6
67	142
68	93
69	101
70	357
71	14
72	72
80	90
81	52
82	1312
83	160
84	9999
85	585
86	81
94	6
96	40
114	100
115	101
