Mass Spectrum: Benzene, bromopentafluoro-
Formula: C6 Br F5
CAS: 344-04-7
Molecular weight: 246
Origin: Japan AIST/NIMC Database- Spectrum MS-NW-6009
m/z	RELATIVE INTENSITY
12	20
14	10
24	20
31	1949
36	109
43	20
48	40
50	20
55	299
56	10
60	90
62	30
67	109
69	139
72	20
74	529
75	20
79	1079
80	70
81	119
82	20
83	10
86	419
87	20
91	40
93	1519
94	60
98	1519
99	109
105	90
110	159
111	10
112	10
113	10
114	10
115	10
117	6559
118	379
119	10
122	10
123	509
124	519
127	10
129	159
130	10
131	10
134	30
136	179
137	10
139	10
146	20
148	929
149	70
153	70
155	80
158	20
160	20
165	10
167	5989
168	439
169	10
177	129
178	10
179	119
184	10
196	10
215	129
216	10
217	129
227	179
228	20
229	189
230	20
246	9999
247	699
248	9679
249	669
250	20
