Mass Spectrum: 1,3,5-Triazin-2-amine, 4,6-dichloro-N-ethyl-
Formula: C5 H6 Cl2 N4
CAS: 3440-19-5
Molecular weight: 192
m/z	RELATIVE INTENSITY
94	1001
96	300
102	200
104	200
110	701
112	200
114	200
116	100
123	400
124	200
125	200
129	1201
130	200
131	500
149	400
151	200
164	2502
165	300
166	1702
167	200
168	400
177	9999
178	701
179	6706
180	400
181	1201
182	100
191	901
192	4804
193	1001
194	3003
195	500
196	601
197	100
