Mass Spectrum: Pyrene, 2-methyl-
Formula: C17 H12
CAS: 3442-78-2
Molecular weight: 216
m/z	RELATIVE INTENSITY
36	10
37	10
38	50
39	160
40	10
41	30
42	10
43	10
44	20
45	10
50	140
51	110
52	20
53	10
55	10
56	20
57	20
61	20
62	110
63	190
64	20
65	10
67	20
68	20
69	10
71	80
72	40
73	10
74	160
75	120
76	40
77	20
78	10
79	10
80	20
81	60
82	30
85	60
86	120
87	180
88	50
89	20
93	90
94	320
95	470
96	10
97	10
98	110
99	90
100	160
101	70
102	10
105	50
106	270
107	450
108	1301
109	40
110	70
111	80
112	20
113	30
114	10
115	10
122	50
123	30
124	10
125	10
126	20
133	10
134	30
135	30
136	10
137	30
138	10
139	30
146	10
147	10
148	10
149	20
150	60
151	30
152	10
158	10
159	10
161	40
162	40
163	130
164	30
165	20
173	10
174	70
175	40
176	40
177	10
185	40
186	60
187	310
188	160
189	821
190	140
191	10
198	60
199	70
200	310
201	120
202	80
203	20
210	30
211	230
212	110
213	1161
214	320
215	3813
216	9999
217	1802
218	240
219	30
