Mass Spectrum: Tetradecanoic acid, 2-hydroxy-1-(hydroxymethyl)ethyl ester
Formula: C17 H34 O4
CAS: 3443-83-2
Molecular weight: 302
m/z	RELATIVE INTENSITY
26	200
27	2202
28	701
29	5005
30	200
31	1301
32	100
39	1201
40	300
41	7507
42	2002
43	9999
44	1101
45	1501
46	100
47	100
53	500
54	701
55	7307
56	2502
57	8708
58	500
59	400
60	2903
61	1702
67	1101
68	701
69	4204
70	1101
71	4204
72	300
73	3603
74	7106
75	2202
76	100
77	100
79	300
80	200
81	1001
82	601
83	2602
84	5205
85	2602
86	200
87	1902
88	200
89	100
91	100
93	500
94	200
95	1201
96	500
97	2002
98	7707
99	901
100	200
101	601
102	100
107	200
108	100
109	701
110	300
111	1301
112	2602
113	500
115	601
116	2002
117	300
121	300
123	300
124	200
125	500
126	500
127	200
129	1902
130	200
134	4304
135	400
137	200
138	100
139	200
140	300
143	601
147	601
153	100
154	801
155	200
157	200
166	200
167	200
168	300
169	100
171	300
176	200
181	100
185	801
186	100
199	400
209	100
210	701
211	9609
212	1601
213	200
228	1301
229	2702
230	400
241	100
242	801
243	100
271	1401
272	200
284	100
285	300
302	100
303	100
