Mass Spectrum: 17-Octadecynoic acid
Formula: C18 H32 O2
CAS: 34450-18-5
Molecular weight: 280
Origin: NIST Mass Spectrometry Data Center
m/z	RELATIVE INTENSITY
15	10
16	10
17	20
26	30
27	631
28	190
29	1151
30	50
31	70
35	10
36	50
37	20
38	50
39	1201
40	350
41	6055
42	1011
43	3894
44	200
45	821
46	20
47	10
50	60
51	220
52	160
53	1431
54	2752
55	9999
56	1211
57	1822
58	270
59	520
60	2272
61	270
62	20
63	30
64	30
65	420
66	420
67	6095
68	3083
69	4094
70	591
71	661
72	90
73	1391
74	130
75	70
76	20
77	410
78	120
79	1451
80	831
81	8818
82	5465
83	3043
84	1231
85	400
86	80
87	300
88	30
89	20
90	10
91	340
92	100
93	701
94	731
95	4934
96	4324
97	2502
98	1912
99	290
100	170
101	260
102	40
103	30
104	50
105	160
106	50
107	430
108	380
109	2142
110	991
111	901
112	460
113	180
114	170
115	150
116	50
117	40
118	40
119	140
120	50
121	420
122	220
123	781
124	310
125	340
126	170
127	220
128	170
129	130
130	30
131	60
132	30
133	130
134	60
135	290
136	180
137	320
138	180
139	140
140	80
141	70
142	40
143	30
144	20
145	40
146	10
147	70
148	40
149	190
150	100
151	160
152	90
153	80
154	50
155	30
156	20
157	20
158	10
159	30
160	20
161	40
162	30
163	90
164	60
165	70
166	30
167	60
168	50
169	30
170	30
171	20
172	10
173	30
174	10
175	20
176	10
177	40
178	30
179	30
180	30
181	50
182	20
183	10
185	20
187	10
189	10
190	10
191	30
192	10
193	20
194	10
195	30
196	20
198	10
199	10
201	20
202	10
203	10
204	10
205	30
206	10
207	10
208	10
209	20
210	10
211	10
213	10
216	10
217	10
219	10
220	10
221	10
222	10
223	30
224	10
233	10
234	10
235	10
236	10
237	20
247	10
248	10
249	10
250	10
251	10
252	10
261	10
263	10
264	10
265	10
277	10
