Mass Spectrum: N-(2-Hydroxyethyl)-2-pyrrolidone
Formula: C6 H11 N O2
CAS: 3445-11-2
Molecular weight: 129
Origin: NIST Mass Spectrometry Data Center, 1990.
m/z	RELATIVE INTENSITY
13	38
14	158
15	886
16	10
17	62
18	255
19	132
26	458
27	1737
28	3419
29	909
30	828
31	890
32	47
33	15
34	26
35	10
36	10
37	68
38	176
39	1406
40	609
41	4782
42	3545
43	3222
44	811
45	410
46	14
49	12
50	13
51	52
52	95
53	139
54	313
55	478
56	787
57	231
58	63
59	12
60	35
64	15
65	13
66	29
68	1320
69	3166
70	7072
71	688
72	78
73	15
74	105
77	8
78	12
80	125
81	17
82	119
83	121
84	272
85	8
86	1967
87	109
88	13
98	9999
99	1452
100	151
101	54
109	13
111	1499
112	139
114	1493
115	82
125	9
129	1366
130	119
