Mass Spectrum: 3H-1,2-Dithiole-3-thione, 5-phenyl-
Formula: C9 H6 S3
CAS: 3445-76-9
Molecular weight: 210
Origin: J.MOLLER PHYS. LAB., UNIV. COPENHAGEN, COPENHAGEN, DENMARK
m/z	RELATIVE INTENSITY
45	220
50	320
51	600
63	300
69	600
73	380
74	230
75	230
76	740
77	600
89	260
93	270
101	400
102	2500
105	570
121	720
134	560
145	9500
146	1800
147	530
177	330
209	610
210	9999
211	1300
212	1400
