Mass Spectrum: Benzyl alcohol, .alpha.,.alpha.-dimethyl-p-isopropyl-
Formula: C12 H18 O
CAS: 3445-42-9
Molecular weight: 178
Origin: NIST Mass Spectrometry Data Center, 1990.
m/z	RELATIVE INTENSITY
50	646
51	1712
52	455
53	406
59	646
63	1013
64	641
65	1161
74	1050
75	430
76	496
77	2670
78	996
79	1182
89	577
91	3481
92	374
93	483
102	620
103	1400
104	487
105	3645
115	2459
116	738
117	3128
118	419
119	806
121	1916
127	735
128	1603
129	1015
130	915
145	9999
146	1242
147	626
160	3433
161	723
163	9020
164	1150
178	780
