Mass Spectrum: Dibutyldichlorosilane
Formula: C8 H18 Cl2 Si
CAS: 3449-28-3
Molecular weight: 212
Origin: NIST Mass Spectrometry Data Center, 1994
m/z	RELATIVE INTENSITY
15	272
16	6
17	3
24	12
27	3894
29	4702
30	112
31	47
35	14
36	40
39	1837
41	2571
42	291
43	336
45	23
50	64
51	137
52	118
53	478
54	23
55	3998
56	4267
57	650
58	51
59	27
63	1993
64	261
65	992
66	112
67	177
68	19
69	34
70	12
76	50
77	133
78	207
79	486
80	123
81	182
82	51
83	249
84	29
85	25
88	31
89	84
90	158
91	588
92	466
93	472
94	177
95	141
96	32
97	25
98	1289
99	2845
100	991
101	1881
102	265
103	396
104	47
105	149
106	171
107	84
108	54
109	24
113	8739
114	1417
115	5857
116	528
117	1418
118	24
119	912
120	259
121	435
122	104
123	115
124	24
125	842
126	1441
127	4272
128	1248
129	2539
130	336
131	419
132	35
133	23
134	70
135	80
136	37
137	57
138	16
139	59
140	36
141	75
142	27
143	41
144	10
147	169
148	505
149	104
150	172
151	51
153	183
155	9999
157	6637
158	685
159	1228
160	116
161	45
176	262
177	137
178	109
179	48
183	2874
184	533
185	1877
186	235
187	324
188	36
189	13
197	13
199	11
212	1228
213	178
214	859
215	119
216	165
217	19
