Mass Spectrum: Acetamide, 2,2,2-trifluoro-N-methyl-N-phenyl-
Formula: C9 H8 F3 N O
CAS: 345-81-3
Molecular weight: 203
Origin: J. Little, Eastman chemical company.
m/z	RELATIVE INTENSITY
38	170
39	490
40	100
44	190
50	631
51	1471
52	250
63	440
64	430
65	410
69	1231
74	220
76	210
77	5365
78	891
79	1381
90	160
91	931
92	90
93	280
104	1051
105	550
106	6236
107	470
110	4824
111	160
119	801
120	90
127	120
132	90
134	4744
135	390
136	70
156	240
164	50
184	270
202	410
203	9999
204	1321
205	80
