Mass Spectrum: 3,4-Octadiene
Formula: C8 H14
CAS: 34511-01-8
Molecular weight: 110
Origin: S.A. Rang et al., IR & MS of Unsatd. Hydrocarbons, 1977
m/z	RELATIVE INTENSITY
15	860
26	370
27	4440
29	3210
39	4630
41	5970
42	670
43	780
50	410
51	1070
52	660
53	2340
54	800
55	1960
56	180
57	110
63	310
65	1060
67	9999
68	1360
69	570
70	20
77	1080
78	120
79	2050
80	300
81	2130
82	4510
83	220
93	290
94	260
95	1480
109	130
110	10
