Mass Spectrum: 1-Eicosene
Formula: C20 H40
CAS: 3452-07-1
Molecular weight: 280
Origin: Japan AIST/NIMC Database- Spectrum MS-NW-9159
m/z	RELATIVE INTENSITY
15	20
26	10
27	279
28	80
29	1119
30	20
39	339
40	70
41	3599
42	779
43	5799
44	189
51	10
52	10
53	199
54	699
55	5709
56	5039
57	8989
58	389
59	10
65	40
66	139
67	1099
68	1179
69	5769
70	5459
71	5119
72	289
73	10
77	30
79	80
80	70
81	929
82	2889
83	8799
84	3409
85	3289
86	209
91	10
93	20
94	30
95	489
96	2099
97	9999
98	2819
99	1269
100	90
108	10
109	249
110	1109
111	5989
112	1869
113	719
114	60
122	20
123	159
124	749
125	3299
126	1529
127	549
128	50
136	10
137	109
138	599
139	1979
140	969
141	339
142	30
151	30
152	419
153	1179
154	949
155	299
156	30
165	10
166	349
167	939
168	609
169	179
170	20
179	10
180	249
181	559
182	609
183	169
184	10
194	229
195	519
196	379
197	99
198	10
208	139
209	289
210	429
211	109
212	10
222	109
223	299
224	219
225	60
236	50
237	139
238	259
239	70
240	10
250	50
251	169
252	529
253	109
254	10
265	10
278	20
279	20
280	2309
281	549
282	109
283	10
