Mass Spectrum: Diethyl Benzoylmethylphosphonate
Formula: C12 H17 O4 P
CAS: 3453-00-7
Molecular weight: 256
Origin: NIST Mass Spectrometry Data Center, 1994
m/z	RELATIVE INTENSITY
14	26
15	96
16	3
18	11
26	108
27	658
28	268
29	1140
30	49
31	138
38	25
39	184
40	22
41	65
42	166
43	260
44	26
45	125
47	146
48	36
49	40
50	289
51	1115
52	114
53	19
61	31
62	53
63	133
64	19
65	564
66	23
69	39
74	74
75	94
77	3624
78	662
79	185
80	23
81	557
82	20
89	139
91	710
92	80
93	45
94	41
95	60
96	96
97	139
99	37
102	168
103	472
105	9999
106	804
107	102
109	249
110	14
115	2
117	17
118	71
120	1400
121	177
123	681
124	251
125	107
126	10
127	15
128	23
129	22
130	24
131	105
132	202
133	60
134	14
137	36
141	145
142	12
146	1130
147	324
148	33
149	11
150	11
151	306
152	18
153	13
165	20
169	15
172	59
179	53
181	17
183	213
184	28
199	34
200	91
201	190
202	15
209	20
210	47
211	240
212	48
213	9
227	144
228	90
229	155
238	49
256	387
257	76
