Mass Spectrum: Ethandione, bis(p-tolyl)-
Formula: C16 H14 O2
CAS: 3457-48-5
Molecular weight: 238
Origin: NIST Mass Spectrometry Data Center, 1994
m/z	RELATIVE INTENSITY
26	12
27	40
28	14
37	11
38	73
39	606
40	58
41	181
45	9
50	149
51	238
52	50
53	33
61	22
62	128
63	431
64	180
65	1917
66	118
74	34
75	47
76	43
77	19
86	20
87	21
89	412
91	3708
92	299
93	8
115	7
119	9999
120	921
121	62
139	7
165	25
166	11
178	8
238	428
239	76
