Mass Spectrum: Peroxide, 1,1-dimethylethyl 1-methyl-1-phenylethyl
Formula: C13 H20 O2
CAS: 3457-61-2
Molecular weight: 208
Origin: NIST Mass Spectrometry Data Center
m/z	RELATIVE INTENSITY
12	70
13	230
14	721
15	2612
19	20
24	60
25	320
26	1441
27	2362
28	3033
29	1421
30	681
31	140
33	20
36	90
37	440
38	701
39	1341
41	1301
43	9999
44	260
45	110
50	1872
51	3743
52	380
54	10
55	60
57	470
58	1081
59	90
60	30
61	140
62	300
63	370
64	70
65	330
66	50
73	230
74	520
75	320
77	6566
78	791
79	250
80	20
85	30
86	40
87	20
89	130
91	1982
92	160
94	20
95	80
97	10
98	10
101	10
102	70
103	180
105	5625
106	440
107	70
115	60
117	120
119	4494
120	1682
121	180
122	10
135	50
