Mass Spectrum: 1,4-Butanediol, dinitrate
Formula: C4 H8 N2 O6
CAS: 3457-91-8
Molecular weight: 180
Origin: MINISTRY OF TECH. E.R.D.E., WALTHAM ABBEY, UK
m/z	RELATIVE INTENSITY
12	20
13	10
14	80
15	240
25	20
26	220
27	980
28	1470
29	2540
30	2140
31	840
32	70
37	10
38	30
39	190
40	100
41	760
42	820
43	530
44	260
45	80
46	9999
47	80
55	170
56	50
57	600
58	200
59	20
60	150
69	40
70	30
71	180
72	60
73	10
76	3970
77	70
78	20
88	10
90	10
