Mass Spectrum: 1,5-Pentanediol, dinitrate
Formula: C5 H10 N2 O6
CAS: 3457-92-9
Molecular weight: 194
Origin: MINISTRY OF TECH. E.R.D.E., WALTHAM ABBEY, UK
m/z	RELATIVE INTENSITY
12	10
13	10
14	70
15	130
25	30
26	110
27	890
28	830
29	1620
30	1510
31	610
37	40
38	160
39	470
40	220
41	1610
42	1080
43	1120
44	690
45	90
46	9999
47	50
53	60
54	50
55	1020
56	390
57	530
58	40
60	190
67	60
68	70
69	80
70	30
71	1480
72	210
76	6120
77	80
85	240
86	100
