Mass Spectrum: 1,3-Propanediol, dinitrate
Formula: C3 H6 N2 O6
CAS: 3457-90-7
Molecular weight: 166
Origin: MINISTRY OF TECH. E.R.D.E., WALTHAM ABBEY, UK
m/z	RELATIVE INTENSITY
12	20
13	30
14	90
15	300
16	60
24	20
25	20
26	100
27	420
28	710
29	1290
30	1510
31	220
39	50
40	20
41	100
42	220
43	810
44	190
45	200
46	9999
47	50
55	100
56	80
57	230
58	70
59	60
60	70
71	140
73	50
76	1630
85	40
90	50
104	20
