Mass Spectrum: Chloroacetic acid, heptyl ester
Formula: C9 H17 Cl O2
CAS: 34589-22-5
Molecular weight: 192
Origin: Insect Chem. Ecol. Lab., USDA, Beltsville, MD 20705
m/z	RELATIVE INTENSITY
41	8132
42	4342
43	8187
44	493
45	836
46	35
47	96
48	217
49	2884
50	190
51	1065
52	94
53	572
54	525
55	4657
56	6552
57	9999
58	556
59	109
60	47
61	13
62	13
63	78
64	13
65	117
66	40
67	297
68	378
69	3248
70	2994
71	1021
72	103
73	69
74	13
76	473
77	7601
78	325
79	2522
80	73
81	119
82	52
83	2340
84	399
85	847
86	80
87	53
88	5
89	8
90	6
91	28
92	70
93	38
94	50
95	446
96	34
97	365
98	3414
99	1776
100	122
101	143
102	17
103	2
104	5
105	17
106	20
107	20
108	14
109	31
110	17
111	37
112	5
113	30
114	22
115	166
116	13
117	14
118	3
119	9
120	200
121	4740
122	272
123	1563
124	79
125	27
126	7
127	2
128	11
129	18
131	15
132	2
133	8
134	3
135	25
136	8
137	22
138	10
139	14
140	3
141	20
142	27
143	24
144	18
145	11
146	8
147	9
149	193
150	17
151	69
152	11
153	5
154	9
155	4
157	79
158	15
159	9
160	5
163	13
164	8
165	12
166	3
173	6
174	6
175	11
176	3
177	27
178	6
179	13
191	5
192	17
193	3
194	6
195	3
