Mass Spectrum: 1,3-Cyclopentanedione, 2,4-dimethyl-
Formula: C7 H10 O2
CAS: 34598-80-6
Molecular weight: 126
m/z	RELATIVE INTENSITY
49	100
50	400
51	500
52	200
53	901
54	601
55	3503
56	9108
57	801
58	300
59	100
61	100
62	100
63	200
64	200
65	500
66	200
67	500
68	300
69	1802
70	1201
71	901
72	100
77	400
78	100
79	701
80	300
81	400
82	200
83	4104
84	601
85	901
91	100
93	100
95	200
96	100
97	601
98	601
99	100
105	100
107	100
108	200
109	200
111	9108
112	601
113	100
122	100
124	100
125	1702
126	9999
127	801
128	100
