Mass Spectrum: 2-(Trifluoromethyl)benzyl alcohol
Formula: C8 H7 F3 O
CAS: 346-06-5
Molecular weight: 176
Origin: Japan AIST/NIMC Database- Spectrum MS-NW-6386
m/z	RELATIVE INTENSITY
15	20
19	10
20	40
25	10
26	99
27	359
28	369
29	719
30	159
31	1159
32	30
33	30
36	20
37	209
38	379
39	809
40	60
41	30
42	20
43	90
44	60
45	30
47	10
48	10
49	139
50	1139
51	1469
52	239
53	139
54	40
55	60
56	70
57	489
58	20
59	90
60	30
61	179
62	429
63	769
64	139
65	60
66	30
67	20
68	99
69	509
70	109
71	30
72	10
73	90
74	439
75	1099
76	399
77	2489
78	689
79	5099
80	339
81	249
82	60
83	509
84	50
85	70
86	109
87	179
88	149
89	419
90	269
91	90
92	40
93	70
94	90
95	549
96	579
97	80
98	20
99	329
100	139
101	579
102	50
103	10
104	30
105	269
106	80
107	9379
108	999
109	1659
110	139
111	20
112	40
113	70
114	109
115	30
116	10
117	10
118	50
119	339
120	60
121	30
122	10
123	70
124	50
125	689
126	969
127	9999
128	1239
129	80
130	10
131	10
132	70
133	60
134	50
135	10
136	40
137	1389
138	329
139	129
140	139
141	30
142	10
143	50
144	40
145	1269
146	479
147	1469
148	219
149	10
150	10
154	50
155	2289
156	499
157	139
158	369
159	899
160	109
162	20
171	10
172	10
173	339
174	80
175	1349
176	7929
177	749
178	50
