Mass Spectrum: Polythiazide
Formula: C11 H13 Cl F3 N3 O4 S3
CAS: 346-18-9
Molecular weight: 439
Origin: Patti Price, Georgia Bureau of Investigation, Decatur, Georgia
m/z	RELATIVE INTENSITY
41	90
42	3353
43	200
44	220
45	530
46	310
47	170
48	90
50	70
51	110
52	180
53	50
54	110
55	270
56	220
57	340
58	150
59	180
60	60
61	140
62	290
63	310
64	470
65	200
67	20
69	150
70	30
71	30
72	50
73	150
74	150
75	190
76	180
77	200
78	120
79	200
80	230
81	60
82	70
83	60
84	30
85	70
86	90
87	130
88	230
89	240
90	170
91	40
93	50
94	50
95	80
96	60
97	290
98	90
99	140
100	60
101	20
102	90
103	60
104	90
105	60
108	40
109	240
111	100
112	120
113	70
114	130
115	100
116	110
117	50
120	40
122	20
123	90
124	230
125	120
126	100
128	20
129	1251
130	100
131	540
132	90
137	40
138	80
139	110
140	140
141	70
142	70
143	50
145	40
146	110
147	80
148	50
149	70
150	140
151	110
152	60
153	50
154	60
155	70
156	80
157	40
158	30
163	20
164	40
165	130
166	280
167	90
168	100
169	40
170	50
171	70
172	80
173	30
174	10
175	10
179	20
180	60
181	70
182	110
183	50
184	40
185	40
188	80
190	50
193	10
194	30
195	90
196	50
197	50
198	50
203	10
205	160
206	60
207	70
211	30
212	10
216	20
217	260
218	40
219	110
220	10
221	140
223	50
229	60
230	510
231	130
232	230
233	40
234	20
244	50
245	100
246	90
247	50
248	30
251	20
253	40
254	10
255	20
258	20
259	20
260	10
261	160
262	170
263	100
264	100
265	30
266	10
269	40
276	100
278	60
279	20
280	30
292	40
294	70
296	40
309	30
310	9999
311	1060
312	4083
313	440
314	320
323	10
324	110
325	70
326	40
327	20
344	40
345	10
346	20
439	130
440	20
441	60
