Mass Spectrum: Octadecanoic acid, hexyl ester
Formula: C24 H48 O2
CAS: 3460-37-5
Molecular weight: 368
Origin: R.T.HOLMAN,UNIVERSITY OF MINNESOTA
m/z	RELATIVE INTENSITY
26	60
27	440
28	1080
29	1240
30	50
31	50
32	190
38	30
39	260
40	80
41	2670
42	1300
43	9250
44	390
45	140
46	10
50	20
51	20
52	20
53	120
54	320
55	3470
56	4090
57	4590
58	320
59	130
60	1800
61	5590
62	160
63	40
65	40
66	30
67	470
68	340
69	2670
70	550
71	2110
72	140
73	2790
74	260
75	50
77	40
78	30
79	100
80	70
81	430
82	370
83	1550
84	9999
85	3540
86	240
87	570
88	70
89	70
90	20
91	40
92	10
93	80
94	60
95	420
96	240
97	1140
98	780
99	380
100	80
101	400
102	140
103	70
104	20
105	30
106	10
107	90
108	40
109	240
110	130
111	590
112	260
113	190
114	80
115	540
116	270
117	60
118	20
119	30
120	30
121	120
122	40
123	140
124	90
125	340
126	110
127	140
128	40
129	1670
130	170
131	40
133	30
134	20
135	120
136	30
137	90
138	50
139	210
140	80
141	110
142	30
143	240
144	480
145	1050
146	90
147	20
148	10
149	80
150	30
151	40
152	40
153	140
154	60
155	80
156	20
157	780
158	110
159	40
161	10
162	10
163	60
164	20
165	40
166	30
167	10
168	40
169	40
170	20
171	270
172	80
173	30
175	10
177	40
178	30
179	30
180	60
181	80
182	40
183	40
184	10
185	580
186	110
187	30
188	10
189	10
190	10
191	30
192	10
193	30
194	20
195	60
196	40
197	30
198	10
199	290
200	70
201	30
202	10
203	10
205	30
206	10
207	30
208	30
209	50
210	40
211	20
212	10
213	290
214	70
215	30
216	10
217	30
218	40
219	110
220	80
221	50
222	110
223	60
224	60
225	40
226	20
227	170
228	60
229	40
230	20
234	10
235	10
236	20
237	30
238	20
239	20
240	10
241	750
242	140
243	30
244	20
246	20
247	60
248	60
249	40
250	20
251	20
252	10
255	170
256	50
257	20
264	130
265	160
266	90
267	2360
268	450
269	90
270	30
282	40
283	130
284	2360
285	7820
286	1670
287	190
288	30
297	20
298	20
311	40
312	20
313	10
321	10
325	120
326	50
327	20
338	10
339	40
340	30
341	10
350	20
351	10
353	10
354	10
367	60
368	2704
369	720
370	110
371	20
