Mass Spectrum: Orbencarb
Formula: C12 H16 Cl N O S
CAS: 34622-58-7
Molecular weight: 257
Origin: NIST Mass Spectrometry Data Center, 1998.
m/z	RELATIVE INTENSITY
15	20
18	30
26	30
27	290
28	160
29	1020
30	60
35	10
37	10
38	40
39	220
40	40
41	80
42	690
43	60
44	1590
45	890
46	40
47	50
48	10
49	20
50	100
51	200
52	30
53	10
54	30
55	30
56	510
57	150
58	120
59	30
60	100
61	130
62	140
63	600
64	110
65	90
66	10
68	10
69	70
70	140
71	90
72	5739
73	380
74	60
75	200
76	110
77	350
78	100
79	20
81	10
82	20
84	30
85	30
86	60
87	40
88	70
89	1270
90	340
91	70
92	10
93	20
94	10
95	20
96	10
97	30
99	430
100	9999
101	830
102	70
103	10
104	110
105	20
106	10
107	10
108	20
111	50
112	40
113	30
114	20
115	10
116	40
117	10
118	10
119	20
120	50
121	310
122	130
123	50
124	10
125	3000
126	240
127	980
128	80
130	10
131	10
132	140
133	10
134	10
141	10
142	10
149	10
155	120
156	20
157	140
158	20
159	40
160	10
182	30
184	10
196	10
222	3250
223	470
224	200
225	20
226	10
257	100
258	20
259	40
260	10
