Mass Spectrum: 2-Norbornyl acetate
Formula: C9 H14 O2
CAS: 34640-76-1
Molecular weight: 154
Origin: T.A.BLAZER DU PONT, GIBBSTOWN, N.J., USA
m/z	RELATIVE INTENSITY
15	1345
26	144
27	1045
29	539
31	78
37	6
38	111
39	1405
40	269
41	1550
42	339
43	9999
44	313
45	100
46	19
50	73
51	175
52	90
53	395
54	236
55	620
56	96
57	226
58	465
59	334
60	52
61	4
63	55
65	3813
66	2784
67	584
68	121
69	129
71	691
72	40
77	304
78	96
79	1494
80	150
81	269
82	85
83	437
84	159
85	4
86	41
87	84
91	200
92	85
93	530
94	3010
95	680
96	262
97	205
98	189
108	99
109	45
110	316
111	1375
112	396
113	56
126	276
139	64
154	45
