Mass Spectrum: Selenophene, tetrahydro-
Formula: C4 H8 Se
CAS: 3465-98-3
Molecular weight: 136
m/z	RELATIVE INTENSITY
38	39
39	814
40	1550
42	698
51	233
53	698
54	853
55	9999
56	388
80	310
81	233
90	465
91	1163
92	930
93	853
94	1938
95	465
96	310
104	310
105	426
106	659
107	736
108	1085
110	233
132	543
133	620
134	1240
135	233
136	2597
138	465
