Mass Spectrum: Tellurophene, tetrahydro-
Formula: C4 H8 Te
CAS: 3465-99-4
Molecular weight: 186
m/z	RELATIVE INTENSITY
41	3500
50	750
51	750
52	750
53	3000
54	1500
55	6474
56	2750
124	750
125	1500
126	2750
127	500
128	4500
129	750
130	4999
131	1250
138	750
139	750
140	2000
142	4000
143	500
144	4000
154	500
156	1500
158	500
178	500
180	1500
181	3000
182	6249
184	9749
185	750
186	9999
187	750
