Mass Spectrum: 2,2'-Bipyrimidine
Formula: C8 H6 N4
CAS: 34671-83-5
Molecular weight: 158
Origin: ALPHA Chemicals / NIST MS Data Center.
m/z	RELATIVE INTENSITY
17	18
18	26
24	39
26	1712
28	192
29	8
37	81
38	198
39	171
40	51
50	84
51	554
52	1291
53	1495
54	51
63	37
64	42
76	58
77	246
78	1082
79	1056
80	984
81	61
93	35
105	4294
106	580
107	30
130	275
131	929
132	122
158	9999
159	1003
160	53
