Mass Spectrum: Cyclohexanol, 1-(1-hexenyl)-, (E)-
Formula: C12 H22 O
CAS: 34678-40-5
Molecular weight: 182
Origin: R. A. LYND
m/z	RELATIVE INTENSITY
37	58
38	204
39	4260
40	805
41	8164
42	1135
43	4365
44	190
45	175
50	186
51	1236
52	660
53	2603
54	842
55	9999
56	718
57	2039
58	332
59	137
60	20
61	40
62	128
63	433
64	156
65	1103
66	605
67	3009
68	1561
69	2541
70	1852
71	679
72	88
73	46
74	67
75	103
76	67
77	1994
78	694
79	4123
80	821
81	3124
82	1017
83	7874
84	910
85	230
86	39
87	28
89	80
90	57
91	1505
92	390
93	1831
94	1186
95	1978
96	830
97	2242
98	402
99	578
100	62
101	35
102	35
103	118
104	66
105	359
106	150
107	1589
108	518
109	510
110	166
111	2138
112	1797
113	218
114	30
115	85
116	30
117	69
118	22
119	106
120	58
121	1973
122	312
123	166
124	171
125	7543
126	1155
127	154
128	34
133	40
134	39
135	811
136	128
137	1028
138	207
139	9543
140	1007
141	81
149	157
150	32
151	136
152	37
153	587
154	145
155	28
162	27
163	23
164	1200
165	264
166	42
167	560
168	66
178	66
180	92
181	41
182	1894
183	255
184	21
