Mass Spectrum: Hexamethylene chloroiodide
Formula: C6 H12 Cl I
CAS: 34683-73-3
Molecular weight: 246
Origin: NIST Mass Spectrometry Data Center, 1994
m/z	RELATIVE INTENSITY
4	13
14	37
15	160
26	386
27	2786
28	832
29	1775
30	41
32	24
36	37
37	63
39	2441
41	5924
42	805
43	3399
44	91
49	603
50	168
51	411
52	110
53	673
54	63
55	9999
56	497
57	1116
58	45
61	66
62	138
63	427
64	50
65	178
66	31
67	222
68	27
69	81
75	128
77	699
79	271
80	15
81	103
82	15
83	5601
84	328
89	29
90	17
91	74
93	17
119	1626
120	121
121	524
122	33
127	671
128	247
129	24
141	204
154	52
155	399
246	292
247	20
248	100
249	6
