Mass Spectrum: Propanal, dipropylhydrazone
Formula: C9 H20 N2
CAS: 34687-35-9
Molecular weight: 156
Origin: ATLAS OF MASS SPECTRA OF ORGANIC COMPOUNDS, V. A. KOPTYUG, ED.
m/z	RELATIVE INTENSITY
28	360
29	430
30	2400
31	50
39	330
40	80
41	1920
42	810
43	2530
44	230
54	90
55	80
56	740
57	110
58	390
59	70
70	470
71	80
72	390
83	60
85	3290
86	150
97	50
98	60
99	2470
100	60
113	85
127	9999
128	690
156	1580
157	150
