Mass Spectrum: 2,4,6-Trimethylbenzyl cyanide
Formula: C11 H13 N
CAS: 34688-71-6
Molecular weight: 159
Origin: NIST Mass Spectrometry Data Center, 1994
m/z	RELATIVE INTENSITY
13	38
15	518
18	49
26	213
27	1467
28	713
37	96
38	403
39	3085
40	552
41	1375
42	88
49	30
50	843
51	2175
52	767
53	801
54	68
55	53
58	163
59	89
61	135
62	436
63	1383
64	695
65	1409
66	245
67	70
71	89
72	146
74	230
75	487
76	438
77	1915
78	746
79	503
80	50
86	106
87	197
88	150
89	722
90	230
91	3077
92	297
93	134
98	52
99	59
100	59
101	153
102	503
103	912
104	510
105	309
106	44
113	78
115	3019
116	1436
117	4521
118	686
119	4353
120	440
126	51
127	325
128	514
129	391
130	243
131	961
132	9999
133	1227
134	86
140	156
141	74
142	271
143	51
144	5205
145	579
146	41
156	115
157	86
158	985
159	5106
160	629
161	35
