Mass Spectrum: 1,3,5,6-Tetramethyladamantane
Formula: C14 H24
CAS: 34694-70-7
Molecular weight: 192
Origin: V.G.Zaikin, TIPS, Russian Acad. Sci.
m/z	RELATIVE INTENSITY
51	300
53	600
54	200
55	1351
56	300
57	300
65	300
67	700
69	800
77	700
78	200
79	700
80	150
81	650
82	200
83	500
91	950
92	200
93	900
94	200
95	900
96	200
97	200
105	550
106	200
107	2502
108	400
109	600
119	300
120	200
121	3753
122	450
135	550
149	150
163	400
177	9999
178	1601
192	650
193	100
194	10
