Mass Spectrum: Benzo[1,2-c:3,4-c':5,6-c'']tris[1,2,5]oxadiazole, 1,4,7-trioxide
Formula: C6 N6 O6
CAS: 3470-17-5
Molecular weight: 252
m/z	RELATIVE INTENSITY
52	703
60	1143
70	2945
74	5911
75	615
76	593
78	396
84	154
86	1978
87	198
88	330
89	88
90	88
94	615
102	4395
103	396
104	330
132	730
133	703
134	88
162	659
163	110
192	1868
193	176
204	176
222	527
236	220
237	66
238	132
252	9999
253	1758
254	396
