Mass Spectrum: 2-Pyrrolidinone, 1-butyl-
Formula: C8 H15 N O
CAS: 3470-98-2
Molecular weight: 141
m/z	RELATIVE INTENSITY
41	2995
42	1498
43	1101
44	529
54	176
55	529
56	617
57	264
58	44
59	44
68	396
69	1498
70	3524
71	396
72	44
82	44
83	44
84	573
85	132
86	573
98	9999
99	3304
100	573
112	837
113	308
126	529
141	1542
142	88
