Mass Spectrum: 2,5-Pyrrolidinedione, 1-butyl-
Formula: C8 H13 N O2
CAS: 3470-96-0
Molecular weight: 155
m/z	RELATIVE INTENSITY
41	2317
42	984
43	825
44	508
45	1841
54	317
55	4603
56	3809
57	762
58	159
70	270
71	317
72	1238
82	1111
84	2539
85	1206
99	206
100	9999
101	1270
112	1270
113	5079
114	476
126	952
127	127
140	397
155	2825
156	476
