Mass Spectrum: 1,1-Difluoro-1-silacyclo-3-pentene
Formula: C4 H6 F2 Si
CAS: 34736-33-9
Molecular weight: 120
Origin: V.A.KOPTYUG, ATLAS OF MASS SPECTRA OF ORGANIC COMPOUNDS
m/z	RELATIVE INTENSITY
39	1700
40	100
52	300
53	900
54	9999
55	600
80	200
93	600
94	200
101	400
120	8199
121	700
122	300
