Mass Spectrum: 2,3,4-Trichloro benzene sulfonyl chloride
Formula: C6 H2 Cl4 O2 S
CAS: 34732-09-7
Molecular weight: 278
Origin: NIST Mass Spectrometry Data Center, 1990.
m/z	RELATIVE INTENSITY
17	76
28	27
32	99
35	299
36	433
37	481
38	267
44	84
45	153
47	159
48	537
49	255
50	213
53	68
54	113
60	174
61	485
62	273
63	75
64	364
68	69
69	291
70	82
71	69
72	472
73	1249
74	2224
75	295
79	186
80	65
81	162
82	89
83	292
84	1072
85	303
86	374
87	100
88	130
89	143
90	88
91	62
92	70
93	142
94	94
95	97
96	205
97	460
98	94
99	141
103	123
104	60
105	195
106	266
107	588
108	2106
109	2472
110	701
111	778
115	94
117	87
118	365
119	223
120	194
121	155
122	125
123	43
129	135
131	128
132	88
133	93
140	77
141	284
142	400
143	3106
144	1466
145	2158
146	917
147	642
148	201
160	99
164	97
166	85
167	526
168	104
169	452
171	174
176	372
177	628
179	7341
180	1346
181	6498
182	961
183	1936
184	325
185	245
195	1957
196	243
197	2055
198	174
199	824
200	97
201	172
211	107
212	686
213	122
214	1239
215	127
216	1012
217	97
218	390
220	94
227	131
229	184
243	9999
244	1043
245	9972
246	930
247	3787
248	307
249	500
278	3472
279	370
280	4629
281	357
282	2426
283	174
284	449
