Mass Spectrum: 5-Phenyl-1,2,3,4-thiatriazole
Formula: C7 H5 N3 S
CAS: 34733-85-2
Molecular weight: 163
Origin: K.-P.Zeller ET AL.Tetrahedron, 28,1353(1972)
m/z	RELATIVE INTENSITY
50	1732
51	1491
52	460
74	410
75	721
76	3363
77	2522
78	180
91	250
102	180
103	9999
104	841
105	80
135	1661
136	150
137	60
163	420
164	120
