Mass Spectrum: Zipeprol
Formula: C23 H32 N2 O3
CAS: 34758-83-3
Molecular weight: 384
Origin: W. GIELSDORF, LAB GES PHARMAKOL UNTERS MBH, NEU-ULM, W. GER.
m/z	RELATIVE INTENSITY
39	200
42	1800
43	600
44	600
45	600
50	200
55	900
56	1200
57	600
58	500
69	500
70	1600
71	500
72	200
77	1500
79	200
83	400
84	200
91	1400
94	100
97	1500
98	200
99	200
105	600
111	1900
112	500
113	300
115	200
117	200
121	9900
122	1000
134	200
142	100
158	100
174	100
186	100
202	100
219	100
223	200
247	100
263	9999
264	1700
265	100
353	100
367	100
383	200
384	600
