Mass Spectrum: 1H-Pyrrole-2,5-dione, 1-[4-(dimethylamino)-3,5-dinitrophenyl]-
Formula: C12 H10 N4 O6
CAS: 3475-74-9
Molecular weight: 306
Origin: Japan AIST/NIMC Database- Spectrum MS-NW-6380
m/z	RELATIVE INTENSITY
14	50
15	1909
16	50
17	20
18	70
25	60
26	2429
27	439
28	609
29	249
30	659
31	99
37	169
38	509
39	1399
40	379
41	539
42	4709
43	779
44	429
45	109
46	50
49	40
50	419
51	709
52	799
53	1169
54	5669
55	599
56	119
57	60
58	80
60	90
61	439
62	629
63	1759
64	999
65	949
66	2609
67	499
68	169
69	70
70	80
71	80
72	169
73	80
74	159
75	529
76	1279
77	1609
78	979
79	459
80	989
81	219
82	5619
83	339
84	70
85	60
86	189
87	329
88	1079
89	1139
90	1949
91	1029
92	799
93	769
94	219
95	90
96	70
97	50
98	179
99	60
100	169
101	209
102	639
103	1109
104	1529
105	879
106	589
107	299
108	139
109	60
110	50
111	30
112	30
113	30
114	159
115	589
116	2459
117	2219
118	1899
119	1269
120	1409
121	379
122	119
123	60
124	50
126	30
127	60
128	339
129	649
130	1239
131	1729
132	1799
133	709
134	429
135	159
136	50
137	30
138	20
139	20
140	70
141	109
142	439
143	1059
144	2299
145	2369
146	2649
147	959
148	559
149	309
150	109
151	30
153	259
154	80
155	199
156	339
157	919
158	1909
159	2699
160	1249
161	479
162	149
163	40
164	20
167	129
168	139
169	209
170	329
171	879
172	2369
173	2219
174	799
175	1539
176	269
177	40
178	30
179	30
181	40
182	30
183	109
184	299
185	809
186	1539
187	719
188	399
189	229
190	119
191	50
192	20
195	20
196	80
197	60
198	539
199	1299
200	899
201	1669
202	599
203	269
204	80
205	50
206	40
209	30
210	30
211	80
212	419
213	5999
214	2749
215	809
216	289
217	90
218	40
219	30
220	30
221	20
223	20
224	20
225	40
226	489
227	229
228	699
229	1319
230	479
231	499
232	80
233	50
234	20
235	60
237	20
240	20
241	40
242	319
243	1679
244	759
245	159
246	50
247	289
248	70
249	30
251	30
252	20
254	30
255	20
256	20
258	99
259	4299
260	799
261	1209
262	189
263	50
271	20
272	369
273	159
274	139
275	149
276	90
277	40
284	20
288	50
289	9999
290	1579
291	259
292	50
305	399
306	6639
307	1029
308	209
309	20
