Mass Spectrum: Tetrahydroquinoxaline
Formula: C8 H10 N2
CAS: 3476-89-9
Molecular weight: 134
Origin: James Little,Eastman Chem.Co.,Kingsport,TN
m/z	RELATIVE INTENSITY
27	320
29	130
30	210
38	150
39	360
41	290
43	140
50	410
51	741
52	581
53	220
65	420
66	460
75	280
76	370
77	1171
78	851
79	310
80	140
90	100
91	591
92	1091
93	160
103	120
104	681
105	330
106	641
107	120
116	120
117	120
118	540
119	971
120	100
130	120
131	851
132	1081
133	9999
134	7487
135	701
