Mass Spectrum: Decane, 1,1-diethoxy-
Formula: C14 H30 O2
CAS: 34764-02-8
Molecular weight: 230
m/z	RELATIVE INTENSITY
27	681
28	500
29	2192
30	120
31	1331
41	1862
42	420
43	1882
44	500
45	791
46	320
47	2462
55	1782
56	380
57	6516
58	400
59	350
69	1261
70	410
71	581
72	540
73	160
75	2632
83	2002
84	180
85	4894
86	320
97	741
98	130
99	691
103	9999
111	90
113	80
127	230
128	70
141	420
185	1481
