Mass Spectrum: Benzo(c)carbazole
Formula: C16 H11 N
CAS: 34777-33-8
Molecular weight: 217
Origin: M. OEHME, NORW. INST. AIR RES., LILLESTROM, NORWAY
m/z	RELATIVE INTENSITY
63	90
74	60
75	70
82	220
87	80
94	620
95	390
108	1460
150	60
162	60
163	170
164	90
165	80
187	220
188	240
189	640
190	360
191	60
212	60
213	80
214	670
215	740
216	2660
217	9999
218	1820
219	140
