Mass Spectrum: 1-Bromo-3,4-difluorobenzene
Formula: C6 H3 Br F2
CAS: 348-61-8
Molecular weight: 192
Origin: Chuck Anderson, Aldrich Chemical Co.
m/z	RELATIVE INTENSITY
25	20
26	29
31	781
32	20
33	10
36	144
37	808
38	400
39	122
43	7
44	59
45	43
47	40
48	55
49	270
50	896
51	129
55	89
56	509
57	370
58	8
60	127
61	1018
62	1901
63	6303
64	317
67	26
68	1188
69	382
70	18
72	51
73	276
74	903
75	424
76	18
79	295
80	261
81	815
82	80
86	134
87	351
88	48
91	48
92	441
93	923
94	409
95	36
96	475
97	441
104	18
106	17
110	20
111	88
112	597
113	6928
114	416
115	19
116	11
117	20
118	12
119	11
128	11
130	11
135	16
137	17
140	8
141	31
142	15
143	27
146	10
148	15
159	12
161	39
163	21
173	41
175	38
191	112
192	9999
193	590
194	9672
195	536
196	12
