Mass Spectrum: Benzene, 1-chloro-2-fluoro-
Formula: C6 H4 Cl F
CAS: 348-51-6
Molecular weight: 130
Origin: Chuck Anderson, Aldrich Chemical Co.
m/z	RELATIVE INTENSITY
25	7
26	29
27	28
28	3
31	106
32	5
33	8
35	23
36	29
37	146
38	105
39	79
44	8
45	22
47	95
48	14
49	97
50	478
51	181
52	12
55	47
56	61
57	82
60	37
61	147
62	143
63	184
64	34
65	394
66	132
67	12
68	450
69	394
70	114
71	12
72	38
73	192
74	512
75	1463
76	121
78	9
79	6
80	41
81	41
82	9
84	91
85	38
86	40
87	10
91	91
92	122
93	301
94	675
95	4729
96	330
97	64
99	22
102	7
103	33
104	135
105	14
106	40
108	6
109	84
110	21
111	38
115	12
128	7
129	65
130	9999
131	647
132	3197
133	202
