Mass Spectrum: Benzene, 1-fluoro-2-iodo-
Formula: C6 H4 F I
CAS: 348-52-7
Molecular weight: 222
Origin: Japan AIST/NIMC Database- Spectrum MS-NW-9350
m/z	RELATIVE INTENSITY
20	10
26	20
27	40
28	50
31	119
36	10
37	109
38	119
39	119
44	10
45	40
49	90
50	719
51	329
52	10
55	10
56	60
57	70
61	90
62	99
63	99
64	10
68	479
69	519
70	20
73	70
74	399
75	2479
76	219
77	10
80	10
92	80
93	129
94	539
95	6589
96	449
97	10
111	449
127	199
128	70
152	10
176	10
221	20
222	9999
223	659
224	20
