Mass Spectrum: .eta.<5>-Pentamethylcyclopentadienyl manganese tricarbonyl
Formula: C13 H15 Mn O3
CAS: 34807-89-1
Molecular weight: 274
Origin: R.B.KING DEPT. CHEM., UNIV. OF GEORGIA, ATHENS, GA., USA
m/z	RELATIVE INTENSITY
55	3200
56	840
77	910
79	840
91	1600
93	630
105	1800
107	630
119	1500
121	4200
135	9300
175	4200
190	9999
201	250
203	1100
218	2000
229	140
231	110
244	190
246	210
259	1100
274	2700
