Mass Spectrum: 1-Naphthaleneacethydrazide
Formula: C12 H12 N2 O
CAS: 34800-90-3
Molecular weight: 200
Origin: NIST Mass Spectrometry Data Center
m/z	RELATIVE INTENSITY
16	100
17	100
18	150
26	80
27	150
28	220
30	220
31	571
33	10
36	10
37	40
38	150
39	591
40	40
41	60
42	30
43	70
44	70
50	350
51	440
52	90
53	10
55	10
56	20
57	350
59	30
60	10
61	100
62	400
63	821
64	150
65	280
66	20
68	20
70	330
74	300
75	310
76	170
77	110
78	10
85	40
86	210
87	250
88	200
89	601
90	40
91	200
92	20
98	80
99	60
100	40
101	40
102	110
103	20
110	30
111	30
113	330
115	4394
116	430
117	30
126	110
127	140
128	150
129	30
137	70
139	2162
141	9999
142	1461
143	100
151	10
152	20
154	170
155	140
156	30
157	20
165	10
166	70
168	4124
169	631
170	70
171	20
182	50
183	50
185	90
186	10
200	2642
201	390
202	40
