Mass Spectrum: Thallium, (.eta.5-2,4-cyclopentadien-1-yl)-
Formula: C5 H5 Tl
CAS: 34822-90-7
Molecular weight: 270
Origin: D.HENNEBERG, MAX-PLANCK INSTITUTE, MULHEIM, WEST GERMANY
m/z	RELATIVE INTENSITY
27	31
28	54
29	6
37	185
38	101
39	1544
40	54
41	2
42	1
43	6
44	7
50	17
51	6
52	3
56	1
57	4
61	8
62	48
63	162
64	107
65	867
66	138
67	6
70	3
79	2
128	3
203	4197
204	3
205	9999
268	1387
269	83
270	3180
271	171
272	4
