Mass Spectrum: 3-Quinolinecarbonitrile
Formula: C10 H6 N2
CAS: 34846-64-5
Molecular weight: 154
Origin: Div. of Experiment Therapeutics WRAIR, WRAMC, Washington DC 20307
m/z	RELATIVE INTENSITY
41	16
43	13
50	1653
51	736
52	414
53	31
60	6
61	243
62	328
63	672
64	149
65	22
72	6
73	27
74	694
75	630
76	1008
77	419
79	29
84	34
85	41
86	59
87	150
88	133
89	30
97	25
98	54
99	458
100	935
101	254
103	451
104	47
111	5
112	23
114	18
123	37
124	6
126	373
127	2964
128	289
129	17
153	387
154	9999
155	1337
156	51
