Mass Spectrum: 3-Bromo-4-methoxybenzaldehyde
Formula: C8 H7 Br O2
CAS: 34841-06-0
Molecular weight: 214
Origin: NIST Mass Spectrometry Data Center
m/z	RELATIVE INTENSITY
12	80
13	120
14	410
15	3353
17	20
18	150
24	10
25	100
26	330
27	290
29	4334
30	260
31	120
36	170
37	1401
38	1862
39	891
41	50
42	60
43	70
44	10
46	20
48	70
49	460
50	2752
51	1521
52	250
53	881
54	50
55	40
60	190
61	1331
62	2893
63	6496
64	1481
65	210
66	140
71	10
73	651
74	2362
75	2682
76	2232
77	2372
78	1932
79	500
80	100
81	240
82	70
84	20
85	60
86	60
87	30
89	30
91	621
92	761
93	230
94	80
95	60
103	180
104	621
105	510
106	160
107	50
116	140
117	490
119	1361
120	170
128	50
129	60
130	80
131	70
133	80
134	20
141	140
142	410
143	1682
144	430
145	1601
146	100
155	881
157	871
158	80
159	110
169	10
170	1051
171	520
172	1041
173	450
174	30
183	30
185	1091
186	190
187	1051
188	150
197	40
198	100
199	50
200	110
213	9619
214	7577
215	9999
216	7297
217	641
218	40
