Mass Spectrum: 1,1'-Biphenyl, 2,4'-dichloro-
Formula: C12 H8 Cl2
CAS: 34883-43-7
Molecular weight: 222
Origin: T.L.Hayes, Battelle Columbus Laboratories, Columbus, OH 43221
m/z	RELATIVE INTENSITY
35	53
36	119
37	129
38	234
39	394
40	271
41	25
43	31
44	78
45	25
47	25
49	173
50	857
51	810
52	70
55	44
56	54
57	47
60	52
61	367
62	884
63	974
64	49
65	18
67	16
68	27
69	37
71	27
72	39
73	417
74	1098
75	3390
76	2282
77	325
78	48
79	14
80	437
81	191
82	20
84	93
85	284
86	407
87	398
88	62
89	50
91	29
92	67
93	2317
94	925
96	23
97	152
98	560
99	620
100	195
101	365
102	131
108	37
109	74
110	173
111	851
112	507
113	281
114	93
115	13
120	7
121	33
122	93
123	167
124	70
125	537
126	600
127	101
133	21
134	6
135	51
136	168
137	45
138	65
139	6
146	19
147	27
148	43
149	256
150	1682
151	2493
152	9999
153	1236
154	58
160	123
161	52
162	87
163	9
164	5
173	16
184	6
185	46
186	749
187	256
188	255
189	61
196	28
198	7
222	8497
223	1117
224	5113
225	631
226	816
227	93
