Mass Spectrum: Pentane, 2,2-dichloro-
Formula: C5 H10 Cl2
CAS: 34887-14-4
Molecular weight: 140
Origin: GAZ DE FRANCE, DELORME, PARIS, FRANCE
m/z	RELATIVE INTENSITY
25	40
26	610
27	4180
28	940
29	1830
30	50
31	140
32	190
33	30
34	10
35	130
36	470
37	290
38	620
39	3310
40	730
41	7530
42	1170
43	8660
44	320
47	40
48	20
49	490
50	300
51	630
52	170
53	2170
54	170
55	560
56	30
57	50
58	60
59	20
60	80
61	670
62	250
63	1600
64	100
65	540
66	70
67	460
68	120
69	9999
70	590
71	40
72	20
73	100
74	30
75	480
76	3410
77	330
78	1070
79	60
83	100
84	20
85	60
86	30
87	50
88	20
89	1300
90	60
91	450
92	90
93	10
94	20
96	190
97	870
98	140
99	530
100	40
101	90
102	10
103	90
104	1150
105	2720
106	510
107	870
108	40
109	20
110	40
111	80
112	30
113	40
114	10
