Mass Spectrum: 3,5-Dichlorophenyl isocyanate
Formula: C7 H3 Cl2 N O
CAS: 34893-92-0
Molecular weight: 187
Origin: NIST Mass Spectrometry Data Center, 1994
m/z	RELATIVE INTENSITY
14	1
25	47
26	50
27	51
28	250
35	162
36	209
37	767
38	713
39	229
40	35
42	31
44	146
47	261
48	207
49	542
50	506
51	339
52	143
54	99
60	379
61	1092
62	1131
63	545
64	419
65	30
66	27
71	72
72	293
73	1051
74	745
75	598
76	184
77	25
79	245
80	205
82	29
83	55
84	196
85	162
86	335
87	432
88	860
89	145
93	423
94	311
95	84
96	138
97	899
98	358
99	388
100	155
107	74
108	54
109	161
110	68
111	58
112	33
116	32
122	45
124	5055
125	430
126	1578
127	120
131	66
132	102
133	102
134	78
135	42
159	2171
160	203
161	1430
162	118
163	221
187	9999
188	914
189	6524
190	574
191	1057
192	93
