Mass Spectrum: 1,5-Heptadiene, 3,6-dimethyl-
Formula: C9 H16
CAS: 34891-10-6
Molecular weight: 124
Origin: D.HENNEBERG, MAX-PLANCK INSTITUTE, MULHEIM, WEST GERMANY
m/z	RELATIVE INTENSITY
22	3
23	5
26	54
27	1005
29	749
30	17
37	246
38	49
39	1076
40	149
41	7687
42	363
43	229
49	5
50	66
51	184
52	74
53	647
54	109
55	906
56	102
57	14
59	2
61	1
62	13
63	37
64	7
65	150
66	65
67	654
68	580
69	9999
70	707
71	18
73	2
74	8
77	130
78	30
79	143
80	503
81	1359
82	271
83	47
91	296
92	13
93	38
94	6
95	107
96	36
97	8
105	11
107	19
108	4
109	211
110	20
123	7
124	186
125	20
