Mass Spectrum: 4-(Trifluoromethyl)benzyl alcohol
Formula: C8 H7 F3 O
CAS: 349-95-1
Molecular weight: 176
Origin: Japan AIST/NIMC Database- Spectrum MS-IW-2198
m/z	RELATIVE INTENSITY
18	20
20	20
26	40
27	199
28	109
29	749
30	90
31	619
32	20
33	10
37	90
38	199
39	479
40	40
41	20
42	10
43	40
44	30
45	10
49	60
50	769
51	1059
52	209
53	129
54	10
55	50
56	30
57	299
58	10
59	40
60	10
61	99
62	279
63	559
64	99
65	60
66	20
67	10
68	50
69	589
70	90
71	20
73	70
74	349
75	949
76	259
77	2479
78	829
79	5409
80	379
81	159
82	30
83	209
84	20
85	40
86	70
87	129
88	129
89	369
90	139
91	70
92	20
93	50
94	80
95	659
96	439
97	80
98	10
99	229
100	90
101	199
102	10
103	10
104	20
105	159
106	60
107	9999
108	919
109	979
110	80
111	10
112	30
113	80
114	129
115	60
117	10
118	20
119	369
120	50
121	10
123	30
124	10
125	489
126	379
127	8389
128	879
129	219
130	20
131	10
132	90
133	50
137	70
138	169
139	129
140	149
141	20
143	50
144	50
145	1989
146	379
147	1259
148	139
149	10
155	319
156	229
157	1789
158	529
159	1039
160	119
161	10
173	519
174	99
175	1809
176	8369
177	739
178	40
