Mass Spectrum: m-(Trifluoromethyl)benzyl alcohol
Formula: C8 H7 F3 O
CAS: 349-75-7
Molecular weight: 176
Origin: NIST Mass Spectrometry Data Center
m/z	RELATIVE INTENSITY
20	10
26	30
27	110
28	30
29	430
30	50
31	420
33	10
37	70
38	150
39	360
40	30
41	10
42	10
43	30
44	20
45	10
49	60
50	671
51	831
52	160
53	110
54	10
55	40
56	30
57	220
58	10
59	20
60	10
61	110
62	270
63	490
64	80
65	40
66	10
67	10
68	60
69	651
70	70
71	10
73	70
74	400
75	901
76	260
77	2072
78	721
79	3383
80	260
81	150
82	30
83	190
84	30
85	70
86	90
87	160
88	140
89	370
90	100
91	30
92	30
93	50
94	70
95	550
96	410
97	70
99	290
100	100
101	230
102	20
103	10
104	20
105	170
107	6075
108	601
109	781
110	60
111	10
112	30
113	80
114	120
115	20
117	10
118	20
119	410
120	60
121	10
123	40
125	641
127	9999
128	1011
129	50
130	10
131	10
132	90
133	40
136	10
137	110
138	220
139	130
140	90
141	10
143	50
145	1682
146	320
147	1001
148	110
149	10
155	420
156	170
157	2222
158	470
159	731
160	60
173	430
174	130
175	1541
176	5735
177	500
178	30
