Mass Spectrum: Aniline, p,p'-(p-phenylenedioxy)di-
Formula: C18 H16 N2 O2
CAS: 3491-12-1
Molecular weight: 292
Origin: Japan AIST/NIMC Database- Spectrum MS-NW-8010
m/z	RELATIVE INTENSITY
26	10
27	90
28	119
29	10
38	60
39	499
40	30
41	99
42	60
45	10
50	159
51	109
52	179
53	329
54	119
55	30
62	30
63	179
64	139
65	1449
66	199
67	10
74	20
75	40
76	169
77	99
78	40
79	30
80	849
81	70
82	10
83	20
89	30
90	40
91	80
92	559
93	209
94	20
101	10
102	20
103	30
104	20
106	30
107	10
108	3869
109	399
110	30
115	80
116	40
117	70
118	50
119	10
120	99
121	10
126	10
127	119
128	169
129	129
130	179
131	30
132	20
139	70
140	20
141	30
142	20
143	60
144	99
145	40
146	969
147	30
153	10
154	139
155	99
156	629
157	109
158	20
159	10
166	20
167	40
168	20
170	20
171	30
172	149
173	20
174	20
175	20
182	20
183	99
184	319
185	209
186	30
198	20
200	109
201	70
202	10
209	80
210	20
212	40
218	10
221	10
235	20
237	10
246	10
247	10
248	20
263	299
264	99
265	10
266	10
290	20
291	249
292	9999
293	2039
294	249
295	20
