Mass Spectrum: N,N'-Bis(2-methyl-2-nitrosobutan-3-one)
Formula: C10 H18 N2 O4
CAS: 34946-73-1
Molecular weight: 230
Origin: L. KONOPSKI, INST. ORG. IND., ANNOPOL, WARSAW, POLAND
m/z	RELATIVE INTENSITY
14	140
15	1100
18	100
26	160
27	630
28	260
29	1680
30	1120
37	120
38	270
39	1820
40	370
41	3890
42	1620
43	9999
44	220
45	90
50	90
51	120
53	140
54	70
55	200
56	780
57	3730
58	320
59	60
67	80
69	400
70	700
71	980
72	140
73	90
74	460
84	150
85	1750
86	3410
87	180
116	180
127	60
128	100
158	250
159	30
170	230
230	20
