Mass Spectrum: Arsine, 1,2-ethynediylbis[dimethyl-
Formula: C6 H12 As2
CAS: 34943-62-9
Molecular weight: 234
Origin: R.D.FELTHAM CHEM. DEPT., ARIZONA UNIV., TUCSON, ARIZ., USA
m/z	RELATIVE INTENSITY
89	2300
103	1600
105	1100
115	2200
129	5800
151	1400
165	8800
174	1700
189	6300
204	1500
219	6100
234	9999
