Mass Spectrum: trans-Linalool oxide (furanoid)
Formula: C10 H18 O2
CAS: 34995-77-2
Molecular weight: 170
Origin: NIST Mass Spectrometry Data Center, 2010
m/z	RELATIVE INTENSITY
26	30
27	440
28	80
29	390
30	10
31	621
37	10
38	40
39	1101
40	240
41	2242
42	370
43	3853
44	180
45	300
46	10
47	10
50	80
51	220
52	120
53	971
54	240
55	3803
56	380
57	641
58	170
59	9999
60	340
61	50
62	20
63	40
64	10
65	370
66	170
67	3333
68	3673
69	1631
70	911
71	1331
72	821
73	180
74	20
75	10
77	550
78	100
79	1421
80	120
81	1982
82	390
83	1852
84	651
85	841
86	70
87	30
91	591
92	70
93	3633
94	5165
95	851
96	120
97	1071
98	100
99	40
100	10
101	10
102	240
103	20
106	10
107	110
108	20
109	460
110	210
111	3453
112	641
113	60
119	150
120	20
122	10
123	20
124	10
125	70
126	10
127	20
135	20
137	711
138	70
139	10
143	50
152	20
153	10
155	751
156	70
157	10
