Mass Spectrum: Heptanoic acid, 1-methylethyl ester
Formula: C10 H20 O2
CAS: 34997-46-1
Molecular weight: 172
Origin: W.Jennings, T.Shibamoto
m/z	RELATIVE INTENSITY
27	190
29	70
31	70
36	250
41	1651
42	4294
43	9899
44	450
45	370
55	1682
56	370
57	2452
58	270
59	1651
60	8428
61	9999
62	370
63	70
64	180
68	360
69	1341
72	70
73	4784
74	781
75	781
83	1992
84	1151
85	3493
86	180
87	4614
88	270
89	3493
90	180
95	450
97	70
101	1551
102	3613
103	681
111	260
112	70
113	6636
114	961
115	1331
116	70
129	651
130	1251
131	4884
132	1151
143	70
173	380
