Mass Spectrum: 3-Chloro-4-fluoronitrobenzene
Formula: C6 H3 Cl F N O2
CAS: 350-30-1
Molecular weight: 175
Origin: NIST Mass Spectrometry Data Center
m/z	RELATIVE INTENSITY
12	40
13	10
16	120
17	20
18	10
19	10
25	70
30	6326
31	581
32	50
33	40
35	230
36	240
37	951
38	450
39	140
44	40
46	591
47	130
48	120
49	510
50	2352
51	350
52	70
53	20
55	140
56	550
57	661
58	60
60	260
61	1081
62	911
63	1161
64	110
65	20
66	40
67	480
68	2122
69	591
70	40
71	70
72	210
73	901
74	3113
75	1121
76	120
78	50
79	60
80	130
81	601
82	360
83	60
84	450
85	220
86	200
87	110
88	50
89	20
91	651
92	961
93	4704
94	3944
95	300
96	60
97	110
98	30
99	40
102	110
103	340
104	50
105	150
106	30
109	4434
110	460
111	1421
112	110
115	30
117	4344
118	270
119	1301
120	80
126	30
127	90
129	9999
130	791
131	3193
132	210
145	4374
146	370
147	1491
148	100
159	340
161	100
175	8378
176	651
177	2722
178	200
