Mass Spectrum: 1,6-Dioxaspiro[4.4]nonane-2,7-dione
Formula: C7 H8 O4
CAS: 3505-67-7
Molecular weight: 156
Origin: Japan AIST/NIMC Database- Spectrum MS-IW- 83
m/z	RELATIVE INTENSITY
14	70
15	60
17	10
18	40
25	20
26	589
27	1609
28	7049
29	1019
30	40
31	40
37	30
38	60
39	269
40	70
41	289
42	1689
43	409
44	149
45	149
50	40
51	40
52	40
53	129
54	339
55	3419
56	9999
57	3989
58	159
59	10
61	10
62	10
63	10
65	30
66	60
67	189
68	70
69	249
70	999
71	60
72	50
73	399
74	10
77	10
78	20
79	50
81	20
82	50
83	649
84	1619
85	129
93	10
94	20
95	20
96	30
97	259
98	30
99	10
100	40
101	2149
102	90
103	10
109	70
110	40
111	219
112	9149
113	619
114	50
128	60
129	90
135	10
138	30
139	10
156	10
