Mass Spectrum: 2,4-Pentanedione, 3-(2-propenyl)-
Formula: C8 H12 O2
CAS: 3508-78-9
Molecular weight: 140
m/z	RELATIVE INTENSITY
39	500
41	500
42	200
43	9999
44	300
51	200
53	200
55	500
69	300
71	300
77	300
79	500
80	200
81	200
82	200
83	801
95	200
97	2002
98	701
107	500
122	300
125	300
140	500
