Mass Spectrum: Ethyl .alpha.-bromocyclobutanecarboxylate
Formula: C7 H11 Br O2
CAS: 35120-18-4
Molecular weight: 206
Origin: Japan AIST/NIMC Database- Spectrum MS-IW-1590
m/z	RELATIVE INTENSITY
14	10
15	50
25	10
26	399
27	1619
28	459
29	2909
30	70
31	129
37	10
38	60
39	779
40	109
41	269
42	109
43	789
44	50
45	999
46	30
47	10
49	10
50	119
51	269
52	149
53	4639
54	1309
55	789
56	40
57	99
59	30
67	10
68	40
69	80
70	30
71	619
72	119
73	80
77	10
79	20
80	50
81	1859
82	239
83	50
85	40
89	30
91	10
93	20
95	20
97	50
98	99
99	9999
100	619
101	60
104	10
105	329
106	199
107	359
108	199
109	40
111	10
113	10
117	10
119	20
120	10
121	20
122	10
123	10
127	6959
128	539
129	40
131	20
132	109
133	3399
134	439
135	3309
136	309
137	20
149	20
150	1249
151	159
152	1209
153	129
154	10
159	10
160	239
161	519
162	269
163	579
164	30
165	90
177	40
178	1629
179	159
180	1589
181	109
182	10
205	10
206	40
207	60
208	50
209	50
