Mass Spectrum: 1-Phenanthrenecarboxylic acid, 1,2,3,4,4a,4b,5,9,10,10a-decahydro-1,4a-dimethyl-7-(1-methylethyl)-, methyl ester, [1R-(1.alpha.,4a.beta.,4b.alpha.,10a.alpha.)]-
Formula: C21 H32 O2
CAS: 3513-69-7
Molecular weight: 316
m/z	RELATIVE INTENSITY
39	100
41	400
43	1200
53	400
55	1300
59	800
65	400
66	100
67	1200
68	100
69	700
73	400
77	1200
78	500
79	1800
80	200
81	1900
82	200
83	200
85	100
88	200
90	200
91	9899
92	6099
93	2100
94	300
95	1300
96	200
97	200
101	4600
102	400
103	600
104	500
105	4400
106	800
107	1200
108	300
109	2200
110	400
111	600
114	300
115	1100
116	400
117	2700
118	700
119	1500
120	500
121	9999
122	1600
123	2900
124	200
127	300
128	700
129	1100
130	300
131	2200
132	400
133	4999
134	3200
135	1800
136	1100
137	300
141	500
142	300
143	700
144	200
145	900
146	8699
147	1300
148	1800
149	600
150	100
151	400
153	400
155	300
157	300
159	700
160	300
161	200
171	200
173	500
181	1400
182	100
183	400
185	300
186	100
187	1600
188	300
192	300
199	100
213	300
241	200
257	200
301	100
316	2000
