Mass Spectrum: Thiazolo[3,2-a]pyridinium, 3,8-dihydroxy-2-phenyl-, hydroxide, inner salt
Formula: C13 H9 N O2 S
CAS: 35143-57-8
Molecular weight: 243
Origin: K. UNDHEIM
m/z	RELATIVE INTENSITY
39	2900
40	300
41	300
42	200
43	700
44	700
45	400
50	400
51	900
52	300
53	200
54	200
55	500
57	200
62	300
63	900
64	400
65	400
66	300
67	400
69	400
70	300
71	200
76	200
77	2600
78	500
79	200
80	200
81	200
82	200
83	500
89	1900
90	2400
91	500
93	600
94	300
95	500
105	600
111	300
115	200
118	1400
119	300
120	300
121	9999
122	900
123	500
127	1000
128	200
134	200
138	600
152	300
154	500
181	400
182	1100
183	300
214	2900
215	1000
216	200
243	6600
244	1100
245	400
