Mass Spectrum: Butanenitrile, 4-oxo-
Formula: C4 H5 N O
CAS: 3515-93-3
Molecular weight: 83
Origin: B. Derendyaev, Novosibirsk Institute of Organic Chemistry
m/z	RELATIVE INTENSITY
12	139
13	139
14	339
15	699
16	289
19	20
20	20
21	20
24	70
25	299
26	2039
27	2749
28	6279
29	4619
30	119
31	299
32	10
36	99
37	419
38	519
39	539
40	519
41	1439
42	639
43	649
44	1389
45	30
46	10
48	10
49	30
50	149
51	789
52	1309
53	469
54	9999
55	4759
56	299
57	50
58	20
59	10
62	30
63	60
64	70
65	20
66	20
67	40
68	20
69	10
70	10
78	20
80	50
81	10
82	379
83	139
84	20
