Mass Spectrum: 11-Dodecen-1-yl acetate
Formula: C14 H26 O2
CAS: 35153-10-7
Molecular weight: 226
Origin: NIST Mass Spectrometry Data Center, 1998.
m/z	RELATIVE INTENSITY
14	10
15	100
26	30
27	560
28	200
29	1050
30	30
31	70
37	10
38	30
39	1480
40	280
41	5469
42	1310
43	9999
44	300
45	70
50	30
51	90
52	60
53	860
54	4800
55	8549
56	1380
57	880
58	160
59	40
60	20
61	1590
62	40
63	20
65	180
66	560
67	6019
68	6399
69	4490
70	660
71	300
72	170
73	430
74	20
77	120
78	30
79	490
80	370
81	5829
82	7799
83	2650
84	340
85	120
86	60
87	50
88	10
91	50
92	10
93	150
94	230
95	4200
96	4490
97	1030
98	210
99	40
100	40
101	50
102	10
105	10
107	50
108	90
109	2090
110	2030
111	320
112	50
113	20
114	30
115	20
116	60
117	10
121	30
122	50
123	930
124	1020
125	140
126	10
127	10
128	10
129	10
135	10
136	20
137	500
138	540
139	60
140	10
141	10
143	10
151	40
152	10
153	10
165	20
166	340
167	50
183	10
