Mass Spectrum: cis-3-Hexenyl isovalerate
Formula: C11 H20 O2
CAS: 35154-45-1
Molecular weight: 184
Origin: Japan AIST/NIMC Database- Spectrum MS-NW-5386
m/z	RELATIVE INTENSITY
15	129
18	20
26	90
27	1329
28	319
29	1969
31	109
38	80
39	1459
40	289
41	4369
42	769
43	1839
44	90
45	109
50	70
51	169
52	90
53	459
54	759
55	2599
56	889
57	6729
58	349
59	199
60	329
61	289
62	10
63	60
65	189
66	129
67	7879
68	579
69	449
70	60
71	70
77	50
79	129
80	60
81	609
82	9999
83	1619
84	609
85	5829
86	369
87	329
91	599
92	439
93	30
96	50
97	10
99	10
100	20
101	40
102	99
103	829
104	60
114	50
115	40
129	10
