Mass Spectrum: Benzene, 1-methoxy-4-(methylsulfonyl)-
Formula: C8 H10 O3 S
CAS: 3517-90-6
Molecular weight: 186
Origin: V.A.KOPTYUG, ATLAS OF MASS SPECTRA OF ORGANIC COMPOUNDS
m/z	RELATIVE INTENSITY
62	373
63	1538
64	2011
65	309
69	722
74	300
75	314
76	457
77	5849
78	446
79	300
92	3829
93	297
107	5029
108	475
123	1521
155	436
171	9999
172	751
173	443
186	207
