Mass Spectrum: N-Ethyl-4-hydroxypiperidine
Formula: C7 H15 N O
CAS: 3518-83-0
Molecular weight: 129
Origin: Japan AIST/NIMC Database- Spectrum MS-NW-7560
m/z	RELATIVE INTENSITY
14	20
15	289
18	10
26	109
27	889
28	1189
29	949
30	719
31	209
32	10
38	20
39	229
40	70
41	559
42	3069
43	529
44	4959
45	219
46	10
47	20
50	20
51	40
52	70
53	309
54	289
55	969
56	1379
57	2099
58	1149
59	60
60	10
63	10
65	20
67	90
68	139
69	129
70	519
71	449
72	269
73	50
77	10
78	20
79	60
80	90
81	50
82	139
83	40
84	1789
85	209
86	80
93	10
94	20
95	20
96	349
97	50
98	30
99	10
100	109
101	20
108	60
109	20
110	539
111	80
112	779
113	70
114	9999
115	759
116	40
126	20
127	20
128	1259
129	2339
130	199
131	20
