Mass Spectrum: Chloromethanesulfonyl chloride
Formula: C H2 Cl2 O2 S
CAS: 3518-65-8
Molecular weight: 148
Origin: NIST Mass Spectrometry Data Center, 1994
m/z	RELATIVE INTENSITY
12	64
13	171
14	398
16	69
17	2
18	1
29	364
30	27
32	251
33	115
35	445
36	101
37	141
38	31
39	4
44	133
45	308
46	135
47	582
48	2261
49	9999
50	4
51	3591
59	4
60	9
62	33
64	608
65	100
66	32
67	71
68	8
69	23
70	6
72	2
77	3
78	35
79	22
80	9
81	16
83	391
84	489
85	186
86	301
87	23
88	52
96	2
97	7
99	82
101	27
113	475
115	191
116	5
117	8
119	4
