Mass Spectrum: 1,4-Epoxynaphthalene, 1,2,3,4-tetrahydro-
Formula: C10 H10 O
CAS: 35185-96-7
Molecular weight: 146
Origin: Chuck Anderson, Aldrich Chemical Co.
m/z	RELATIVE INTENSITY
14	3
15	9
25	4
26	41
27	176
28	49
29	74
30	3
31	7
36	2
37	48
38	135
39	740
40	63
41	66
42	14
43	27
44	7
45	11
46	4
49	18
50	259
51	460
52	85
53	39
54	3
55	16
57	65
58	67
59	21
60	9
61	59
62	225
63	637
64	146
65	312
66	30
67	4
68	5
69	3
71	8
72	58
73	26
74	153
75	140
76	141
77	427
78	119
79	13
84	5
85	30
86	78
87	91
88	51
89	1397
90	1447
91	694
92	55
93	3
97	6
98	29
99	11
100	6
101	46
102	196
103	341
104	56
105	19
106	2
109	4
110	6
111	3
113	30
114	31
115	1101
116	238
117	316
118	9999
119	764
120	55
121	5
122	4
126	34
127	148
128	308
129	74
130	8
131	235
132	24
133	2
143	3
144	14
145	81
146	624
147	67
148	6
