Mass Spectrum: 4,7,12-Trimethylbenz[a]anthracene
Formula: C21 H18
CAS: 35187-24-7
Molecular weight: 270
Origin: Organic Synthesis Lab, MSU, Moscow.TRC 452
m/z	RELATIVE INTENSITY
26	10
27	140
29	30
38	10
39	130
40	10
41	40
43	40
44	20
50	40
51	90
52	20
53	20
55	10
57	20
62	40
63	110
64	10
65	20
69	10
74	50
75	70
76	40
77	70
78	10
86	30
87	70
88	70
89	40
91	20
94	110
95	20
98	20
99	40
100	150
101	240
102	20
103	20
106	240
107	120
108	50
110	10
111	40
112	160
113	841
114	290
115	110
118	250
119	1281
120	1221
121	320
122	10
123	10
124	60
125	410
126	1321
127	591
128	130
130	60
131	210
132	80
133	120
134	180
135	791
136	30
137	10
139	50
141	20
150	40
151	40
152	50
153	30
161	10
162	10
163	50
164	20
165	40
174	20
175	10
176	50
177	10
178	30
179	10
186	10
187	60
188	20
189	100
190	20
191	10
198	20
200	70
201	30
202	120
203	30
211	40
212	30
213	120
214	30
215	180
216	50
217	10
222	10
223	30
224	80
225	50
226	290
227	110
228	170
229	250
230	50
235	20
236	20
237	150
238	100
239	2012
240	1752
241	430
242	120
243	40
248	30
249	20
250	270
251	140
252	1091
253	1031
254	951
255	2192
256	550
257	90
261	30
262	10
263	130
264	40
265	130
266	50
267	70
268	100
269	490
270	9999
271	2292
272	240
