Mass Spectrum: 6-Octen-2-one
Formula: C8 H14 O
CAS: 35194-31-1
Molecular weight: 126
Origin: CARL DJERASSI DEPT OF CHEM STANFORD UNIV STANFORD CALIF 94305
m/z	RELATIVE INTENSITY
41	2200
42	300
43	9100
44	100
45	100
50	100
51	200
52	100
53	1000
54	300
55	2500
56	200
57	200
58	3000
59	500
65	100
66	200
67	3100
68	9999
69	1300
71	1000
77	100
79	100
81	100
83	400
84	100
93	100
97	500
108	800
111	200
126	700
