Mass Spectrum: 9-Decen-2-one
Formula: C10 H18 O
CAS: 35194-30-0
Molecular weight: 154
Origin: CARL DJERASSI DEPT OF CHEM STANFORD UNIV STANFORD CALIF 94305
m/z	RELATIVE INTENSITY
41	2200
42	200
43	9999
44	100
53	300
54	800
55	2400
56	100
57	100
58	7100
59	1000
67	600
68	400
69	1200
71	2800
72	300
79	300
81	700
82	100
84	200
85	200
86	200
93	100
94	1200
95	200
96	1300
97	700
98	100
99	100
107	100
111	500
112	100
125	200
136	100
154	200
