Mass Spectrum: Benzene, 1-(chloromethyl)-4-fluoro-
Formula: C7 H6 Cl F
CAS: 352-11-4
Molecular weight: 144
Origin: Japan AIST/NIMC Database- Spectrum MS-NW-7765
m/z	RELATIVE INTENSITY
26	40
27	40
28	40
31	139
32	10
33	10
35	30
36	20
37	80
38	109
39	269
40	10
43	50
44	129
45	10
49	60
50	249
51	189
52	30
53	10
54	90
56	70
57	539
58	20
59	109
60	20
61	129
62	229
63	379
64	40
65	10
67	10
68	30
69	40
70	40
72	40
73	50
74	70
75	80
76	20
77	10
78	10
79	10
80	40
81	299
82	99
83	1189
84	70
85	40
86	60
87	50
88	20
89	169
90	20
91	10
93	10
94	20
95	20
97	10
105	30
106	10
107	649
108	249
109	9999
110	789
111	20
117	50
119	10
123	10
124	10
125	10
143	299
144	2069
145	249
146	669
147	50
