Mass Spectrum: n-Butyl methylphosphonofluoridate
Formula: C5 H12 F O2 P
CAS: 352-63-6
Molecular weight: 154
Origin: VERIFIN - Methodology B1-1979
m/z	RELATIVE INTENSITY
27	500
28	200
29	600
38	50
39	400
40	60
41	1401
42	70
43	200
44	100
47	200
53	100
54	50
55	300
56	1000
57	200
67	200
73	80
79	200
81	1301
82	1201
83	100
98	100
99	9999
100	100
111	500
112	400
125	600
153	10
