Mass Spectrum: 2-Butyl methylphosphonofluoridate
Formula: C5 H12 F O2 P
CAS: 352-52-3
Molecular weight: 154
Origin: VERIFIN - Methodology B1-1979
m/z	RELATIVE INTENSITY
27	300
28	100
29	400
36	60
37	400
41	1301
42	80
43	300
47	200
53	50
55	100
56	700
57	400
67	90
79	100
80	50
81	800
82	90
98	100
99	9999
100	80
124	90
125	4704
126	100
139	500
