Mass Spectrum: Benzene, 1-fluoro-4-methyl-
Formula: C7 H7 F
CAS: 352-32-9
Molecular weight: 110
Origin: Japan AIST/NIMC Database- Spectrum MS-NW-3004
m/z	RELATIVE INTENSITY
15	10
26	30
27	90
28	30
31	139
32	10
33	30
36	10
37	70
38	109
39	359
40	20
41	10
43	60
44	99
45	109
49	40
50	229
51	249
52	40
53	10
54	90
55	129
56	60
57	559
58	40
59	119
60	20
61	99
62	169
63	409
64	60
65	70
68	40
69	60
70	50
71	10
73	20
74	80
75	139
76	20
77	20
80	30
81	219
82	60
83	1149
84	109
85	40
86	40
87	30
88	10
89	179
90	60
91	169
92	40
93	10
94	20
95	30
96	10
105	20
107	359
108	219
109	9999
110	6379
111	459
112	10
