Mass Spectrum: 1-Bromo-3-fluoropropane
Formula: C3 H6 Br F
CAS: 352-91-0
Molecular weight: 140
Origin: NIST Mass Spectrometry Data Center
m/z	RELATIVE INTENSITY
12	50
13	110
14	230
15	631
19	30
20	30
24	40
25	210
26	1682
27	6786
28	50
29	50
31	651
32	50
33	4474
34	50
35	10
36	80
37	490
38	681
39	2983
40	591
41	8658
42	290
44	110
45	561
46	220
47	350
55	20
56	100
57	661
59	4894
60	2492
61	9999
62	250
79	300
80	130
81	300
82	120
91	50
92	60
93	490
94	70
95	470
96	20
104	20
105	50
106	70
107	550
108	60
109	510
111	40
113	40
140	3924
142	3623
143	90
