Mass Spectrum: p-Fluorophenyl trifluoromethyl ether
Formula: C7 H4 F4 O
CAS: 352-67-0
Molecular weight: 180
Origin: NIST Mass Spectrometry Data Center, 1994
m/z	RELATIVE INTENSITY
12	36
13	25
16	10
18	16
19	15
25	73
26	222
27	10
28	63
31	1348
32	52
33	149
36	66
37	482
38	545
39	532
40	42
44	23
47	232
49	201
50	1084
51	334
52	44
53	178
55	136
56	676
57	4013
58	147
60	79
61	477
62	556
63	1138
64	222
65	27
66	62
67	48
68	319
69	4203
70	73
73	163
74	301
75	949
76	76
79	31
81	715
82	674
83	9999
84	574
88	61
92	97
93	79
94	206
95	2334
96	159
101	48
102	33
111	5896
112	448
113	224
114	420
115	34
132	50
152	42
161	143
179	34
180	6899
181	566
182	40
