Mass Spectrum: 1-Methyl-2-phenoxyethylamine
Formula: C9 H13 N O
CAS: 35205-54-0
Molecular weight: 151
Origin: Japan AIST/NIMC Database- Spectrum MS-NW-5457
m/z	RELATIVE INTENSITY
15	90
26	20
27	109
28	169
29	40
30	249
31	20
37	20
38	70
39	369
40	70
41	439
42	399
43	309
44	9999
45	279
50	99
51	349
52	40
53	10
54	10
55	40
56	119
57	279
58	779
59	40
62	20
63	70
64	30
65	219
66	109
67	10
68	20
70	10
72	10
74	30
75	20
76	20
77	509
78	119
79	60
80	10
84	70
91	80
92	10
93	30
94	419
95	40
105	30
106	10
107	70
108	189
109	10
119	50
120	10
133	10
134	10
135	10
136	10
150	30
151	169
152	60
