Mass Spectrum: 1-Hepten-4-ol
Formula: C7 H14 O
CAS: 3521-91-3
Molecular weight: 114
Origin: NIST Mass Spectrometry Data Center, 1990.
m/z	RELATIVE INTENSITY
26	203
27	1537
28	205
29	1164
31	1136
38	332
39	2691
40	505
41	2983
42	1027
43	5175
44	830
45	577
50	158
51	222
52	129
53	561
55	9999
56	426
57	580
65	158
67	374
68	101
69	241
70	193
71	1323
73	6325
74	309
79	184
81	392
96	173
