Mass Spectrum: 2,6-Dinitrobenzonitrile
Formula: C7 H3 N3 O4
CAS: 35213-00-4
Molecular weight: 193
Origin: NIST Mass Spectrometry Data Center
m/z	RELATIVE INTENSITY
14	10
17	100
18	60
26	210
27	100
28	110
30	9999
31	70
36	80
37	751
38	961
39	280
40	150
44	50
46	1511
48	90
49	380
50	3833
51	540
52	210
53	130
54	360
55	70
60	80
61	631
62	1902
63	1251
64	420
65	90
66	160
72	130
73	581
74	2172
75	6726
76	861
77	1341
78	170
86	180
87	270
88	561
89	1181
90	340
91	380
99	1271
100	1682
101	3763
102	290
103	480
104	80
105	210
116	60
117	530
118	70
121	160
133	6926
134	591
147	190
163	5895
164	540
177	170
193	991
194	100
