Mass Spectrum: 7-Octen-2-one, 6-methyl-
Formula: C9 H16 O
CAS: 35215-49-7
Molecular weight: 140
Origin: CARL DJERASSI DEPT OF CHEM STANFORD UNIV STANFORD CALIF 94305
m/z	RELATIVE INTENSITY
41	1600
42	200
43	9999
44	200
45	100
51	100
53	500
54	400
55	3400
56	400
57	100
58	3100
59	300
65	100
67	2900
68	300
69	400
70	1300
71	1900
72	200
77	100
79	200
81	600
82	5400
83	700
84	100
85	1200
86	100
93	300
97	400
98	100
107	300
111	600
112	100
122	500
125	200
140	100
