Mass Spectrum: Benz(a)anthracene, 2,7,12-trimethyl-
Formula: C21 H18
CAS: 35215-31-7
Molecular weight: 270
Origin: Organic Synthesis Lab, MSU, Moscow.TRC 451
m/z	RELATIVE INTENSITY
27	60
29	20
36	10
39	60
41	30
42	10
43	30
44	30
50	30
51	50
52	10
53	10
55	10
56	10
57	20
62	10
63	50
65	20
74	20
75	40
76	20
77	50
78	20
86	10
87	40
88	60
89	30
91	20
94	90
95	30
98	10
99	20
100	120
101	240
102	20
103	20
106	210
107	120
108	50
111	20
112	150
113	822
114	271
115	80
118	230
119	1333
120	1323
121	341
124	50
125	421
126	1373
127	611
128	130
129	20
131	200
132	90
133	140
134	260
135	792
136	20
137	10
139	40
141	10
150	40
151	30
152	40
153	10
161	10
162	10
163	40
164	10
165	30
174	30
175	10
176	40
177	10
178	20
179	20
186	10
187	50
188	30
189	80
190	20
191	10
198	10
199	10
200	60
201	30
202	90
203	20
211	40
212	20
213	120
214	30
215	130
216	30
222	10
223	20
224	90
225	60
226	331
227	130
228	150
229	120
230	30
235	20
236	20
237	170
238	130
239	2154
240	2154
241	541
242	90
243	70
244	10
248	50
249	30
250	341
251	190
252	1132
253	1072
254	1022
255	2996
256	711
257	90
258	10
261	40
262	20
263	150
264	50
265	120
266	60
267	70
268	100
269	571
270	9999
271	2234
272	260
