Mass Spectrum: Hexane, 2,2,5-trimethyl-
Formula: C9 H20
CAS: 3522-94-9
Molecular weight: 128
Origin: Japan AIST/NIMC Database- Spectrum MS-NW-2946
m/z	RELATIVE INTENSITY
15	30
26	10
27	389
28	169
29	839
30	20
38	10
39	349
40	60
41	1769
42	129
43	1519
44	50
48	10
50	10
51	20
52	10
53	90
54	20
55	359
56	3369
57	9999
58	439
65	10
67	20
69	109
70	349
71	1799
72	99
79	10
85	10
112	10
113	449
114	30
