Mass Spectrum: Hexanoic acid, 5-(acetyloxy)-, ethyl ester
Formula: C10 H18 O4
CAS: 35234-24-3
Molecular weight: 202
m/z	RELATIVE INTENSITY
43	9999
55	1411
60	537
61	537
68	1332
69	1471
87	994
88	2246
97	1113
99	1252
112	994
113	895
115	2385
142	1014
143	457
145	716
159	338
202	1193
