Mass Spectrum: Octanoic acid, 5-(acetyloxy)-, methyl ester
Formula: C11 H20 O4
CAS: 35234-23-2
Molecular weight: 216
m/z	RELATIVE INTENSITY
43	9999
55	1494
71	299
74	1713
82	259
83	259
99	1793
112	757
113	518
131	3984
143	777
145	996
156	259
173	398
