Mass Spectrum: 5-Chloro-2'-fluoro-2-hydroxyethyaminobenzophenone
Formula: C15 H13 Cl F N O2
CAS: 35231-38-0
Molecular weight: 293
Origin: H.Maurer ET AL.J.Chromatogr. 222,409(1981)
m/z	RELATIVE INTENSITY
44	9999
45	8187
46	1551
51	941
53	741
61	1141
63	540
70	741
73	741
74	540
75	2152
76	540
77	941
83	340
88	741
89	340
95	2552
96	340
102	741
109	8628
110	771
111	1371
112	370
113	540
123	2352
138	571
166	6586
167	571
168	2182
169	370
170	571
198	340
207	540
214	540
227	571
232	340
262	9979
263	1952
264	3934
265	741
275	941
277	340
293	3533
294	771
295	1351
