Mass Spectrum: Benzoin methyl ether
Formula: C15 H14 O2
CAS: 3524-62-7
Molecular weight: 226
Origin: NIST Mass Spectrometry Data Center
m/z	RELATIVE INTENSITY
15	20
27	50
29	50
38	40
39	190
40	10
41	30
49	10
50	340
51	1261
52	160
53	40
61	10
62	70
63	210
64	60
65	180
66	10
69	10
74	90
75	80
76	140
77	3954
78	500
79	20
82	40
86	10
87	20
88	10
89	320
90	220
91	1672
92	130
93	90
102	10
103	10
105	2062
106	180
107	10
113	10
115	40
118	30
119	20
121	9999
122	1271
123	70
126	10
127	10
128	20
139	30
151	20
152	110
153	20
163	20
164	30
165	200
166	50
167	50
178	10
