Mass Spectrum: 4(1H)-Pyrimidinone, 6-methyl-
Formula: C5 H6 N2 O
CAS: 3524-87-6
Molecular weight: 110
m/z	RELATIVE INTENSITY
26	487
27	1059
28	1292
37	551
38	847
39	2076
40	1271
41	1038
42	6610
43	805
51	487
52	487
54	1059
55	1525
66	424
67	445
68	1038
69	424
71	487
81	2182
82	2542
83	487
110	9999
111	445
