Mass Spectrum: Bicyclo[3.2.1]oct-2-ene, 3-chloro-
Formula: C8 H11 Cl
CAS: 35242-17-2
Molecular weight: 142
Origin: B. R. ANDERSON
m/z	RELATIVE INTENSITY
14	88
15	640
16	18
17	35
18	119
25	29
26	540
27	2803
28	511
29	657
30	24
31	35
35	40
36	57
37	208
38	578
39	4200
40	526
41	1511
42	97
43	120
44	30
45	88
47	44
48	29
49	305
50	834
51	3175
52	1011
53	1231
54	903
55	220
56	59
57	132
58	19
59	25
60	121
61	427
62	461
63	1001
64	220
65	2487
66	3368
67	1236
68	120
69	53
70	36
71	72
72	58
73	420
74	303
75	677
76	194
77	5969
78	1556
79	6145
80	671
81	115
82	21
83	57
84	41
85	101
86	78
87	110
88	319
89	174
90	155
91	1889
92	284
93	255
94	35
95	80
96	28
97	42
98	29
99	159
100	1374
101	626
102	520
103	333
104	69
105	398
106	216
107	2065
108	199
109	35
111	63
112	1294
113	9999
114	1770
115	3259
116	444
117	39
123	22
125	85
126	25
127	360
128	40
129	127
130	19
141	40
142	2802
143	263
144	905
145	87
