Mass Spectrum: 1-Hexene, 5-methyl-
Formula: C7 H14
CAS: 3524-73-0
Molecular weight: 98
Origin: Japan AIST/NIMC Database- Spectrum MS-NW-4649
m/z	RELATIVE INTENSITY
14	10
15	109
26	119
27	1609
28	159
29	2879
30	70
37	50
38	109
39	1899
40	289
41	6629
42	1069
43	2669
44	90
49	10
50	109
51	169
52	80
53	459
54	369
55	5109
56	9999
57	4189
58	179
61	10
62	20
63	30
65	60
66	30
67	209
68	90
69	1789
70	1849
71	99
74	10
77	50
78	10
79	50
81	80
82	20
83	629
84	50
97	30
98	139
99	10
