Mass Spectrum: Tebutam
Formula: C15 H23 N O
CAS: 35256-85-0
Molecular weight: 233
Origin: NIST Mass Spectrometry Data Center, 1995
m/z	RELATIVE INTENSITY
12	1
15	153
17	10
18	69
20	4
27	717
28	310
29	1392
30	145
37	10
39	836
41	2499
42	329
43	756
44	67
45	8
50	72
51	256
52	74
53	62
54	42
55	168
56	8
57	5864
58	488
59	41
62	23
63	146
64	71
65	958
66	61
67	8
68	23
69	85
70	75
71	32
72	35
74	12
75	14
76	36
77	288
78	109
79	227
80	22
82	8
83	15
84	66
85	546
86	49
87	10
89	215
91	9999
92	905
93	36
98	6
100	23
102	7
103	28
104	146
105	136
106	836
107	102
108	6
114	4
115	21
116	17
117	26
118	28
119	86
120	9
128	7
130	19
131	20
132	110
133	36
134	502
135	51
142	529
143	54
146	29
147	27
148	193
149	44
150	8
158	4
160	8
174	6
176	150
177	24
178	6
190	2159
191	283
192	22
218	33
219	7
233	692
234	129
235	11
