Mass Spectrum: 4H-1-Benzothiopyran-4-one, 2,3-dihydro-
Formula: C9 H8 O S
CAS: 3528-17-4
Molecular weight: 164
Origin: Japan AIST/NIMC Database- Spectrum MS-NW-5572
m/z	RELATIVE INTENSITY
14	10
15	10
18	40
26	60
27	269
28	169
29	10
32	30
37	60
38	129
39	329
40	10
41	10
42	10
43	20
44	30
45	249
46	20
47	10
49	30
50	339
51	229
52	30
53	40
54	20
55	109
57	50
58	329
59	80
60	30
61	60
62	139
63	419
64	109
65	199
66	20
67	40
68	20
69	1029
70	60
71	60
73	30
74	159
75	149
76	259
77	159
78	40
81	129
82	509
83	40
84	40
85	20
86	10
87	10
89	80
90	70
91	229
92	269
93	80
94	10
95	10
101	10
102	40
103	20
104	20
105	20
106	20
107	80
108	3039
109	349
110	159
111	10
113	10
115	10
118	10
121	70
122	10
133	20
134	159
135	90
136	9999
137	879
138	499
139	40
147	20
148	10
161	10
162	30
163	50
164	5139
165	549
166	269
167	20
