Mass Spectrum: 2-Dibutylaminoethylamine
Formula: C10 H24 N2
CAS: 3529-09-7
Molecular weight: 172
Origin: Chuck Anderson, Aldrich Chemical Co.
m/z	RELATIVE INTENSITY
15	136
17	8
18	442
26	63
27	878
28	768
29	3306
30	3359
31	63
32	28
39	416
40	45
41	2447
42	1874
43	787
44	5181
45	131
53	96
54	95
55	514
56	351
57	1770
58	1796
59	69
64	25
67	16
68	63
69	100
70	266
71	80
72	185
73	37
80	4
82	63
83	9
84	429
85	67
86	1341
87	122
96	19
98	553
99	16
100	7290
101	416
112	59
114	5
126	5
127	77
128	131
129	359
130	16
140	54
142	9999
143	878
144	34
172	156
173	10
