Mass Spectrum: Benzene, 1-isothiocyanato-3-nitro-
Formula: C7 H4 N2 O2 S
CAS: 3529-82-6
Molecular weight: 180
Origin: RADIAN CORP
m/z	RELATIVE INTENSITY
26	50
27	50
30	1770
37	450
38	620
39	620
40	10
44	400
45	260
46	530
49	120
50	2620
51	630
57	60
58	120
61	280
62	470
63	1880
64	1020
69	300
70	400
73	130
74	1280
75	1690
76	980
78	80
81	20
82	70
83	310
84	210
88	60
90	3780
91	300
93	10
94	30
95	90
96	40
107	1470
108	400
122	1250
123	10
133	610
134	7370
135	640
136	280
180	9999
181	910
182	450
