Mass Spectrum: Carbonic difluoride
Formula: C F2 O
CAS: 353-50-4
Molecular weight: 66
Origin: GOODYEAR ATOMIC CORPORATION, PORTSMOUTH, OHIO
m/z	RELATIVE INTENSITY
16	100
19	92
28	1360
29	16
31	448
47	9999
48	96
50	245
66	5480
67	61
