Mass Spectrum: Methyl methylphosphonofluoridate
Formula: C2 H6 F O2 P
CAS: 353-88-8
Molecular weight: 112
Origin: VERIFIN - Methodology B1-1979
m/z	RELATIVE INTENSITY
28	60
29	100
31	100
36	100
47	800
49	300
50	100
51	100
63	100
67	3302
81	2001
82	9999
83	300
84	400
86	200
97	800
111	200
112	500
