Mass Spectrum: Propane, 2-fluoro-2-methyl-
Formula: C4 H9 F
CAS: 353-61-7
Molecular weight: 76
m/z	RELATIVE INTENSITY
15	100
26	90
27	571
28	821
29	430
31	100
32	190
33	350
37	60
38	120
39	641
40	100
41	2232
42	130
43	90
44	60
45	170
46	80
47	230
49	30
50	90
51	100
53	70
55	160
56	240
57	290
58	40
59	851
60	821
61	9999
62	340
75	20
