Mass Spectrum: Methane, bromodichlorofluoro-
Formula: C Br Cl2 F
CAS: 353-58-2
Molecular weight: 180
m/z	RELATIVE INTENSITY
31	901
35	310
37	100
47	480
49	160
63	100
66	841
68	280
79	831
81	831
82	400
84	260
91	190
93	180
101	9999
102	110
103	6536
105	1061
110	190
112	190
116	90
126	140
128	190
145	2672
147	3493
149	861
161	240
163	400
165	180
