Mass Spectrum: 1,1,1-Trifluoro-2-iodoethane
Formula: C2 H2 F3 I
CAS: 353-83-3
Molecular weight: 210
Origin: NIST Mass Spectrometry Data Center, 1994
m/z	RELATIVE INTENSITY
13	33
14	75
26	37
28	77
31	311
32	98
33	918
43	42
44	175
45	117
50	59
51	174
63	484
64	2814
65	60
69	510
82	503
83	2418
84	46
95	19
127	3678
128	242
139	162
140	196
141	775
146	153
158	66
159	146
170	22
171	41
177	34
190	226
191	894
192	18
208	18
210	9999
211	203
