Mass Spectrum: Methane, tribromofluoro-
Formula: C Br3 F
CAS: 353-54-8
Molecular weight: 268
Origin: Japan AIST/NIMC Database- Spectrum MS-IW-1293
m/z	RELATIVE INTENSITY
12	50
31	1469
32	10
76	10
79	689
80	50
81	699
82	50
85	10
91	369
93	359
94	10
95	20
96	10
110	469
111	10
112	449
113	10
117	10
158	90
160	189
162	90
170	159
172	309
174	149
189	5109
190	50
191	9999
192	109
193	4869
194	50
251	20
253	20
268	30
270	90
272	90
274	30
