Mass Spectrum: Bromochlorodifluoromethane
Formula: C Br Cl F2
CAS: 353-59-3
Molecular weight: 164
m/z	RELATIVE INTENSITY
12	540
19	130
31	1782
35	851
37	280
47	290
49	90
50	1451
55	10
56	10
63	10
64	10
66	460
68	150
79	1431
81	1401
85	9999
87	3183
91	130
93	120
110	120
112	120
114	40
116	60
118	10
126	20
128	20
129	1972
130	10
131	1922
145	591
147	751
149	180
164	30
166	40
168	10
