Mass Spectrum: Carbonic chloride fluoride
Formula: C Cl F O
CAS: 353-49-1
Molecular weight: 82
m/z	RELATIVE INTENSITY
12	70
16	110
28	161
31	150
35	1461
37	480
47	9999
48	130
49	50
54	40
60	40
63	1301
65	430
66	150
68	50
82	3924
83	40
84	1271
85	50
