Mass Spectrum: Acetonitrile, trifluoro-
Formula: C2 F3 N
CAS: 353-85-5
Molecular weight: 95
m/z	RELATIVE INTENSITY
12	1221
13	10
14	210
15	10
19	210
24	130
25	10
26	1101
27	30
31	2082
32	20
35	10
36	10
37	10
38	530
39	10
41	10
42	10
43	60
44	10
45	20
47	10
50	2482
51	30
57	120
58	10
62	10
69	9999
70	110
76	4664
77	120
78	10
95	170
96	10
