Mass Spectrum: 5-Ethyl-5-(3-oxy-1-cyclohexenyl)-hexahydropyrimidin-2,4,6-trione
Formula: C12 H14 N2 O4
CAS: 35305-10-3
Molecular weight: 250
Origin: H.Maurer,J.Chromatogr.,530,307(1990)
m/z	RELATIVE INTENSITY
51	751
52	681
53	791
54	150
55	1541
56	80
57	80
63	150
64	110
65	1281
66	861
67	1241
68	260
69	230
70	490
73	190
75	150
77	1471
78	490
79	1732
80	941
81	230
82	190
83	410
85	80
88	80
89	110
91	831
92	260
93	410
94	561
95	2742
96	340
97	601
98	230
103	80
104	110
105	380
106	300
107	561
108	641
109	110
110	230
111	190
112	110
117	80
118	110
119	110
120	110
121	230
122	751
123	1171
124	150
128	110
132	80
133	410
134	230
135	380
136	1091
137	110
141	681
145	80
147	80
148	80
149	230
150	1501
151	340
155	40
156	340
157	190
161	230
162	110
163	110
164	260
165	380
166	641
167	80
178	1171
179	1882
180	110
192	340
193	2863
194	490
205	300
207	410
210	80
221	9999
222	1621
223	150
235	110
249	80
250	2222
251	260
