Mass Spectrum: Hydrazine, butyl-
Formula: C4 H12 N2
CAS: 3530-11-8
Molecular weight: 88
m/z	RELATIVE INTENSITY
29	2752
30	981
31	1271
32	9999
39	2552
40	781
41	6186
42	1962
56	4804
57	3733
58	2843
59	100
73	3433
74	100
88	1471
