Mass Spectrum: Stannane, cyclohexyltrimethyl-
Formula: C9 H20 Sn
CAS: 3531-48-4
Molecular weight: 248
Origin: M.GEILEN UNIVERSITE LIBRE DE BRUXELLES, BELGIUM
m/z	RELATIVE INTENSITY
15	27
16	27
17	13
18	40
26	27
27	220
28	120
29	270
30	13
36	27
38	13
39	430
40	55
41	1530
42	95
43	120
44	27
45	13
50	27
51	65
52	40
53	180
54	340
55	2430
56	160
57	27
63	13
65	65
66	40
67	880
68	80
69	65
77	160
78	55
79	210
80	55
81	310
82	1700
83	1400
84	110
91	27
92	13
93	27
94	13
95	65
96	80
97	40
99	65
100	13
104	13
105	13
106	13
107	13
108	13
109	55
110	13
112	13
113	27
114	13
115	13
116	220
117	430
118	500
119	650
120	640
121	750
122	70
123	110
124	95
125	150
127	65
129	65
130	110
131	950
132	620
133	1600
134	750
135	1950
136	95
137	320
138	40
139	350
140	13
141	27
142	27
143	1900
144	40
145	180
146	370
147	2630
148	1740
149	4200
150	2070
151	5300
152	220
153	750
154	130
155	920
156	27
157	370
158	27
159	210
160	130
161	4500
162	2500
163	7400
164	2900
165	9999
166	1330
167	1380
168	65
169	1720
170	54
171	13
172	10
173	13
175	13
177	13
178	10
179	13
183	13
184	10
185	27
187	13
189	70
195	13
196	10
197	27
198	13
199	54
200	27
201	70
202	27
203	80
204	10
205	13
206	10
207	13
213	10
214	10
215	13
216	13
217	13
218	13
225	70
227	40
228	27
229	930
230	580
231	1600
232	680
233	2150
234	190
235	310
236	27
237	370
238	40
240	40
242	27
243	27
244	390
245	240
246	650
247	300
248	880
249	95
250	130
251	13
252	160
253	27
