Mass Spectrum: Stannane, trimethylpropyl-
Formula: C6 H16 Sn
CAS: 3531-45-1
Molecular weight: 208
Origin: M.GEILEN UNIVERSITE LIBRE DE BRUXELLES, BELGIUM
m/z	RELATIVE INTENSITY
15	50
16	35
17	20
18	70
26	20
27	210
28	140
29	70
31	20
32	20
35	20
36	50
37	20
38	35
39	170
40	35
41	300
42	70
43	190
44	20
45	35
53	20
54	20
55	35
56	70
57	70
69	20
70	20
71	20
73	35
76	20
77	15
78	20
83	20
84	20
85	35
87	20
88	20
89	20
104	20
105	20
112	35
113	35
114	20
115	35
116	440
117	720
118	1000
119	1140
120	1300
121	1100
122	160
123	180
124	180
125	210
126	20
127	100
128	20
129	120
130	250
131	1600
132	1070
133	2520
134	1300
135	3150
136	160
137	520
138	90
139	580
140	20
141	50
142	50
143	280
144	50
145	250
146	560
147	3600
148	2570
149	5700
150	3050
151	7400
152	310
153	1040
154	210
155	1340
156	50
157	350
158	35
159	300
160	180
161	4650
162	2600
163	7700
164	3000
165	9999
166	370
167	1920
168	70
169	1860
170	70
173	15
174	20
175	35
176	35
177	35
178	35
179	20
181	20
182	15
183	20
185	120
186	20
187	90
188	50
189	1600
190	930
191	2700
192	1100
193	3680
194	210
195	550
196	35
197	630
198	50
200	15
202	15
204	140
205	90
206	230
207	90
208	310
209	20
210	50
211	15
212	50
213	15
