Mass Spectrum: Stannane, trimethyl(1-methylethyl)-
Formula: C6 H16 Sn
CAS: 3531-46-2
Molecular weight: 208
Origin: M.GEILEN UNIVERSITE LIBRE DE BRUXELLES, BELGIUM
m/z	RELATIVE INTENSITY
14	20
15	85
26	20
27	300
28	50
29	85
31	20
41	540
42	130
43	650
44	40
45	20
55	40
56	20
57	65
59	20
69	40
85	40
87	20
91	20
95	20
112	20
113	20
114	20
115	20
116	390
117	540
118	820
119	770
120	1070
121	750
122	130
123	110
124	170
125	150
127	90
128	110
130	210
131	1380
132	920
133	2250
134	1070
135	2680
136	130
137	450
138	65
139	500
141	20
142	40
143	170
144	65
145	170
146	580
147	2100
148	1840
149	3100
150	2230
151	3870
152	260
153	580
154	230
155	730
156	20
157	320
158	20
159	250
160	150
161	4500
162	2600
163	7500
164	2900
165	9999
166	370
167	1500
168	40
169	1850
170	85
173	20
174	20
175	40
176	40
177	40
178	20
179	20
180	20
181	20
182	15
183	20
185	65
186	20
187	40
188	20
189	690
190	410
191	1160
192	470
193	1520
194	85
195	210
196	20
197	300
198	15
200	75
204	170
205	130
206	300
207	130
208	390
209	20
210	65
212	65
