Mass Spectrum: (R)-(-)-2-Amino-1-propanol
Formula: C3 H9 N O
CAS: 35320-23-1
Molecular weight: 75
Origin: Chuck Anderson, Aldrich Chemical Co.
m/z	RELATIVE INTENSITY
14	29
15	324
16	13
17	45
18	1877
19	14
25	7
26	82
27	461
28	753
29	551
30	428
31	502
32	13
37	11
38	39
39	124
40	137
41	379
42	1320
43	335
44	9999
45	341
46	8
52	12
54	15
55	20
56	136
57	107
58	36
59	26
60	199
72	4
74	32
75	29
76	20
