Mass Spectrum: 3,4-Dimethoxybenzoyl chloride
Formula: C9 H9 Cl O3
CAS: 3535-37-3
Molecular weight: 200
Origin: NIST Mass Spectrometry Data Center
m/z	RELATIVE INTENSITY
14	10
15	70
26	10
27	10
28	20
29	50
30	10
31	20
35	10
36	20
37	70
38	80
39	110
41	70
42	10
43	50
45	20
47	10
48	10
49	80
50	621
51	1241
52	110
53	390
54	20
55	70
56	10
57	10
59	40
60	30
61	160
62	370
63	621
64	200
65	300
66	300
67	30
68	10
69	60
72	10
73	60
74	190
75	210
76	370
77	1321
78	220
79	1762
80	110
81	40
82	160
84	10
85	20
86	70
87	20
88	20
89	10
90	10
91	190
92	621
93	200
94	671
95	50
96	10
97	10
98	10
99	30
100	10
101	20
103	40
104	110
105	120
106	50
107	581
108	60
109	150
110	10
111	50
113	40
114	40
115	10
116	20
119	330
120	240
121	370
122	1051
123	90
124	10
126	10
127	10
128	10
129	120
130	10
131	30
133	30
134	10
135	50
136	40
137	1051
138	100
139	20
141	10
143	10
149	150
150	30
151	10
156	10
157	60
158	10
159	20
163	20
165	9999
166	1021
167	110
168	10
183	10
185	10
200	1201
201	120
202	390
203	40
