Mass Spectrum: Difluron
Formula: C14 H9 Cl F2 N2 O2
CAS: 35367-38-5
Molecular weight: 310
Origin: J. SHAW, BORRISTON RESEARCH, ROCKVILLE, MD, USA
m/z	RELATIVE INTENSITY
12	10
14	20
15	90
16	70
17	160
18	490
20	20
25	10
26	80
27	140
28	290
29	80
30	20
31	140
32	10
33	10
35	30
36	70
37	280
38	520
39	870
40	120
41	120
42	50
43	150
44	540
45	80
46	30
47	40
48	10
49	140
50	480
51	330
52	240
53	40
54	30
55	20
56	50
57	180
58	30
59	10
60	30
61	230
62	740
63	3823
64	810
65	360
66	40
67	20
68	200
69	130
70	290
71	40
72	80
73	660
74	320
75	770
76	130
77	50
78	50
79	40
80	30
81	120
82	60
83	30
84	20
85	60
86	40
87	120
88	170
89	300
90	1491
91	420
92	290
93	310
94	210
95	50
96	10
97	40
98	140
99	1341
100	310
101	460
102	60
105	40
106	40
107	10
108	100
109	40
110	40
111	210
113	3273
114	360
115	40
117	10
118	30
120	340
121	30
122	10
123	50
125	1751
126	670
127	2912
128	350
129	750
130	60
133	20
134	110
135	20
136	10
141	8378
142	530
143	40
149	10
150	10
151	10
153	9999
155	4574
156	250
157	130
158	150
159	10
169	40
171	10
183	10
184	20
185	10
187	20
189	20
196	10
275	220
276	20
280	60
282	40
292	10
310	2092
311	930
313	70
