Mass Spectrum: 1,2-Dihexylcyclopropene
Formula: C15 H28
CAS: 35365-52-7
Molecular weight: 208
Origin: R. SINNHUBER, DEP. FOOD SCI. TECHNOL., OREGON STATE UNIV., U
m/z	RELATIVE INTENSITY
27	2500
28	1900
29	3800
39	2000
40	600
41	6900
42	700
43	2700
51	400
52	400
53	2200
54	1000
55	4500
56	500
57	800
65	800
66	500
67	5800
68	8500
69	2700
70	400
77	1400
78	400
79	1800
80	800
81	9999
82	5800
83	1200
91	800
93	900
94	400
95	7500
96	2200
97	500
109	2200
110	500
123	1900
124	400
137	1500
138	3500
139	300
151	1400
165	500
208	1200
