Mass Spectrum: Bicyclo[3.1.0]hexan-3-ol, 4-methylene-1-(1-methylethyl)-, acetate
Formula: C12 H18 O2
CAS: 3536-54-7
Molecular weight: 194
m/z	RELATIVE INTENSITY
14	10
15	100
18	30
19	20
20	10
23	10
24	10
25	10
26	60
27	1672
28	270
29	891
30	20
31	180
33	10
36	10
37	40
38	120
39	1922
40	330
41	3203
42	350
43	2302
44	150
45	130
46	20
47	10
48	10
49	10
50	210
51	601
52	300
53	1942
54	280
55	2422
56	20
57	50
58	10
59	160
60	70
61	30
62	80
63	230
64	100
65	981
66	340
67	1151
68	220
69	1161
70	1631
71	140
72	30
73	20
74	30
75	60
76	30
77	1311
78	410
79	2342
80	290
81	3623
82	530
83	1361
84	180
85	50
86	10
89	80
90	170
91	7076
92	9999
93	1221
94	260
95	1732
96	430
97	100
98	20
99	20
100	10
101	20
102	10
103	190
104	80
105	701
106	240
107	430
108	200
109	2372
110	390
111	40
112	10
113	20
114	20
115	90
116	50
117	200
118	80
119	1461
120	130
121	100
122	30
123	50
124	20
125	10
126	10
127	10
128	10
129	10
130	10
131	40
132	10
133	70
134	2582
135	300
136	70
137	90
138	10
139	10
140	10
143	10
144	10
145	10
146	10
147	10
149	10
150	10
151	10
152	10
153	10
154	10
158	10
159	10
161	10
163	10
175	10
176	10
