Mass Spectrum: 2-(4-Chlorophenoxy)thioacetamide
Formula: C8 H8 Cl N O S
CAS: 35368-44-6
Molecular weight: 201
Origin: NIST Mass Spectrometry Data Center
m/z	RELATIVE INTENSITY
12	20
13	30
14	50
15	90
16	20
17	20
18	100
25	30
26	80
27	70
28	581
29	200
30	2732
31	80
32	200
33	130
34	180
35	40
36	50
37	220
38	520
39	500
40	350
41	360
42	320
43	20
44	50
45	370
46	370
47	260
48	70
49	180
50	561
51	290
52	30
53	110
54	10
55	10
56	10
57	80
58	220
59	100
60	891
61	280
62	490
63	1011
64	320
65	380
66	40
69	70
70	20
71	30
72	130
73	1211
74	9999
75	1391
76	611
77	220
78	30
79	20
83	90
84	40
85	90
86	10
87	30
89	20
90	20
91	10
92	70
93	60
94	20
96	10
97	30
99	1601
100	260
101	530
102	90
104	10
106	10
107	10
108	20
109	20
111	550
112	70
113	240
114	30
115	30
123	20
125	10
127	1762
128	1191
129	641
130	440
131	40
132	50
133	20
137	10
138	20
139	10
141	70
142	20
143	30
144	10
145	10
155	20
165	10
167	631
168	70
169	220
170	20
185	10
201	1511
202	170
203	550
204	60
205	20
