Mass Spectrum: Oxacyclopentadecan-2-one
Formula: C14 H26 O2
CAS: 3537-83-5
Molecular weight: 226
Origin: NIST Mass Spectrometry Data Center
m/z	RELATIVE INTENSITY
27	400
28	390
29	1241
39	1401
40	410
41	6526
42	2202
43	2472
44	230
45	210
50	140
53	1001
54	1141
55	9999
56	2863
57	2022
58	631
59	130
60	651
61	150
65	200
66	200
67	2302
68	1932
69	5035
70	1892
71	1221
73	1581
79	410
80	380
81	3113
82	3914
83	4754
84	3193
85	701
87	991
93	180
94	701
95	1942
96	4504
97	4324
98	3453
99	470
100	470
101	921
102	210
108	791
109	1471
110	1822
111	1621
112	791
113	671
114	991
115	781
116	520
123	861
124	1191
125	1001
126	380
127	821
128	180
129	440
130	170
133	160
134	250
135	150
136	220
137	871
138	1161
139	290
144	140
147	290
151	430
152	290
157	180
158	170
159	280
164	450
165	380
166	881
167	210
173	190
174	210
180	190
185	300
189	170
190	300
208	220
226	260
