Mass Spectrum: Butyric acid hydrazide
Formula: C4 H10 N2 O
CAS: 3538-65-6
Molecular weight: 102
Origin: NIST Mass Spectrometry Data Center, 1994
m/z	RELATIVE INTENSITY
14	90
15	377
16	107
17	139
18	168
25	30
26	327
27	3012
28	643
29	818
30	441
31	2386
32	9999
33	140
36	42
37	96
38	260
39	1610
40	30
41	4168
42	939
43	8272
44	478
45	137
51	22
52	35
53	33
54	39
55	400
56	64
57	33
58	36
59	371
60	18
69	65
71	2322
72	120
73	21
74	138
87	98
102	978
103	75
