Mass Spectrum: 1,5-Heptadiene, 3,3,6-trimethyl-
Formula: C10 H18
CAS: 35387-63-4
Molecular weight: 138
Origin: D.HENNEBERG, MAX-PLANCK INSTITUTE, MULHEIM, WEST GERMANY
m/z	RELATIVE INTENSITY
22	3
25	5
26	9
27	454
29	197
34	9
35	8
37	23
38	13
39	557
40	78
41	5845
42	324
43	168
44	102
49	12
50	24
51	140
52	95
53	395
54	60
55	373
57	11
58	4
62	10
63	20
65	116
66	56
67	562
68	298
69	9999
70	2004
71	115
74	2
77	123
78	40
79	96
80	19
81	303
82	408
83	79
91	120
93	60
94	126
95	604
96	123
105	51
107	24
108	2
109	68
110	23
111	43
121	26
123	453
124	51
138	110
139	12
