Mass Spectrum: 1,2-Dibromo-1-chloro-1,2,2-trifluoroethane
Formula: C2 Br2 Cl F3
CAS: 354-51-8
Molecular weight: 274
Origin: Japan AIST/NIMC Database- Spectrum MS-IW-4786
m/z	RELATIVE INTENSITY
12	10
31	869
35	20
36	10
43	20
44	30
47	189
49	60
50	149
59	10
62	60
66	429
68	139
69	10
78	70
79	199
80	60
81	199
82	40
85	369
87	109
91	139
93	139
97	149
99	50
103	10
105	10
110	249
111	10
112	239
116	1019
117	20
118	329
122	30
124	30
126	80
128	99
129	659
130	30
131	649
141	40
143	50
145	2339
146	20
147	3039
148	30
149	739
151	10
159	10
160	309
161	10
162	299
172	10
176	359
178	479
179	10
180	109
189	139
191	279
193	139
195	7699
196	179
197	9999
198	219
199	2409
200	50
205	10
207	20
209	10
222	10
239	109
241	209
243	109
257	10
259	10
274	70
276	169
278	109
280	20
