Mass Spectrum: Ethane, 1-chloro-1,1,2,2-tetrafluoro-
Formula: C2 H Cl F4
CAS: 354-25-6
Molecular weight: 136
m/z	RELATIVE INTENSITY
12	50
13	30
24	30
25	40
31	2252
32	30
35	230
36	40
37	80
38	20
39	50
40	60
41	110
42	30
43	80
44	180
45	70
47	330
48	160
49	180
50	811
51	9669
52	120
55	10
56	20
58	30
59	30
62	60
63	170
64	80
65	120
66	530
67	8788
68	290
69	4634
70	60
77	30
78	40
81	260
82	410
83	661
84	50
85	9188
86	130
87	3013
88	30
95	30
97	90
98	90
99	40
100	540
101	9999
102	280
103	150
105	20
114	20
116	400
117	2352
118	210
119	801
120	30
131	40
135	1551
136	480
137	410
138	150
