Mass Spectrum: Acetamide, 2,2,2-trifluoro-
Formula: C2 H2 F3 N O
CAS: 354-38-1
Molecular weight: 113
Origin: Japan AIST/NIMC Database- Spectrum MS-NW-4988
m/z	RELATIVE INTENSITY
12	30
14	10
15	30
16	529
17	30
26	10
27	99
28	169
29	70
31	229
32	10
42	50
43	339
44	9999
45	179
46	99
47	50
50	339
51	1329
52	10
65	20
66	50
69	1379
70	10
76	20
77	20
78	50
94	239
96	10
113	129
114	20
