Mass Spectrum: Ethane, 1,1,2,2-tetrafluoro-1-iodo-
Formula: C2 H F4 I
CAS: 354-41-6
Molecular weight: 228
Origin: E.SANTORO MONTEDISON S.P.A., RESEARCH CENTRE, MILAN, ITALY
m/z	RELATIVE INTENSITY
31	1020
43	680
50	200
51	4830
63	150
69	100
82	3810
100	200
101	9999
102	220
127	2410
128	170
158	200
159	410
177	620
208	440
228	5500
229	110
