Mass Spectrum: Chlorodifluoroacetamide
Formula: C2 H2 Cl F2 N O
CAS: 354-28-9
Molecular weight: 129
Origin: NIST Mass Spectrometry Data Center
m/z	RELATIVE INTENSITY
12	100
13	10
15	60
16	781
17	10
18	20
19	150
20	10
24	10
27	100
28	310
31	601
32	50
35	340
36	50
37	120
38	40
39	10
40	20
44	9999
45	70
46	260
47	190
48	10
50	771
51	1231
62	10
63	20
64	20
65	70
66	270
67	370
68	80
69	110
76	10
78	170
82	50
85	561
87	170
94	881
95	20
96	10
129	70
131	20
