Mass Spectrum: Ethane, 1,1,2,2-tetrachloro-1-fluoro-
Formula: C2 H Cl4 F
CAS: 354-14-3
Molecular weight: 184
Origin: RADIAN CORP
m/z	RELATIVE INTENSITY
12	10
13	10
24	80
25	200
31	540
35	1180
36	70
37	350
43	60
44	910
47	1010
48	430
49	300
50	130
59	290
60	590
61	100
62	190
66	310
67	160
68	80
69	10
70	50
78	550
79	1050
80	190
81	340
82	350
83	6330
84	290
85	4010
86	70
87	640
94	590
95	170
96	360
97	110
98	30
101	9999
102	130
103	6530
104	60
105	1040
113	780
114	1950
115	530
116	1250
117	130
118	180
129	900
130	250
131	880
132	250
133	280
134	60
148	80
149	3570
150	200
151	3520
152	100
153	1090
155	100
164	410
166	520
167	30
168	240
170	10
184	140
186	190
188	70
