Mass Spectrum: Benzoic acid, 4-(acetyloxy)-3-methoxy-, methyl ester
Formula: C11 H12 O5
CAS: 35400-19-2
Molecular weight: 224
Origin: NIST Mass Spectrometry Data Center
m/z	RELATIVE INTENSITY
14	40
15	300
25	10
26	20
27	30
28	80
29	80
30	20
31	40
37	30
38	60
39	200
40	30
41	140
42	150
43	2572
44	70
45	40
49	30
50	330
51	891
52	450
53	280
54	50
55	130
56	10
59	220
60	10
61	40
62	170
63	310
64	120
65	380
66	90
67	120
68	40
69	120
73	10
74	40
75	50
76	90
77	260
78	80
79	801
80	270
81	80
82	60
83	20
85	40
90	10
91	150
92	310
93	210
94	110
95	200
96	40
97	10
103	30
104	30
105	20
106	20
107	190
108	430
109	140
110	80
111	240
112	20
119	230
120	300
121	300
122	270
123	1001
124	110
125	180
126	20
133	10
134	10
135	80
136	300
137	170
138	40
139	230
140	20
149	180
151	9999
152	891
153	130
154	10
163	10
164	10
165	20
166	10
167	510
168	50
169	10
179	10
180	10
181	210
182	8588
183	871
184	100
185	10
193	200
194	20
224	280
225	30
226	10
