Mass Spectrum: Cyclohexene, 4-bromo-
Formula: C6 H9 Br
CAS: 3540-84-9
Molecular weight: 160
Origin: Susan Richardson
m/z	RELATIVE INTENSITY
39	1802
40	420
41	941
50	170
51	300
52	80
53	981
54	150
55	200
65	300
66	190
77	971
79	1381
81	9999
82	641
91	561
93	581
