Mass Spectrum: 4-t-Butylurazole
Formula: C6 H11 N3 O2
CAS: 35403-67-9
Molecular weight: 157
Origin: NIST Mass Spectrometry Data Center, 1994
m/z	RELATIVE INTENSITY
14	117
15	1416
16	144
17	60
18	394
26	237
27	1541
28	1392
29	3961
30	1093
31	770
37	72
38	197
39	2192
40	742
41	5538
42	1158
43	517
44	548
45	37
50	115
51	175
52	109
53	231
54	262
55	471
56	1831
57	9999
58	3339
59	227
68	76
69	70
70	990
71	67
72	58
74	78
84	1204
85	140
99	80
101	3392
102	3185
103	151
142	628
143	53
145	9
157	276
158	22
