Mass Spectrum: Hexanedioic acid monochloride monomethyl ester
Formula: C7 H11 Cl O3
CAS: 35444-44-1
Molecular weight: 178
Origin: Japan AIST/NIMC Database- Spectrum MS-NW-7848
m/z	RELATIVE INTENSITY
12	20
13	30
14	129
15	2169
16	30
17	30
18	80
25	30
26	599
27	3019
28	1689
29	1659
30	99
31	419
32	59
35	159
36	669
37	90
38	229
39	1989
40	309
41	3219
42	1559
43	2259
44	179
45	459
46	20
47	20
48	99
49	109
50	179
51	249
52	119
53	699
54	1229
55	9999
56	949
57	309
58	179
59	4429
60	169
61	70
62	50
63	449
64	219
65	169
66	40
67	129
68	789
69	1089
70	70
71	369
72	869
73	1879
74	4149
75	199
76	40
77	99
78	109
79	50
80	50
81	169
82	1199
83	3269
84	409
85	99
86	99
87	779
88	90
89	50
90	139
91	189
92	80
93	90
94	20
95	20
96	20
97	269
98	50
99	279
100	279
101	649
102	50
103	30
104	30
105	90
106	20
107	40
108	20
109	30
110	349
111	5149
112	389
113	189
114	7769
115	2649
116	219
117	30
118	249
119	499
120	99
121	179
122	20
125	20
127	20
128	40
129	149
130	20
131	50
133	20
134	10
135	20
141	20
142	109
143	1729
144	159
145	20
146	189
147	2929
148	289
149	989
150	90
151	30
152	20
162	10
163	20
165	10
178	20
