Mass Spectrum: 4-Aminobenzyl cyanide
Formula: C8 H8 N2
CAS: 3544-25-0
Molecular weight: 132
Origin: NIST Mass Spectrometry Data Center
m/z	RELATIVE INTENSITY
26	30
27	60
29	10
30	20
37	60
38	140
39	340
40	80
41	180
42	50
49	50
50	400
51	811
52	731
53	270
54	190
55	10
60	10
61	110
62	230
63	460
64	260
65	470
66	390
67	40
73	20
74	120
75	230
76	440
77	1441
78	751
79	220
80	120
81	10
85	10
86	30
87	50
88	70
89	120
90	80
91	140
92	50
93	80
99	10
100	10
101	20
102	180
103	180
104	2392
105	951
106	1071
107	80
114	60
115	100
116	140
117	20
129	80
131	9999
132	7347
133	661
134	20
