Mass Spectrum: Thiophane, 3-pentyl-
Formula: C9 H18 S
CAS: 35468-43-0
Molecular weight: 158
Origin: V.A.KOPTYUG, ATLAS OF MASS SPECTRA OF ORGANIC COMPOUNDS
m/z	RELATIVE INTENSITY
15	650
26	550
27	2460
39	1600
41	3540
42	400
43	1060
45	1320
46	140
47	520
53	1200
54	340
55	1660
56	340
57	630
58	140
59	600
60	450
61	340
67	1080
68	430
69	710
71	340
73	250
81	630
85	450
87	9999
88	550
101	2200
158	1280
