Mass Spectrum: Davana ether
Formula: C15 H22 O2
CAS: 35470-57-6
Molecular weight: 234
Origin: Philip Morris R&D
m/z	RELATIVE INTENSITY
36	83
37	17
38	53
39	1000
40	286
41	2142
42	224
43	6249
44	164
45	118
46	6
47	4
50	49
51	244
52	145
53	1034
54	246
55	1882
56	164
57	380
58	39
59	58
60	26
61	15
62	9
63	107
64	24
65	543
66	175
67	2351
68	3141
69	856
70	122
71	179
73	47
74	24
75	23
77	728
78	165
79	957
80	220
81	1798
82	1711
83	686
84	90
85	216
86	30
87	21
89	45
90	24
91	1245
92	209
93	1194
94	280
95	1288
96	3176
97	517
98	105
99	34
102	120
103	175
104	45
105	641
106	124
107	908
108	705
109	9999
110	1743
111	876
112	154
113	23
115	88
116	55
117	143
118	32
119	250
120	305
121	835
122	318
123	2655
124	6005
125	1333
126	231
127	32
128	56
129	83
130	60
131	350
132	36
133	156
134	39
135	592
136	412
137	1877
138	1858
139	213
140	8
141	24
142	51
143	75
144	39
145	214
146	49
147	122
148	49
149	2022
150	391
151	4229
152	1653
153	671
154	79
155	15
157	55
158	17
159	173
160	55
161	115
162	47
163	995
164	493
165	239
166	4773
167	451
168	66
172	13
173	55
174	39
175	56
176	2
177	164
178	139
179	184
183	9
185	15
186	6
187	17
188	9
189	11
190	6
191	160
192	130
193	43
201	141
202	28
205	49
207	271
208	11
216	331
218	94
219	653
233	169
234	3368
235	572
