Mass Spectrum: 3,5,9-Undecatrien-2-one, 6,10-dimethyl-, (E,E)-
Formula: C13 H20 O
CAS: 3548-78-5
Molecular weight: 192
Origin: STC 0005
m/z	RELATIVE INTENSITY
16	10
27	1121
29	601
38	120
39	1311
41	7577
42	420
43	4944
44	160
45	190
50	140
51	370
52	230
53	1101
54	180
55	440
57	50
58	50
62	60
63	130
64	70
65	540
66	160
67	721
68	190
69	9999
70	661
71	70
75	40
77	661
78	200
79	951
80	1161
81	4714
82	450
83	100
89	30
91	540
92	140
93	360
94	90
95	200
96	40
103	70
105	230
106	160
107	290
108	130
109	3413
110	320
111	50
115	80
116	40
117	50
119	170
120	30
121	170
122	80
123	140
124	2242
125	240
128	50
129	40
131	80
132	50
133	50
134	150
135	110
136	50
141	30
147	60
149	310
150	30
157	50
159	90
174	40
177	160
192	360
193	50
