Mass Spectrum: 1-Pentanol, 2,2,3,3,4,4,5,5-octafluoro-
Formula: C5 H4 F8 O
CAS: 355-80-6
Molecular weight: 232
Origin: RADIAN CORP
m/z	RELATIVE INTENSITY
29	1750
30	240
31	9999
33	570
42	280
44	170
45	90
49	1470
50	310
51	4980
52	10
56	20
57	120
60	210
61	1760
62	550
63	440
64	480
67	210
69	3650
71	70
74	40
75	810
77	140
79	170
80	550
81	920
82	1040
83	340
91	310
93	660
94	90
95	1940
100	1220
101	940
109	10
111	580
113	1290
119	210
125	40
129	10
131	1780
132	200
143	180
145	580
151	50
163	180
182	330
212	10
