Mass Spectrum: Perfluoro(2-methylpentane)
Formula: C6 F14
CAS: 355-04-4
Molecular weight: 338
Origin: Japan AIST/NIMC Database- Spectrum MS-NW-7076
m/z	RELATIVE INTENSITY
31	279
50	80
55	10
62	20
69	9999
70	109
73	30
80	30
85	10
93	179
100	339
101	10
112	40
119	769
120	20
124	10
131	889
132	30
143	10
150	60
162	10
169	1229
170	40
181	249
182	10
200	30
219	469
220	20
231	299
232	20
319	40
