Mass Spectrum: Hexane, 1,1,1,2,2,3,3,4,4,5,5,6,6-tridecafluoro-
Formula: C6 H F13
CAS: 355-37-3
Molecular weight: 320
Origin: H.MARTIN KIEL UNIVERSITY, KIEL, GERMANY F.R.G.
m/z	RELATIVE INTENSITY
31	404
50	76
51	9999
69	5848
82	211
93	158
94	12
100	491
101	1988
112	29
113	380
119	1287
131	1462
132	18
150	41
151	702
163	105
169	819
181	140
213	111
219	41
231	398
251	322
