Mass Spectrum: 2,3-Dichlorooctafluorobutane
Formula: C4 Cl2 F8
CAS: 355-20-4
Molecular weight: 270
Origin: NIST Mass Spectrometry Data Center, 1994
m/z	RELATIVE INTENSITY
12	25
31	1339
32	145
35	250
37	88
43	46
47	239
49	85
50	241
55	83
62	114
66	197
69	8850
70	92
74	256
78	106
80	32
81	75
82	56
85	4747
87	1563
93	789
94	38
97	92
99	32
100	410
101	137
103	75
109	91
111	41
112	118
116	931
118	296
119	231
131	988
132	199
135	9999
137	3028
138	75
147	1169
149	378
150	296
151	398
152	20
153	243
155	31
163	415
165	266
166	238
167	54
168	78
181	69
182	64
184	29
201	435
203	311
205	50
235	80
237	25
