Mass Spectrum: 1H,1H,5H-Octafluoropentyl methacrylate
Formula: C9 H8 F8 O2
CAS: 355-93-1
Molecular weight: 300
Origin: NIST Mass Spectrometry Data Center, 1994
m/z	RELATIVE INTENSITY
14	18
15	172
16	6
18	30
20	21
25	18
26	115
27	101
28	114
29	469
30	128
31	168
32	26
33	123
37	139
38	478
39	4609
40	1073
41	8480
42	406
43	178
44	59
45	81
47	26
49	16
51	2236
52	31
53	137
54	34
55	271
56	55
57	117
58	14
60	12
61	18
63	37
64	357
65	55
66	15
67	41
68	12
69	9999
70	455
71	81
72	55
73	43
75	76
77	76
81	58
82	158
83	178
85	48
93	36
95	348
99	181
100	231
101	334
103	16
104	15
105	48
109	16
113	177
115	16
119	37
129	55
131	131
133	34
135	44
145	116
149	73
151	49
281	81
285	41
300	1669
301	172
302	17
