Mass Spectrum: Perfluoro(methylcyclohexane)
Formula: C7 F14
CAS: 355-02-2
Molecular weight: 350
m/z	RELATIVE INTENSITY
31	350
50	70
51	30
55	20
62	20
69	9999
70	110
74	90
75	10
79	10
81	70
85	50
86	20
87	20
93	781
94	30
98	10
100	1281
101	30
105	40
112	160
113	70
115	20
116	50
117	10
118	611
119	10
123	140
124	10
131	5535
132	180
134	10
135	10
136	10
143	240
144	30
147	150
148	10
149	50
150	220
151	10
155	80
156	10
159	10
162	621
163	70
169	50
174	10
175	10
181	3583
182	160
186	10
187	10
193	200
194	20
197	30
199	10
200	10
205	10
208	10
212	90
213	10
215	10
217	10
219	10
224	20
231	641
232	40
243	510
244	40
246	10
262	440
263	40
281	490
282	30
293	20
331	420
332	40
