Mass Spectrum: Hexane, tetradecafluoro-
Formula: C6 F14
CAS: 355-42-0
Molecular weight: 338
Origin: Japan AIST/NIMC Database- Spectrum MS-NW-3362
m/z	RELATIVE INTENSITY
31	439
32	5
50	139
55	20
62	20
69	9999
70	119
74	50
81	50
93	279
94	10
100	839
101	20
105	10
112	60
119	3669
120	90
124	30
125	10
131	1749
132	60
143	30
150	179
162	40
169	2689
170	90
181	579
182	30
193	20
200	10
219	489
220	20
231	339
232	20
269	10
281	30
319	10
