Mass Spectrum: 2,2,3,3,4,4,5,5-Octafluoro-1,6-hexanediol
Formula: C6 H6 F8 O2
CAS: 355-74-8
Molecular weight: 262
Origin: A. Musjce, AT&T Bell Labs., Murray Hill, N.J., USA
m/z	RELATIVE INTENSITY
26	4
27	5
29	810
31	9999
32	114
33	325
34	4
38	7
39	4
41	3
42	85
43	17
44	14
45	49
47	20
49	277
50	21
51	427
52	7
53	7
55	5
56	9
57	37
60	32
61	651
62	166
63	48
64	554
65	28
67	25
69	298
70	5
71	11
73	11
74	10
75	86
76	13
77	65
78	6
79	14
80	113
81	425
82	33
83	39
88	3
89	6
91	69
92	15
93	97
94	19
95	185
96	8
97	8
98	4
100	156
101	14
105	5
106	5
107	65
108	5
109	15
110	4
111	169
112	29
113	373
114	18
119	101
122	4
123	26
124	6
125	59
126	18
127	29
128	62
129	12
131	649
132	24
133	7
135	21
137	75
138	5
141	19
142	9
143	9
144	57
145	63
148	127
149	6
153	21
155	59
156	3
157	22
161	15
162	478
163	30
164	5
172	19
173	118
174	7
175	12
183	78
184	4
192	1506
193	87
194	8
203	162
204	10
205	9
212	313
213	18
221	9
222	2
223	2
225	3
232	2
243	2
245	2
