Mass Spectrum: Perfluorohexyl iodide
Formula: C6 F13 I
CAS: 355-43-1
Molecular weight: 446
Origin: Japan AIST/NIMC Database- Spectrum MS-NW-9964
m/z	RELATIVE INTENSITY
31	509
50	119
51	40
55	10
62	30
69	9999
70	109
74	50
81	90
85	60
93	369
94	10
100	1529
101	40
105	10
112	129
119	4339
120	90
124	20
127	2939
128	40
131	2539
132	80
139	10
143	30
146	10
150	199
158	119
162	50
169	1899
170	60
177	2899
178	30
181	559
182	20
189	20
208	259
212	10
213	10
219	40
227	379
228	10
231	799
232	40
239	209
258	10
277	30
281	389
282	20
289	20
319	5499
320	349
321	10
339	10
427	119
446	1429
447	90
