Mass Spectrum: 2,4-Dimethoxypyrimidine
Formula: C6 H8 N2 O2
CAS: 3551-55-1
Molecular weight: 140
Origin: Japan AIST/NIMC Database- Spectrum MS-IW-7193
m/z	RELATIVE INTENSITY
12	10
13	10
14	60
15	1249
16	20
25	20
26	279
27	429
28	539
29	319
30	139
31	60
37	10
38	139
39	559
40	1319
41	479
42	2419
43	229
44	149
45	20
50	20
51	199
52	489
53	1419
54	549
55	589
56	929
57	99
58	209
59	10
64	10
65	109
66	289
67	809
68	989
69	979
70	799
71	40
72	90
76	10
77	60
78	60
79	339
80	889
81	969
82	1289
83	379
84	40
92	50
93	129
94	299
95	4419
96	319
97	229
98	40
108	30
109	659
110	8949
111	1559
112	109
122	99
123	10
124	60
125	1489
126	109
127	10
139	6029
140	9999
141	999
142	90
