Mass Spectrum: 1-Butanethiol, TMS derivative
Formula: C7 H18 S Si
CAS: 3553-78-4
Molecular weight: 162
Origin: R.A.FRIEDEL BUREAU OF MINES U.S.DEPT.OF INT. BRUCETON PA USA
m/z	RELATIVE INTENSITY
29	2974
31	239
43	1887
45	2004
47	463
59	966
61	510
66	43
73	7420
75	2260
77	665
87	30
89	71
91	9999
101	39
103	54
104	46
105	640
115	11
117	38
119	307
121	27
131	54
133	95
145	17
147	7644
151	15
162	2324
