Mass Spectrum: 3-Piperidinol, 1-methyl-
Formula: C6 H13 N O
CAS: 3554-74-3
Molecular weight: 115
Origin: Japan AIST/NIMC Database- Spectrum MS-NW-5482
m/z	RELATIVE INTENSITY
14	50
15	749
16	20
17	20
18	109
19	10
26	90
27	669
28	579
29	259
30	419
31	159
32	40
37	20
38	60
39	539
40	129
41	899
42	3859
43	8149
44	4119
45	179
46	20
47	10
50	40
51	60
52	70
53	139
54	149
55	249
56	289
57	789
58	9999
59	419
60	20
65	20
66	20
67	99
68	249
69	119
70	659
71	2059
72	329
73	60
74	30
77	10
78	20
79	60
80	80
81	149
82	209
83	50
84	849
85	90
86	629
87	119
93	10
94	179
95	40
96	609
97	269
98	349
99	30
100	129
101	10
110	10
112	30
113	50
114	2009
115	3989
116	319
117	20
