Mass Spectrum: Imazalil
Formula: C14 H14 Cl2 N2 O
CAS: 35554-44-0
Molecular weight: 296
Origin: NIST Mass Spectrometry Data Center, 1995
m/z	RELATIVE INTENSITY
12	17
13	15
14	30
15	89
16	12
18	32
26	333
27	955
28	1405
29	349
30	44
31	54
36	38
37	29
39	1207
41	9999
42	439
43	50
44	27
49	17
50	167
51	232
52	283
53	258
54	1092
55	113
56	30
57	40
61	44
62	77
63	153
64	16
65	26
66	37
67	37
68	67
69	54
70	40
72	23
73	108
74	243
75	504
76	117
77	58
79	37
81	1179
82	89
83	18
84	169
85	96
86	43
87	72
88	38
89	165
90	27
91	28
93	17
94	35
95	30
96	16
97	40
98	27
99	192
100	60
101	337
102	373
103	71
107	18
109	148
110	77
111	283
112	65
113	125
114	82
115	165
116	66
117	40
121	98
122	83
123	204
124	58
125	98
126	45
127	46
128	27
133	30
135	97
136	187
137	437
138	155
139	154
140	81
141	44
142	26
145	203
146	64
147	149
148	36
149	148
150	71
151	86
152	39
153	24
156	14
157	12
159	789
160	77
161	504
162	77
163	103
164	51
165	28
166	18
167	26
168	89
169	36
170	22
171	12
172	537
173	2445
174	528
175	1665
176	283
177	338
178	68
179	46
180	20
181	16
185	18
187	73
189	46
190	17
191	23
202	24
203	255
204	45
205	98
212	29
213	32
215	3030
216	348
217	1978
218	219
219	326
220	45
239	83
240	335
241	102
242	237
243	37
244	36
253	15
255	22
261	120
262	23
263	39
296	219
297	53
298	174
299	27
300	28
