Mass Spectrum: Butanoic acid, heptafluoro-, ethyl ester
Formula: C6 H5 F7 O2
CAS: 356-27-4
Molecular weight: 242
Origin: RADIAN CORP
m/z	RELATIVE INTENSITY
15	140
16	10
25	20
26	430
27	2570
28	400
29	6700
30	310
31	580
33	100
41	30
42	160
43	560
44	100
45	400
47	220
50	640
51	130
59	30
62	100
65	10
67	80
69	9999
70	110
71	80
73	120
74	40
75	20
78	210
79	30
80	50
81	330
82	10
90	40
93	210
97	10
100	3660
101	90
109	580
112	20
119	2130
120	40
131	190
147	240
150	160
169	6960
170	240
178	20
195	270
197	1490
198	70
199	350
213	230
215	220
227	250
242	150
