Mass Spectrum: Cyclobutane, 1,2-dichloro-1,2,3,3,4,4-hexafluoro-
Formula: C4 Cl2 F6
CAS: 356-18-3
Molecular weight: 232
m/z	RELATIVE INTENSITY
12	10
24	10
31	1141
32	10
35	50
36	30
37	20
38	10
43	20
44	10
47	220
48	10
49	70
50	100
55	100
56	10
59	10
61	10
62	80
66	310
67	10
68	100
69	1021
70	20
71	10
72	10
73	10
74	220
75	10
78	70
79	10
80	20
81	60
82	200
83	10
84	130
85	400
86	30
87	130
88	10
89	10
90	40
91	10
92	10
93	1001
94	40
96	10
97	80
98	10
99	30
100	370
101	50
102	10
103	30
105	10
109	210
110	10
111	70
112	190
113	30
116	9999
117	260
118	3293
119	80
124	20
125	10
127	10
128	10
129	10
130	10
131	120
132	1992
133	60
134	1311
135	40
136	220
137	10
140	10
143	50
144	10
147	1351
148	50
149	440
150	20
159	10
162	40
163	861
164	30
165	561
166	20
167	90
168	10
178	20
179	10
180	10
197	10
199	10
232	10
234	10
