Mass Spectrum: Pentafluoropropionic anhydride
Formula: C6 F10 O3
CAS: 356-42-3
Molecular weight: 310
Origin: Japan AIST/NIMC Database- Spectrum MS-NW-3540
m/z	RELATIVE INTENSITY
12	20
28	40
31	1349
32	10
36	10
39	20
43	30
44	40
50	759
51	60
55	20
69	4209
70	50
71	20
78	119
81	80
83	10
84	10
85	10
97	189
98	10
100	689
101	20
109	10
111	10
119	9999
120	239
128	40
135	10
139	20
141	10
147	4029
148	139
149	10
169	10
263	10
