Mass Spectrum: Ethane, 1,1,2,2-tetrafluoro-1,2-dinitro-
Formula: C2 F4 N2 O4
CAS: 356-16-1
Molecular weight: 192
m/z	RELATIVE INTENSITY
2	10
12	80
13	10
14	30
15	10
16	180
17	10
18	20
19	20
20	10
24	10
26	30
27	10
28	210
29	10
30	9999
31	1641
32	40
33	10
36	10
38	10
39	10
40	10
41	10
42	10
43	20
44	10
45	40
46	4474
47	130
48	20
49	10
50	721
51	10
52	10
57	10
58	10
61	10
62	30
64	20
66	10
69	490
70	10
76	20
81	70
82	10
85	10
92	10
95	10
96	20
97	10
100	1852
101	40
111	10
