Mass Spectrum: Cholesteryl stearate
Formula: C45 H80 O2
CAS: 35602-69-8
Molecular weight: 652
Origin: Organic Synthesis Lab, MSU, Moscow.TRC 807
m/z	RELATIVE INTENSITY
26	69
27	529
29	819
39	349
40	159
41	1739
42	368
43	3238
44	268
45	29
51	39
52	9
53	199
54	119
55	2058
56	409
57	2348
58	99
59	39
60	739
61	199
65	69
66	19
67	839
68	209
69	1219
70	199
71	1109
72	39
73	789
74	29
77	189
78	59
79	579
80	89
81	1499
82	259
83	769
84	119
85	419
87	119
91	719
92	199
93	799
94	209
95	1069
96	169
97	439
98	159
99	89
101	49
103	39
104	79
105	879
106	289
107	909
108	309
109	649
110	69
111	209
112	39
113	29
115	149
116	39
117	259
118	149
119	539
120	609
121	729
122	129
123	219
124	29
125	49
127	19
128	89
129	379
130	79
131	449
132	149
133	609
134	199
135	529
136	89
137	99
141	49
142	69
143	449
144	169
145	1079
146	379
147	1089
148	239
149	349
150	29
151	79
155	49
156	19
157	239
158	279
159	559
160	319
161	469
162	89
163	189
165	29
169	29
171	129
172	79
173	189
174	49
175	139
177	39
183	19
185	199
186	49
187	79
188	19
189	39
191	49
197	39
199	179
200	49
201	109
203	19
205	99
206	79
207	39
211	29
212	39
213	509
214	189
215	149
216	39
217	59
219	29
227	69
228	179
229	89
230	39
231	19
239	19
241	169
242	29
243	19
245	79
246	59
247	649
248	129
253	139
254	99
255	629
256	139
257	69
259	49
260	519
261	179
267	59
271	19
273	9
274	59
275	69
281	39
282	39
283	99
284	499
285	119
296	49
297	29
298	209
299	39
300	9
301	19
310	19
312	119
313	19
314	29
326	89
327	29
340	19
351	49
352	79
353	759
354	239
355	89
364	19
366	499
367	269
368	9999
369	3649
370	759
371	99
382	79
384	99
385	9
386	59
396	19
652	29
