Mass Spectrum: Bis(phenylthio)methane
Formula: C13 H12 S2
CAS: 3561-67-9
Molecular weight: 232
Origin: NIST Mass Spectrometry Data Center
m/z	RELATIVE INTENSITY
17	10
18	30
27	60
32	10
33	10
34	10
37	70
38	250
39	1191
40	40
45	5955
46	320
47	290
48	20
50	921
51	2572
52	210
53	60
57	100
58	160
60	10
61	40
62	120
63	310
65	1281
66	210
67	10
69	731
70	80
71	100
74	130
75	140
77	1882
78	290
79	711
80	50
81	110
82	190
83	90
84	90
85	10
86	10
89	90
91	310
92	30
93	30
94	10
95	20
97	130
106	10
108	320
109	1091
110	220
111	70
112	10
115	10
119	10
121	350
123	9999
124	861
125	420
126	30
139	10
151	10
152	30
153	70
154	10
155	10
165	10
184	30
185	20
186	10
197	20
232	2052
233	320
234	210
235	30
