Mass Spectrum: 2,6-Piperidinedione, 3-ethyl-1-methyl-3-phenyl-
Formula: C14 H17 N O2
CAS: 35622-13-0
Molecular weight: 231
Origin: Association of Official Racing Chemists
m/z	RELATIVE INTENSITY
50	179
51	668
52	176
53	243
54	225
55	393
56	160
58	612
59	64
61	22
62	97
63	441
64	175
65	465
66	65
67	96
68	117
69	71
70	65
71	56
72	44
73	224
74	110
75	130
76	206
77	997
78	528
79	148
80	37
81	35
86	55
87	100
88	54
89	481
91	1768
92	149
94	23
96	60
98	32
101	68
102	285
103	1075
104	283
105	240
106	28
110	21
112	63
113	58
115	2338
116	719
117	5065
118	811
119	89
120	33
126	113
127	184
128	387
129	450
130	242
131	945
132	4835
133	576
134	50
140	42
141	45
142	32
143	111
144	181
145	200
146	305
147	72
154	60
157	373
158	104
159	156
160	292
161	102
162	36
171	44
172	131
174	3419
175	601
176	70
185	58
188	481
189	95
199	20
203	9999
204	1246
205	117
216	396
217	291
218	47
219	7
231	772
232	134
