Mass Spectrum: Furfurylamine, .alpha.-benzyl-N-ethyl-tetrahydro-, D-threo-
Formula: C14 H21 N O
CAS: 3563-92-6
Molecular weight: 219
Origin: AAFS Toxicology Section MS DB Committee, U. Alberta, Canada
m/z	RELATIVE INTENSITY
29	100
30	90
31	10
39	60
40	10
41	150
42	90
43	210
44	220
45	10
46	110
50	10
51	40
52	10
53	20
54	20
55	130
56	320
57	50
58	200
59	10
63	30
64	10
65	220
66	10
67	50
68	50
69	30
70	60
71	510
72	60
74	10
75	10
76	10
77	240
78	70
79	40
80	30
81	10
82	70
83	440
84	380
85	280
86	40
89	60
90	30
91	1080
92	160
93	100
94	20
95	10
96	10
97	10
98	70
99	20
100	190
101	10
102	30
103	310
104	110
105	320
106	30
108	10
110	20
111	10
115	90
116	30
117	100
118	110
119	330
120	530
121	40
126	40
127	20
128	6756
129	600
130	100
131	50
132	80
133	20
134	10
146	90
148	9999
149	1151
150	30
160	20
173	10
174	10
176	40
177	10
204	10
218	10
