Mass Spectrum: 17-Norkaur-15-ene, 13-methyl-, (8.beta.,13.beta.)-
Formula: C20 H32
CAS: 3564-54-3
Molecular weight: 272
Origin: A. MCCORMICK GC-MS UNIT, CHEM. DEPT., UNIVERSITY OF GLASGOW
m/z	RELATIVE INTENSITY
51	400
52	250
53	1850
54	320
55	5100
56	720
57	1240
58	100
59	150
63	150
64	160
65	1000
66	400
67	3100
68	1000
69	5250
70	500
71	500
72	150
73	140
74	150
75	100
77	3100
78	900
79	3350
80	3000
81	4600
82	1100
83	1350
84	250
85	350
86	150
87	220
91	5500
92	2800
93	6750
94	3500
95	3800
96	750
97	1000
98	100
103	400
104	370
105	6800
106	6750
107	3300
108	1000
109	1900
110	400
111	800
112	100
115	500
116	350
117	920
118	700
119	4200
120	3300
121	3150
122	5300
123	3500
124	650
125	450
126	100
127	150
128	300
129	400
130	250
131	1300
132	500
133	3000
134	9999
135	8100
136	2200
137	1700
138	450
139	100
141	200
142	100
143	200
144	150
145	950
146	450
147	2650
148	3550
149	1500
150	3450
151	750
152	140
157	100
159	1250
160	400
161	800
162	400
163	500
164	200
165	400
172	600
173	150
174	400
175	100
176	300
177	400
178	150
187	950
188	350
189	350
190	300
191	250
192	140
201	450
202	400
203	200
204	100
215	300
216	400
217	300
229	600
230	200
231	150
243	400
257	1400
258	400
272	4300
273	1000
274	100
