Mass Spectrum: 8-Quinolinol, 5-nitroso-
Formula: C9 H6 N2 O2
CAS: 3565-26-2
Molecular weight: 174
Origin: RADIAN CORP
m/z	RELATIVE INTENSITY
14	20
15	40
25	30
26	440
27	230
28	420
29	260
30	730
31	30
36	40
37	270
38	520
39	990
40	140
41	420
42	140
43	650
44	200
45	250
48	20
49	210
50	1030
51	930
52	930
53	440
54	300
55	440
56	120
57	390
58	10
59	10
60	300
61	480
62	1260
63	2320
64	640
65	410
66	190
67	210
68	100
69	310
70	100
71	230
72	30
73	390
74	500
75	1040
76	1710
77	810
78	360
79	240
80	210
81	250
82	120
83	210
84	130
85	240
86	360
87	660
88	940
89	5450
90	910
91	340
92	350
93	180
94	80
95	190
96	90
97	180
98	140
99	140
100	130
101	520
102	820
103	1250
104	620
105	180
106	50
107	100
108	40
109	90
110	60
111	100
112	60
113	50
114	570
115	1040
116	8670
117	1000
118	150
119	160
120	270
121	100
122	30
123	60
124	30
125	30
126	10
127	50
128	150
129	1180
130	210
131	210
132	100
133	70
134	20
135	50
136	10
137	30
138	10
139	10
141	30
142	30
143	70
144	2200
145	520
146	1480
147	260
148	40
149	60
151	10
152	10
157	150
158	300
159	100
160	170
161	50
162	10
163	20
171	40
174	9999
175	1100
176	100
177	10
