Mass Spectrum: Ethylamine, 2-((p-bromo-.alpha.-methyl-.alpha.-phenylbenzyl)oxy)-N,N-dimethyl-
Formula: C18 H22 Br N O
CAS: 3565-72-8
Molecular weight: 347
Origin: R.E.Ardrey ET AL.Pharmaceutical Mass Spectra,L.,1985
m/z	RELATIVE INTENSITY
30	100
42	200
58	9999
59	300
72	100
103	100
165	100
