Mass Spectrum: Propionylpromazone
Formula: C20 H24 N2 O S
CAS: 3568-24-9
Molecular weight: 340
Origin: Tox21 Consortium/NIST Mass Spectrometry Data Center, 2012
m/z	RELATIVE INTENSITY
15	20
18	10
26	10
27	50
28	50
29	200
30	240
31	10
32	10
38	10
39	50
40	10
41	90
42	510
43	180
44	330
45	80
46	10
47	10
50	20
51	40
52	10
53	10
54	10
55	40
56	150
57	450
58	9999
59	430
60	10
62	10
63	100
64	20
65	40
66	10
68	20
69	90
70	280
71	120
72	200
73	10
74	10
75	40
76	30
77	60
78	20
79	10
81	10
82	40
83	20
84	300
85	951
86	1982
87	120
88	10
89	40
90	10
91	30
92	10
93	20
94	20
95	90
96	20
97	10
98	30
100	10
101	20
102	30
103	20
104	20
105	20
107	10
108	50
109	50
110	10
111	10
113	20
114	10
115	30
116	10
117	20
118	10
120	30
121	20
122	10
123	10
124	10
125	20
126	50
127	50
128	30
129	10
130	20
131	10
132	10
133	10
134	20
135	10
136	20
137	10
138	20
139	120
140	50
141	20
144	10
145	20
146	40
147	10
148	10
149	10
150	20
151	50
152	90
153	160
154	70
155	10
158	10
159	10
160	10
163	10
164	40
165	30
166	40
167	70
168	10
169	40
170	90
171	80
172	30
173	10
175	10
176	10
177	40
178	80
179	180
180	110
181	20
182	20
183	30
184	40
185	20
186	20
190	20
191	50
192	40
193	50
194	20
195	10
196	561
197	961
198	300
199	90
200	20
203	10
204	40
205	20
206	40
207	10
208	30
209	40
210	140
211	100
212	110
213	30
214	10
217	10
220	10
221	10
222	50
223	140
224	160
225	150
226	90
227	20
228	10
234	20
235	20
236	240
237	60
238	120
239	50
240	40
241	10
248	10
250	30
251	10
252	20
253	10
254	330
255	510
256	100
257	30
258	10
262	20
266	170
267	40
268	190
269	410
270	80
271	20
278	10
279	10
280	160
281	130
282	90
283	20
284	10
294	661
295	270
296	70
297	20
340	1451
341	320
342	100
343	20
