Mass Spectrum: 1,1'-Biphenyl, 2,2',3,3',5,5'-Hexachloro-
Formula: C12 H4 Cl6
CAS: 35694-04-3
Molecular weight: 358
Origin: N. Todua, WGM, MMES
m/z	RELATIVE INTENSITY
41	63
42	63
43	63
44	189
45	63
46	63
47	126
48	63
49	126
50	189
51	126
60	126
61	315
62	189
67	63
68	126
71	126
72	189
73	505
74	568
75	189
79	126
83	126
84	379
85	315
86	315
87	126
91	252
92	126
94	63
95	126
96	252
97	315
98	505
99	189
104	63
105	63
107	252
108	379
109	810
111	568
112	315
113	63
115	126
116	126
117	63
118	126
119	126
120	252
121	315
122	442
123	252
124	63
126	568
127	620
129	63
131	126
132	315
133	315
134	252
135	189
142	126
144	1188
145	1504
146	936
147	505
148	315
149	126
150	63
151	63
154	126
155	63
157	189
158	189
159	126
160	63
161	189
162	252
163	252
166	63
167	126
168	126
169	126
170	126
171	126
179	315
180	505
181	505
182	568
183	442
184	189
185	126
191	63
193	126
194	126
195	126
203	126
204	126
205	126
206	126
207	126
208	63
216	126
217	252
218	1251
219	379
220	873
221	189
222	189
228	126
230	126
238	126
239	126
240	126
241	126
242	126
251	63
252	379
253	442
254	379
255	505
256	252
257	189
258	126
259	126
287	63
288	3690
289	620
290	4752
291	747
292	2250
293	315
294	620
295	126
296	126
322	126
323	2629
324	620
325	4069
326	683
327	2502
328	442
329	873
330	189
331	252
358	5131
359	683
360	9999
361	1377
362	8191
363	1125
364	3249
365	568
366	999
367	189
368	189
