Mass Spectrum: Dextromoramide
Formula: C25 H32 N2 O2
CAS: 357-56-2
Molecular weight: 392
Origin: AAFS Toxicology Section MS DB Committee, U. Alberta, Canada
m/z	RELATIVE INTENSITY
39	50
40	10
41	320
42	450
43	100
44	110
45	70
54	50
55	870
56	1181
57	60
65	50
68	110
69	150
70	430
71	60
72	80
77	80
82	60
86	60
91	450
98	610
99	80
100	9999
101	640
103	50
105	50
115	300
116	110
117	80
118	60
127	80
128	3663
129	360
130	60
152	130
164	80
165	610
166	240
167	200
174	80
178	170
179	110
191	50
193	170
194	240
195	110
236	220
264	100
265	2922
266	670
267	50
306	80
