Mass Spectrum: Galantamin
Formula: C17 H21 N O3
CAS: 357-70-0
Molecular weight: 287
Origin: NIST Mass Spectrometry Data Center
m/z	RELATIVE INTENSITY
27	50
28	20
29	60
30	20
31	30
38	10
39	180
40	30
42	701
44	380
45	30
50	60
51	230
52	90
53	180
54	40
55	380
58	110
59	20
61	10
62	50
63	300
64	170
65	420
66	130
67	100
68	40
70	100
74	60
75	140
76	190
77	931
78	290
79	300
80	80
81	130
82	110
84	60
86	50
87	80
88	60
89	330
90	160
91	771
92	190
93	130
94	210
95	180
96	50
98	60
100	60
101	140
102	370
103	651
104	190
105	410
106	160
107	410
108	170
109	80
110	50
112	50
113	170
115	2332
116	550
117	340
118	280
119	170
120	220
121	310
122	170
123	60
124	30
126	160
127	851
128	1491
129	771
130	290
131	691
132	310
133	180
135	410
136	140
137	290
138	80
139	380
140	170
141	841
142	260
143	430
144	510
145	380
146	300
147	220
148	170
149	130
150	941
151	330
152	701
153	691
154	270
155	561
156	250
157	470
158	340
159	861
160	270
161	490
162	210
163	120
164	190
165	1131
166	801
167	410
168	460
169	621
170	310
171	430
172	390
173	360
174	3363
175	791
176	320
177	180
178	510
179	160
180	180
181	581
182	310
183	631
184	380
185	731
186	410
187	761
188	320
189	500
190	320
191	60
192	50
193	430
194	591
195	611
196	300
197	581
198	480
199	540
200	661
201	781
202	380
203	110
204	80
205	30
206	30
207	40
208	60
209	330
210	190
211	961
212	410
213	571
214	520
215	621
216	4284
217	681
218	100
219	10
220	10
221	10
222	30
223	40
224	70
225	490
226	781
227	350
228	550
229	540
230	1641
231	641
232	90
233	10
234	10
235	10
236	30
237	30
238	70
239	40
240	110
241	50
242	200
243	230
244	3043
245	571
246	60
247	10
250	10
251	10
252	90
253	30
254	110
255	40
256	260
257	50
258	260
259	210
260	30
268	160
269	80
270	1391
271	380
272	270
273	40
274	10
284	40
285	20
286	9999
287	8398
288	1431
289	160
290	20
