Mass Spectrum: 1-Butene, 1,1,2,3,3,4,4,4-octafluoro-
Formula: C4 F8
CAS: 357-26-6
Molecular weight: 200
m/z	RELATIVE INTENSITY
12	440
19	170
24	100
31	7026
36	80
43	190
50	771
55	330
62	470
69	3653
74	440
81	320
86	10
93	1291
100	460
105	10
112	470
119	100
124	30
131	9999
143	10
150	30
162	50
181	1191
200	881
