Mass Spectrum: Camphenol, 6-
Formula: C10 H16 O
CAS: 3570-04-5
Molecular weight: 152
Origin: Mark Whitten, Florida Museum of Natural History, U. of Florida
m/z	RELATIVE INTENSITY
41	3365
42	382
43	2249
44	612
45	230
50	339
51	964
52	527
53	1297
54	321
55	1097
56	242
57	406
59	1182
60	127
63	291
65	1036
66	321
67	1273
68	200
69	333
70	200
77	2261
78	557
79	1649
80	327
81	988
82	254
83	200
91	3613
92	648
93	9999
94	1813
95	1570
96	266
103	169
105	454
106	169
107	1139
108	8095
109	2073
110	200
119	479
137	248
