Mass Spectrum: Ethanethiol, 2,2'-thiobis-
Formula: C4 H10 S3
CAS: 3570-55-6
Molecular weight: 154
Origin: Japan AIST/NIMC Database- Spectrum MS-IW-6260
m/z	RELATIVE INTENSITY
14	10
15	10
25	10
26	119
27	889
28	169
29	50
32	139
33	149
34	399
35	799
36	20
37	30
39	10
41	20
44	129
45	1419
46	439
47	1019
48	80
49	50
53	10
55	10
56	20
57	159
58	609
59	1949
60	3169
61	9999
62	529
63	599
64	259
65	159
66	40
67	20
72	10
73	109
74	10
75	20
76	90
77	10
78	129
79	149
80	20
81	10
85	10
87	169
88	10
89	10
90	10
91	99
92	229
93	239
94	5509
95	369
96	499
97	109
98	20
99	10
104	10
105	199
106	159
107	1119
108	70
109	99
119	20
120	2159
121	189
122	199
123	10
124	30
125	20
138	40
152	199
153	10
154	2409
155	179
156	319
157	20
158	10
