Mass Spectrum: N-Benzylisatoic anhydride
Formula: C15 H11 N O3
CAS: 35710-05-5
Molecular weight: 253
Origin: NIST Mass Spectrometry Data Center, 1994
m/z	RELATIVE INTENSITY
18	24
26	79
27	294
28	203
37	139
38	471
39	1776
40	175
41	308
44	144
45	80
50	1238
51	2173
52	438
53	155
61	145
62	433
63	1492
64	682
65	2677
66	159
74	376
75	472
76	1200
77	2850
78	1287
79	205
87	86
89	887
90	1358
91	9999
92	796
101	83
102	316
103	377
104	2096
105	633
106	56
107	65
115	67
119	88
126	131
127	169
130	256
131	104
132	369
146	284
150	115
151	350
152	983
153	317
154	78
177	65
178	169
180	7497
181	1926
182	186
207	51
208	364
209	1064
210	187
224	224
225	374
226	76
235	147
253	4315
254	732
255	59
