Mass Spectrum: 4-(p-Acetoxyphenyl)-2-butanone
Formula: C12 H14 O3
CAS: 3572-06-3
Molecular weight: 206
Origin: NIST Mass Spectrometry Data Center, 1990.
m/z	RELATIVE INTENSITY
14	89
15	212
27	161
28	142
32	79
38	86
39	491
40	124
41	131
42	79
43	5434
44	161
50	187
51	455
52	289
53	216
55	201
62	121
63	390
64	131
65	608
66	134
77	1287
78	478
79	146
89	151
91	887
92	129
94	2469
95	205
102	75
103	355
104	61
105	103
106	61
107	9999
108	774
119	190
120	391
121	1487
122	158
131	241
145	88
147	162
149	802
150	101
164	4837
165	578
206	383
