Mass Spectrum: Benzenemethanamine, 2-amino-3,5-dibromo-N-cyclohexyl-N-methyl-
Formula: C14 H20 Br2 N2
CAS: 3572-43-8
Molecular weight: 374
Origin: Tox21 Consortium/NIST Mass Spectrometry Data Center, 2012
m/z	RELATIVE INTENSITY
15	40
26	20
27	190
28	200
29	250
30	280
31	10
32	30
37	10
38	30
39	400
40	60
41	1221
42	1932
43	260
44	1341
45	50
49	10
50	130
51	380
52	330
53	320
54	300
55	1682
56	380
57	751
58	170
61	20
62	100
63	210
64	60
65	170
66	90
67	150
68	530
70	9999
71	581
72	40
73	30
74	90
75	320
76	480
77	1061
78	350
79	250
80	300
81	190
82	210
83	350
84	581
85	50
86	120
88	60
89	140
90	250
91	130
92	60
93	30
94	30
95	20
96	70
97	30
98	60
99	10
100	50
101	30
102	330
103	631
104	2172
105	280
106	70
107	20
108	20
109	10
110	70
112	6626
113	1852
114	170
115	70
116	130
117	200
118	150
119	210
120	160
124	20
126	2452
127	250
128	50
129	50
130	100
131	130
132	190
133	130
134	20
140	10
141	40
142	40
143	90
144	70
145	100
146	40
147	10
148	10
152	10
153	20
154	30
155	140
156	260
157	170
158	260
159	70
160	60
161	10
165	180
166	330
167	180
169	80
170	90
171	90
172	40
173	40
174	10
180	10
181	30
182	671
183	981
184	781
185	871
186	190
187	20
188	20
189	10
194	20
195	110
196	90
197	180
198	100
199	80
200	20
207	10
208	30
209	60
210	60
211	100
212	100
213	80
214	70
215	30
216	10
221	20
222	20
223	50
224	60
225	40
226	50
227	20
234	10
235	20
236	20
237	60
238	50
239	60
240	30
241	20
247	10
248	10
249	40
250	20
251	60
252	30
253	30
254	20
255	10
260	20
262	2282
263	260
264	4794
265	440
266	2292
267	210
268	10
273	10
274	30
275	60
276	80
277	130
278	60
279	110
280	20
281	30
286	70
287	30
288	210
289	90
290	260
291	3043
292	410
293	5705
294	581
295	2772
296	280
297	40
298	10
300	20
301	10
302	60
303	1902
304	250
305	3593
306	440
307	1962
308	210
309	20
314	10
315	10
316	10
317	40
318	10
319	60
320	10
321	30
329	20
330	10
331	250
332	50
333	440
334	70
335	210
336	30
342	10
344	20
345	10
346	20
347	10
348	10
358	20
359	40
360	40
361	70
362	30
363	30
371	10
372	10
373	30
374	781
375	170
376	1501
377	250
378	741
379	120
380	10
