Mass Spectrum: 5-(4-Diethylaminobenzylidene)rhodanine
Formula: C14 H16 N2 O S2
CAS: 35778-58-6
Molecular weight: 292
Origin: NIST Mass Spectrometry Data Center, 1994
m/z	RELATIVE INTENSITY
14	3
27	169
28	9
29	321
32	22
39	76
45	75
51	101
59	115
63	166
64	63
69	83
75	93
76	60
77	118
80	94
81	74
87	55
89	688
90	128
91	141
95	106
101	110
103	440
115	68
116	76
117	70
118	147
121	84
128	93
129	68
130	173
132	186
133	480
134	403
135	79
146	148
147	168
148	140
160	641
161	1515
162	747
163	138
173	60
174	92
175	241
176	295
177	100
190	5486
191	784
192	273
203	64
205	3304
206	622
207	231
249	109
260	208
261	212
262	69
277	6837
278	1105
279	755
280	128
292	9999
293	1670
294	1145
295	185
