Mass Spectrum: 3-Methyl-4-nonanone
Formula: C10 H20 O
CAS: 35778-39-3
Molecular weight: 156
Origin: NIST Mass Spectrometry Data Center, 1990.
m/z	RELATIVE INTENSITY
14	15
15	137
18	73
26	226
27	2791
28	1153
29	4759
30	127
31	84
32	69
39	1930
40	497
41	5723
42	1879
43	9999
44	389
45	65
50	60
51	110
52	55
53	438
54	160
55	1884
56	1017
57	9496
58	457
65	62
67	125
68	53
69	326
70	53
71	6824
72	3759
73	179
77	50
79	47
80	106
81	137
83	155
85	2140
86	158
99	7793
100	604
101	97
113	108
128	54
141	60
156	1295
157	171
