Mass Spectrum: Piperidine, 3,5-dimethyl-
Formula: C7 H15 N
CAS: 35794-11-7
Molecular weight: 113
Origin: Japan AIST/NIMC Database- Spectrum MS-NW- 953
m/z	RELATIVE INTENSITY
15	219
26	80
27	1069
28	1309
29	819
30	7359
31	99
32	20
33	10
37	30
38	109
39	1749
40	309
41	2819
42	4029
43	2419
44	9999
45	269
46	30
47	10
50	60
51	119
52	90
53	359
54	249
55	1409
56	2739
57	739
58	399
59	10
62	10
63	40
65	90
66	40
67	319
68	419
69	389
70	3229
71	2969
72	149
77	60
78	20
79	70
80	119
81	109
82	209
83	219
84	799
85	80
91	10
92	20
93	30
94	80
95	60
96	199
97	40
98	4959
99	349
100	10
106	40
107	70
108	30
109	10
110	40
111	50
112	2909
113	3799
114	329
115	10
