Mass Spectrum: Silane, diethyldifluoro-
Formula: C4 H10 F2 Si
CAS: 358-06-5
Molecular weight: 124
Origin: A.Pleshkova, Nesmeyanov Inst.Org.Elem.Cpds, Moscow
m/z	RELATIVE INTENSITY
39	10
40	30
42	10
43	160
44	80
47	260
48	10
49	20
58	70
59	10
66	120
67	3013
68	110
69	130
73	10
75	20
76	80
77	250
78	10
79	10
80	190
81	120
82	10
83	90
85	50
91	180
92	20
93	621
94	310
95	9999
96	1501
97	681
98	10
105	420
106	30
107	10
124	4714
125	430
126	170
