Mass Spectrum: Silane, triethylfluoro-
Formula: C6 H15 F Si
CAS: 358-43-0
Molecular weight: 134
Origin: A.A.Kutin, Moscow, Russia
m/z	RELATIVE INTENSITY
33	57
37	1
39	79
40	60
41	46
42	29
43	54
44	53
47	2380
49	2082
50	76
51	55
53	44
55	58
56	13
57	33
58	20
59	10
61	62
62	250
63	446
64	33
65	13
72	31
73	91
75	664
77	9782
78	533
79	289
85	3
87	119
89	26
90	10
91	21
101	16
105	9999
106	701
107	309
108	10
115	33
116	1
134	1782
135	179
136	58
137	1
