Mass Spectrum: 4-Ethoxycoumarin
Formula: C11 H10 O3
CAS: 35817-27-7
Molecular weight: 190
Origin: NIST Mass Spectrometry Data Center, 2012
m/z	RELATIVE INTENSITY
26	120
27	671
29	751
37	70
38	260
39	751
41	150
43	110
50	490
51	1031
52	180
53	230
54	20
55	60
61	140
62	540
63	1221
64	631
65	1081
66	140
69	1001
70	30
74	160
75	230
76	310
77	1171
78	140
85	40
86	100
87	100
88	130
89	651
90	340
91	130
92	2622
93	901
94	160
98	10
101	230
102	40
104	100
105	971
106	80
107	50
108	10
115	30
116	70
117	40
118	3703
119	370
120	9999
121	3924
122	310
123	30
131	60
133	550
134	1441
135	150
144	20
145	50
146	120
147	160
148	130
149	40
161	60
162	2312
163	200
164	30
173	30
189	110
190	4444
191	530
193	10
