Mass Spectrum: Acetamide, N-(4-methoxyphenyl)-N-methyl-
Formula: C10 H13 N O2
CAS: 35813-38-8
Molecular weight: 179
Origin: Association of Official Racing Chemists
m/z	RELATIVE INTENSITY
50	162
51	325
52	332
53	231
54	67
56	2159
57	114
58	32
61	60
62	149
63	412
64	463
65	611
66	509
67	428
68	54
69	32
73	13
74	77
75	82
76	98
77	531
78	369
79	237
80	88
90	126
91	112
92	473
93	409
94	636
95	111
104	89
105	48
106	127
107	107
108	537
109	95
118	43
120	578
122	9999
123	831
124	73
131	6
133	29
134	163
135	124
136	978
137	2939
138	269
139	31
147	44
148	54
149	46
163	33
179	4384
180	465
181	55
