Mass Spectrum: Phosphonous dichloride, (trichloromethyl)-
Formula: C Cl5 P
CAS: 3582-11-4
Molecular weight: 218
Origin: CBDCOM/ERDEC, Edgewood, MD
m/z	RELATIVE INTENSITY
31	1191
35	1991
37	490
43	990
47	2992
49	890
62	90
63	790
65	60
68	790
70	10
78	2492
80	990
82	1991
84	1291
85	240
86	140
87	60
101	6495
103	3993
105	790
113	790
115	790
117	9999
119	8998
121	3493
123	390
136	140
138	140
140	60
148	790
150	690
152	290
154	20
166	20
183	3593
185	4994
187	2191
189	490
199	20
201	60
203	20
218	390
220	590
222	380
224	120
