Mass Spectrum: Z-8-Tetradecen-1-yl acetate
Formula: C16 H30 O2
CAS: 35835-80-4
Molecular weight: 254
Origin: NIST Mass Spectrometry Data Center, 1998.
m/z	RELATIVE INTENSITY
14	10
15	110
26	30
27	600
28	160
29	1450
30	40
31	70
37	10
38	20
39	1200
40	230
41	5959
42	1220
43	9999
44	290
45	80
50	20
51	90
52	80
53	1020
54	5519
55	9289
56	1680
57	1150
58	90
59	30
60	20
61	1020
62	30
63	20
64	10
65	350
66	810
67	9149
68	5059
69	4920
70	820
71	360
72	40
73	330
74	10
77	320
78	80
79	1130
80	710
81	9549
82	9449
83	2770
84	330
85	120
86	30
87	30
91	180
92	30
93	310
94	300
95	6589
96	7529
97	1640
98	190
99	40
100	20
101	30
102	10
103	10
105	30
106	10
107	100
108	140
109	3330
110	3590
111	600
112	150
113	30
114	20
115	10
116	10
121	60
122	100
123	1490
124	1480
125	210
126	50
127	20
128	30
129	10
135	20
136	60
137	830
138	860
139	110
140	10
141	10
142	40
143	10
149	10
150	10
151	270
152	240
153	50
154	10
155	10
156	10
164	10
165	120
166	360
167	60
168	10
169	10
179	20
181	10
183	10
194	1720
195	260
196	20
211	20
