Mass Spectrum: Benzenamine, N-[(4-methoxyphenyl)methylene]-, N-oxide
Formula: C14 H13 N O2
CAS: 3585-93-1
Molecular weight: 227
m/z	RELATIVE INTENSITY
38	305
39	1433
40	335
41	671
50	976
51	3353
52	640
53	305
54	91
55	274
62	366
63	915
64	2835
65	1250
66	457
67	122
74	244
75	274
76	549
77	4603
78	1250
79	305
80	91
81	274
89	274
90	335
91	9999
92	1433
93	305
94	427
95	91
96	91
102	213
103	274
104	335
105	305
106	91
107	701
108	335
109	152
115	91
119	152
120	61
121	61
124	152
128	152
129	152
133	91
134	305
135	2774
136	518
137	61
139	305
140	61
141	61
150	61
151	91
152	91
153	122
154	244
155	122
156	152
165	213
166	305
167	671
168	396
169	213
180	122
183	396
184	1219
185	244
194	122
195	152
196	274
197	91
198	1494
199	732
210	1250
211	915
212	213
225	91
226	1829
227	3048
228	549
