Mass Spectrum: (6Z)-Nonen-1-ol
Formula: C9 H18 O
CAS: 35854-86-5
Molecular weight: 142
Origin: NIST Mass Spectrometry Data Center, 1994
m/z	RELATIVE INTENSITY
15	254
17	22
18	56
19	134
26	170
27	3192
28	598
29	2949
30	135
31	4002
37	42
38	189
39	3989
40	763
41	9999
42	1714
43	1803
44	655
45	28
50	144
51	377
52	198
53	1516
54	2866
55	4757
56	898
57	1516
58	135
62	23
63	73
65	368
66	500
67	8089
68	4043
69	1731
70	461
71	270
72	74
73	5
77	249
78	49
79	621
80	200
81	2693
82	3067
83	426
84	45
85	74
86	32
91	77
93	207
95	3169
96	1054
97	79
98	55
99	62
109	160
114	31
124	391
125	43
142	18
