Mass Spectrum: 5,7-Octadien-4-one, 2,6-dimethyl-, (Z)-
Formula: C10 H16 O
CAS: 3588-18-9
Molecular weight: 152
Origin: NIST Mass Spectrometry Data Center, 2010
m/z	RELATIVE INTENSITY
26	30
27	520
28	70
29	330
30	10
37	30
38	140
39	2132
40	410
41	3894
42	280
43	540
44	20
49	10
50	160
51	410
52	240
53	420
54	40
55	220
57	240
60	20
61	20
62	60
63	170
64	40
65	1702
66	480
67	6846
68	671
74	10
75	10
76	10
77	260
78	50
79	330
80	50
81	300
82	60
89	10
90	10
91	180
92	30
93	50
94	110
95	9999
96	721
103	20
105	20
107	100
108	120
109	3183
110	420
115	10
117	10
119	20
121	30
122	30
123	20
134	10
135	10
137	841
138	80
151	1451
152	2112
153	240
