Mass Spectrum: 3H-Pyrido(3,4-b)indole, 4,9-dihydro-6-methoxy-1-methyl-
Formula: C13 H14 N2 O
CAS: 3589-73-9
Molecular weight: 214
Origin: NIST Mass Spectrometry Data Center
m/z	RELATIVE INTENSITY
15	60
26	10
27	60
28	110
29	30
30	30
31	10
37	10
38	50
39	230
40	40
41	70
42	150
43	10
49	10
50	190
51	430
52	320
53	160
54	250
55	170
56	180
57	90
58	160
61	50
62	250
63	681
64	220
65	240
66	50
67	20
68	10
70	140
72	110
74	170
75	320
76	260
77	561
78	210
79	40
80	110
81	20
85	711
87	140
88	200
89	480
90	200
91	260
92	100
93	30
98	40
99	180
100	110
101	270
102	390
103	320
104	120
105	30
107	671
110	10
111	20
112	20
113	170
114	320
115	1021
116	450
117	300
118	80
119	30
125	30
126	110
127	330
128	440
129	240
130	410
131	100
132	30
133	10
138	10
139	30
140	370
141	450
142	861
143	811
144	621
145	110
146	20
147	10
151	10
152	50
153	100
154	380
155	380
156	240
157	80
158	901
159	130
160	50
161	10
165	10
166	20
167	50
168	140
169	641
170	1782
171	941
172	410
173	440
174	70
175	10
179	20
180	10
181	70
182	250
183	180
184	230
185	310
186	621
187	190
188	20
196	20
197	260
198	1351
199	1131
200	150
201	20
209	10
210	10
211	40
212	150
213	9999
214	8107
215	1121
216	90
217	10
