Mass Spectrum: 9H-Pyrido(3,4-b)indole, 6-methoxy-1-methyl-
Formula: C13 H12 N2 O
CAS: 3589-72-8
Molecular weight: 212
Origin: A. Brossi, LC, NIDDK, NIH, Bethesda, MD 20892
m/z	RELATIVE INTENSITY
42	169
43	42
44	36
45	17
49	4
50	117
51	165
52	120
53	45
54	29
55	33
56	28
57	65
58	4
60	9
61	32
62	143
63	248
64	83
65	67
66	22
67	26
68	21
69	34
70	15
71	92
72	8
73	17
74	165
75	252
76	143
77	174
78	74
79	27
80	4
81	15
82	10
83	13
84	90
85	64
86	72
87	110
88	127
89	121
90	101
91	108
92	36
93	8
95	10
97	17
98	50
99	76
100	129
101	208
102	107
103	33
104	21
106	485
109	8
110	16
111	26
112	32
113	135
114	181
115	327
116	134
117	73
118	18
119	8
121	6
123	13
124	23
125	31
126	100
127	225
128	189
129	57
130	15
131	12
138	34
139	49
140	341
141	249
142	146
143	60
144	10
149	10
150	6
151	20
152	66
153	141
154	123
155	45
156	25
157	4
158	8
160	4
165	22
166	47
167	207
168	611
169	3963
170	533
171	39
178	4
179	97
180	55
181	190
182	143
183	361
184	118
185	21
193	4
194	8
195	90
196	87
197	1466
198	216
199	22
209	15
210	32
211	513
212	9999
213	1475
214	143
215	8
