Mass Spectrum: Ethane, 1,1,2-trichloro-2-fluoro-
Formula: C2 H2 Cl3 F
CAS: 359-28-4
Molecular weight: 150
Origin: GAZ DE FRANCE, DELORME, PARIS, FRANCE
m/z	RELATIVE INTENSITY
24	66
25	277
26	550
27	15
31	345
32	110
33	20
35	580
36	260
37	200
38	86
43	40
44	720
45	870
46	20
47	530
48	360
49	400
50	118
51	70
57	13
58	11
59	108
60	450
61	270
62	150
63	76
66	40
67	2300
68	40
69	745
70	30
78	140
79	1590
80	670
81	520
82	270
83	9999
84	37
85	6350
86	57
87	1030
94	97
95	1010
96	91
97	660
98	91
99	113
100	1
101	380
103	240
105	41
113	102
114	19
115	148
116	20
117	80
118	8
119	19
148	13
149	75
150	840
151	130
152	800
154	240
156	27
