Mass Spectrum: Ethanamine, 1,1,2,2,2-pentafluoro-N,N-bis(pentafluoroethyl)-
Formula: C6 F15 N
CAS: 359-70-6
Molecular weight: 371
Origin: A.Pleshkova, Nesmeyanov Inst.Org.Elem.Cpds, Moscow
m/z	RELATIVE INTENSITY
69	1351
70	10
100	130
114	460
119	9999
120	100
146	80
164	2012
165	30
196	310
214	1351
215	20
302	711
303	10
