Mass Spectrum: Ethene, trifluoro-
Formula: C2 H F3
CAS: 359-11-5
Molecular weight: 82
m/z	RELATIVE INTENSITY
12	871
13	500
19	190
20	30
24	310
25	210
31	6556
32	2492
33	40
41	60
43	370
44	621
45	30
50	651
51	4954
52	60
62	360
63	9999
64	250
81	80
82	8187
83	180
