Mass Spectrum: Bis(trifluoromethyl)iodophosphine
Formula: C2 F6 I P
CAS: 359-64-8
Molecular weight: 296
Origin: A.Pleshkova, Nesmeyanov Inst.Org.Elem.Cpds, Moscow
m/z	RELATIVE INTENSITY
31	520
32	10
50	390
69	5235
70	60
81	290
100	490
101	10
119	260
127	961
158	911
169	911
170	20
177	3543
208	731
209	10
227	2002
228	20
296	9999
297	220
