Mass Spectrum: CHF2CH2OH
Formula: C2 H4 F2 O
CAS: 359-13-7
Molecular weight: 82
Origin: NIST Mass Spectrometry Data Center
m/z	RELATIVE INTENSITY
12	70
13	140
14	190
15	1071
16	80
17	90
19	90
24	50
25	190
26	410
27	250
28	240
29	2893
30	380
31	9999
32	771
33	1361
40	40
41	100
42	500
43	2692
44	290
45	791
46	130
47	60
50	150
51	1211
58	150
60	150
61	350
62	90
63	430
64	410
65	100
80	30
81	50
82	711
