Mass Spectrum: 4-Methyl-5-nonanone
Formula: C10 H20 O
CAS: 35900-26-6
Molecular weight: 156
Origin: NIST Mass Spectrometry Data Center, 1990.
m/z	RELATIVE INTENSITY
15	189
27	2893
28	1851
29	4360
39	1772
41	5550
42	1275
43	7183
44	323
53	465
55	1882
56	886
57	9999
58	528
67	190
69	289
71	7144
72	5103
73	261
85	9368
86	611
99	1094
114	2838
115	237
127	262
156	229
