Mass Spectrum: 2-Hexene, 1-chloro-
Formula: C6 H11 Cl
CAS: 35911-16-1
Molecular weight: 118
Origin: J. SHAW, NATIONAL INST. OF HEALTH, BETHESDA, MD, USA
m/z	RELATIVE INTENSITY
38	500
39	3900
40	600
41	9999
42	7100
43	2500
49	400
50	500
51	900
52	300
53	4100
54	2600
55	7100
56	3700
57	300
61	100
62	200
63	300
64	100
65	300
66	100
67	3700
68	200
69	3700
70	200
75	500
76	900
77	600
78	300
79	200
81	300
82	1800
83	2800
84	200
88	100
89	900
90	600
91	1300
92	200
93	300
118	1800
119	100
120	600
