Mass Spectrum: Benzene, (2,2-dichloro-1-methylcyclopropyl)-
Formula: C10 H10 Cl2
CAS: 3591-42-2
Molecular weight: 200
Origin: Chuck Anderson, Aldrich Chemical Co.
m/z	RELATIVE INTENSITY
15	13
25	4
26	106
27	451
28	18
29	8
35	18
36	28
37	73
38	225
39	1186
40	82
41	88
43	8
44	6
47	37
48	4
49	86
50	699
51	1765
52	342
53	124
54	5
55	6
56	14
57	98
58	19
60	22
61	187
62	229
63	783
64	741
65	346
66	16
68	14
69	7
72	4
73	75
74	335
75	536
76	324
77	1256
78	755
79	92
80	5
81	41
82	75
83	26
84	36
85	93
86	109
87	360
88	90
89	459
90	57
91	391
92	91
93	37
94	7
96	35
97	39
98	87
99	88
100	30
101	194
102	632
103	1242
104	353
105	114
106	7
107	12
108	3
109	21
110	14
111	15
112	10
113	113
114	163
115	1624
116	220
117	190
118	43
121	11
122	12
123	52
124	11
125	210
126	164
127	1412
128	3276
129	9999
130	1384
131	94
135	2
136	32
137	16
138	14
139	28
141	6
148	5
149	3177
150	448
151	1073
152	145
153	10
159	43
160	3
161	29
162	21
163	210
164	416
165	4971
166	610
167	1581
168	159
169	5
172	3
185	338
186	26
187	206
188	16
189	29
199	32
200	688
201	79
202	423
203	43
204	65
205	4
