Mass Spectrum: 5,5-Dimethyl-1,3-dioxan-2-one
Formula: C6 H10 O3
CAS: 3592-12-9
Molecular weight: 130
Origin: NIST Mass Spectrometry Data Center, 1994
m/z	RELATIVE INTENSITY
12	33
13	28
14	103
15	690
16	48
17	7
26	303
27	2692
28	1457
29	3732
30	714
37	196
38	471
39	3771
40	870
41	9999
42	508
43	1042
44	252
49	50
50	185
51	218
52	71
53	360
54	147
55	1081
56	7816
57	1551
58	459
67	24
69	80
71	1568
72	68
85	256
86	43
130	103
