Mass Spectrum: 2-Chloro-2,4-dimethylpentane
Formula: C7 H15 Cl
CAS: 35951-33-8
Molecular weight: 134
Origin: A.A.Kutin, Moscow, Russia
m/z	RELATIVE INTENSITY
33	12
34	16
35	113
36	55
37	68
38	163
39	1549
40	536
41	3870
42	639
43	4548
44	219
45	51
46	31
47	339
48	120
49	369
50	117
51	224
52	67
53	425
54	365
55	4217
56	1855
57	9999
58	523
59	19
60	11
61	24
62	37
63	284
64	25
65	137
66	31
67	122
68	48
69	396
70	142
71	115
72	15
73	36
74	17
75	121
76	22
77	156
78	28
79	190
80	13
81	71
82	61
83	863
84	61
85	449
86	18
87	74
88	5
89	48
90	818
91	1177
92	310
93	373
94	21
95	8
97	825
98	257
99	5451
100	462
101	20
102	3
103	75
104	11
105	5
106	6
107	50
108	2
109	20
111	17
112	3
117	13
118	19
119	13
120	15
121	7
122	2
128	2
132	8
133	31
134	3
135	10
