Mass Spectrum: 3-(2,6-Dichlorophenoxy)prop-1-yne
Formula: C9 H6 Cl2 O
CAS: 3598-66-1
Molecular weight: 200
Origin: NIST Mass Spectrometry Data Center
m/z	RELATIVE INTENSITY
12	40
13	70
18	90
24	60
25	310
26	450
35	290
36	500
37	3363
38	4394
39	9999
40	300
44	40
47	490
48	160
49	781
50	751
51	571
52	100
53	1031
54	100
55	210
60	510
61	1611
62	2943
63	5415
64	310
65	170
66	60
67	40
71	150
72	1111
73	4634
74	1261
75	2903
76	330
77	110
83	1031
84	400
85	901
86	200
87	210
89	40
91	50
95	60
96	280
97	1271
98	731
99	971
100	360
101	1451
102	2132
103	190
107	1011
109	1161
110	200
111	500
112	230
113	100
114	70
121	20
126	360
128	110
129	60
130	30
133	9038
135	6015
136	1561
137	3793
138	701
139	951
140	80
145	170
146	100
147	130
148	50
161	3333
162	711
163	2202
165	9489
166	1071
167	2993
168	290
169	40
171	4324
172	540
173	2622
174	320
175	520
176	50
200	3974
201	470
202	2552
203	240
204	420
205	40
