Mass Spectrum: Octafluoro-2-butene
Formula: C4 F8
CAS: 360-89-4
Molecular weight: 200
Origin: A.A.Kutin, Moscow, Russia
m/z	RELATIVE INTENSITY
31	661
50	120
62	160
69	4264
74	280
81	240
93	1702
100	1962
112	540
131	9999
132	380
150	1732
181	5325
182	220
200	3663
201	140
