Mass Spectrum: 2,3-Difluorophenylacetic acid
Formula: C8 H6 F2 O2
CAS: 360-03-2
Molecular weight: 172
Origin: NIST Mass Spectrometry Data Center, 1994
m/z	RELATIVE INTENSITY
17	53
18	39
26	28
33	48
37	117
38	176
39	289
44	90
45	507
49	63
50	348
51	629
53	43
56	136
57	616
61	145
62	265
63	427
68	111
69	100
70	63
73	39
74	35
75	795
76	139
77	648
78	151
79	44
80	111
81	440
82	96
83	97
85	75
86	73
87	79
88	94
89	55
93	47
94	59
95	133
96	122
99	184
101	1492
102	94
105	97
107	1046
108	1072
109	322
113	34
115	73
124	564
125	543
127	9999
128	1244
143	39
144	117
152	174
154	59
172	3178
173	293
