Mass Spectrum: Cholestan-3-ol, (3.beta.,5.beta.)-
Formula: C27 H48 O
CAS: 360-68-9
Molecular weight: 388
Origin: NIST Mass Spectrometry Data Center
m/z	RELATIVE INTENSITY
15	70
26	160
27	791
29	1782
30	210
31	210
38	80
39	651
40	180
41	5715
42	831
43	9999
45	350
47	80
50	70
53	1151
54	440
55	9428
56	1301
57	6206
58	480
59	110
65	470
67	5875
68	1541
69	4444
70	661
71	2002
72	130
73	190
75	380
77	1491
78	500
79	5085
80	931
81	7026
82	1641
83	2282
84	330
85	440
86	90
88	130
91	3964
92	881
93	6856
94	2362
95	7347
96	1261
97	1491
98	150
100	60
101	170
102	70
103	270
104	180
105	3633
106	2072
107	6566
108	5435
109	4544
110	1161
111	1251
112	150
113	60
115	310
116	120
117	661
118	320
119	2662
120	1712
121	3984
122	3103
123	2752
124	3533
125	701
126	100
127	80
128	380
129	260
130	100
131	901
132	170
133	2382
134	2332
135	3563
136	1291
137	981
138	470
139	160
141	140
142	180
143	150
144	80
145	1702
146	751
147	3423
148	2252
149	5355
150	951
151	571
152	931
153	180
154	60
157	110
158	90
159	1231
160	1101
161	2923
162	1321
163	1161
164	390
165	1591
166	1541
167	971
168	220
171	70
173	1151
174	561
175	1501
176	711
177	581
178	811
179	360
180	60
182	90
184	90
185	140
186	50
187	841
188	420
189	741
190	721
191	721
192	200
193	170
199	300
201	1451
202	490
203	470
204	200
205	250
206	250
208	190
213	340
214	170
215	8678
216	3153
217	3473
218	771
219	1151
220	270
222	110
229	400
230	771
231	1031
232	450
233	6546
234	3673
235	611
241	80
242	60
243	100
244	50
247	280
248	581
249	200
254	50
255	140
256	100
257	721
258	260
259	70
260	150
261	170
262	671
263	150
264	80
271	70
273	210
274	200
275	120
276	180
277	80
283	70
285	180
286	100
287	90
288	631
289	290
299	60
301	150
302	60
313	60
314	80
315	210
316	741
317	240
318	90
327	80
328	120
329	350
330	140
331	1181
332	230
333	70
334	50
345	70
353	260
354	80
355	2412
356	831
357	170
358	90
368	60
369	120
370	1942
371	631
372	210
373	4454
374	1261
375	110
376	90
378	40
386	420
387	120
388	4014
389	921
