Mass Spectrum: Trisulfide, diethyl
Formula: C4 H10 S3
CAS: 3600-24-6
Molecular weight: 154
Origin: Dennis Rohrbaugh, CBDCOM/ERDEC, Edgewood, MD
m/z	RELATIVE INTENSITY
29	9999
32	849
33	239
35	1659
45	2349
46	789
47	209
57	199
58	859
59	1339
61	4529
62	439
64	1669
66	509
75	209
89	509
91	649
92	449
93	729
94	379
97	439
98	119
122	70
125	159
154	1489
155	149
156	169
