Mass Spectrum: Benzeneacetic acid, .alpha.-hydroxy-.alpha.-phenyl-, 1-methyl-4-piperidinyl ester
Formula: C20 H23 N O3
CAS: 3608-67-1
Molecular weight: 325
Origin: Humboldt-Universitat zu Berlin, Department of Chemistry, Analytical Group
m/z	RELATIVE INTENSITY
12	16
14	16
15	289
16	75
17	473
18	1834
19	8
20	8
26	36
27	452
28	567
29	1156
30	364
31	38
32	52
36	8
37	9
38	24
39	506
40	46
41	507
42	2845
43	1244
44	2242
45	94
50	143
51	867
52	143
53	294
54	201
55	3159
56	389
57	832
58	179
59	110
60	16
62	25
63	85
64	22
65	46
66	17
67	104
68	225
69	201
70	1423
71	279
72	79
73	14
74	36
75	60
76	174
77	4133
78	400
79	52
80	71
81	121
82	664
83	155
84	57
85	25
86	38
87	57
88	63
89	52
90	11
91	42
92	11
93	14
94	152
96	4648
97	1306
98	5942
99	1809
100	129
101	27
102	36
103	19
105	6733
106	579
107	41
109	9
110	8
111	19
112	52
113	39
114	688
115	237
116	19
121	9
123	9
125	13
126	52
127	63
128	64
129	17
137	16
138	13
139	79
140	17
142	199
143	356
144	35
146	16
149	14
150	27
151	82
152	294
153	144
154	36
155	17
162	9
163	86
164	82
165	286
166	80
167	25
168	14
171	19
174	27
175	27
180	11
181	228
182	138
183	9999
184	1463
185	124
186	11
194	25
197	9
225	8
248	11
309	8
325	2581
326	608
327	79
328	9
