Mass Spectrum: Methysergide
Formula: C21 H27 N3 O2
CAS: 361-37-5
Molecular weight: 353
Origin: Patti Price, Georgia Bureau of Investigation, Decatur, Georgia
m/z	RELATIVE INTENSITY
41	300
42	1771
43	920
44	1391
45	710
46	140
51	10
53	170
54	260
55	1271
56	180
58	230
60	100
63	80
67	50
68	60
69	60
72	800
73	150
74	70
75	70
77	10
81	70
82	100
83	100
84	150
85	80
86	60
87	110
88	260
89	140
90	290
91	50
94	30
95	150
97	460
98	150
99	140
100	680
101	130
102	190
103	260
107	10
108	100
109	170
110	710
111	430
112	20
115	230
117	680
118	1721
123	50
124	110
125	140
126	420
127	630
128	110
129	80
130	70
131	120
132	30
133	10
136	30
137	150
138	110
139	300
140	240
141	120
142	70
143	90
144	440
145	110
146	70
151	580
152	790
153	440
154	280
155	160
156	80
157	90
158	70
161	200
163	110
164	220
165	450
166	620
167	450
168	1771
169	350
170	100
176	30
177	90
178	390
179	290
180	570
181	1891
182	1431
183	220
185	70
189	70
190	260
191	700
192	1781
193	1431
194	2592
195	7516
196	1681
197	300
203	100
204	300
205	1241
206	2552
207	1271
208	650
209	700
210	6135
211	1060
212	110
217	100
218	260
219	1040
220	1090
221	5504
222	2141
223	880
224	160
233	170
234	800
235	6345
236	2262
237	3573
238	940
239	310
240	270
241	50
248	60
249	150
250	70
262	110
263	320
264	230
265	140
277	120
278	70
279	290
280	230
281	120
282	120
291	60
292	190
293	100
295	1711
296	350
309	190
310	440
311	110
322	320
323	180
324	90
335	270
336	60
338	110
352	140
353	9999
354	2432
355	380
