Mass Spectrum: 5-Chloro-2'-fluoro-2-diethyaminoethylaminobenzophenone
Formula: C19 H22 Cl F N2 O
CAS: 36105-18-7
Molecular weight: 348
Origin: H.Maurer ET AL.J.Chromatogr. 222,409(1981)
m/z	RELATIVE INTENSITY
44	1672
57	260
58	1471
86	9999
87	2252
109	460
123	490
166	280
348	1251
349	280
350	430
