Mass Spectrum: Camazepam
Formula: C19 H18 Cl N3 O3
CAS: 36104-80-0
Molecular weight: 371
Origin: Patti Price, Georgia Bureau of Investigation, Decatur, Georgia
m/z	RELATIVE INTENSITY
42	250
43	40
44	590
45	80
50	10
51	160
56	90
61	10
62	10
63	60
64	10
65	10
66	10
67	10
69	30
72	9999
73	400
74	60
75	180
76	80
77	430
78	40
81	10
82	70
83	30
84	40
85	10
86	10
87	30
88	30
89	150
90	30
91	10
92	10
94	10
95	110
96	60
98	20
99	30
100	30
101	20
102	100
103	10
104	30
105	60
106	10
107	10
109	30
110	310
111	40
112	30
113	60
114	60
115	110
116	10
117	70
118	10
119	10
120	10
121	10
123	20
124	40
125	70
126	30
127	140
128	40
134	10
138	60
139	30
140	20
141	10
142	10
150	120
151	170
152	150
153	40
154	10
159	10
160	10
162	10
163	100
164	40
165	280
166	80
167	20
175	10
176	20
177	180
178	90
179	60
180	60
181	10
188	10
190	90
191	40
192	90
193	120
194	10
195	10
196	10
198	10
199	20
200	10
201	10
202	10
203	10
204	30
205	120
206	20
212	10
213	10
214	10
215	10
216	10
217	10
218	10
219	40
220	20
221	260
222	50
226	10
227	260
228	80
229	60
230	30
235	10
236	10
237	10
238	20
239	130
240	20
241	60
242	80
243	20
244	20
249	10
253	50
254	50
255	1161
256	1151
257	720
258	410
259	70
268	10
269	80
270	30
271	2282
272	380
273	820
274	90
281	10
282	90
283	350
284	250
285	110
286	70
287	10
299	340
300	30
301	100
302	10
314	140
315	20
316	20
328	150
329	10
330	40
343	10
371	330
372	50
373	130
374	10
