Mass Spectrum: Ethanol, 2-[2-(2-methoxyethoxy)ethoxy]-, acetate
Formula: C9 H18 O5
CAS: 3610-27-3
Molecular weight: 206
Origin: NIST Mass Spectrometry Data Center, 2007
m/z	RELATIVE INTENSITY
14	20
15	410
16	10
18	10
19	20
26	60
27	280
28	661
29	1351
30	130
31	1001
32	20
33	40
39	20
40	10
41	120
42	320
43	7277
44	440
45	2252
46	50
47	10
55	10
56	10
57	180
58	3093
59	6676
60	260
61	90
69	10
70	210
71	100
72	70
73	280
74	40
75	60
76	10
77	10
85	10
86	180
87	9999
88	581
89	1441
90	70
91	10
99	90
100	30
101	200
102	170
103	510
104	30
105	10
114	30
115	60
116	10
117	100
118	30
119	10
130	20
131	80
132	10
133	120
134	10
147	20
161	10
163	10
