Mass Spectrum: Phenylmaleic anhydride
Formula: C10 H6 O3
CAS: 36122-35-7
Molecular weight: 174
Origin: NIST Mass Spectrometry Data Center
m/z	RELATIVE INTENSITY
25	10
26	50
27	70
29	10
37	100
38	170
39	310
40	10
43	10
44	60
45	40
49	140
50	1031
51	1051
52	480
53	80
59	20
60	10
61	160
62	350
63	641
64	50
65	50
73	120
74	771
75	641
76	1121
77	120
78	10
85	30
86	50
87	190
88	20
89	130
90	240
91	10
97	20
98	130
99	30
100	10
101	150
102	9999
103	951
104	60
118	230
119	20
129	60
130	120
131	10
146	90
147	10
174	2542
175	280
176	30
