Mass Spectrum: 1-Ethyl-4-piperidone
Formula: C7 H13 N O
CAS: 3612-18-8
Molecular weight: 127
Origin: Chuck Anderson, Aldrich Chemical Co.
m/z	RELATIVE INTENSITY
14	15
15	179
18	46
26	248
27	1368
28	1874
29	774
30	340
38	17
39	143
40	112
41	468
42	5524
43	340
44	67
51	12
52	37
53	66
54	289
55	474
56	1462
57	1949
58	129
67	29
68	92
69	94
70	393
71	61
82	112
83	31
84	2274
85	160
96	17
97	3
98	36
110	42
112	9999
113	681
114	43
126	581
127	2274
128	190
