Mass Spectrum: 4-Piperidinone, 1-(phenylmethyl)-
Formula: C12 H15 N O
CAS: 3612-20-2
Molecular weight: 189
Origin: NIST Mass Spectrometry Data Center, 1992
m/z	RELATIVE INTENSITY
13	6
14	51
15	234
16	4
17	11
18	39
26	207
27	837
28	1070
29	169
30	142
31	15
36	5
37	31
38	119
39	922
40	147
41	587
42	2108
43	290
44	25
46	33
50	231
51	546
52	160
53	94
54	259
55	515
56	943
57	90
59	54
61	23
62	107
63	425
64	23
65	1870
66	129
67	24
68	44
69	29
70	40
71	82
73	26
74	45
75	57
76	73
77	278
78	108
79	63
80	17
81	22
82	67
83	119
84	269
85	21
86	15
87	18
89	398
91	9999
92	2228
93	136
94	9
96	33
98	2546
99	157
100	13
101	7
102	18
103	90
104	334
105	139
106	68
107	27
112	1937
113	136
114	10
115	21
116	29
117	165
118	528
119	118
120	21
128	9
129	19
130	107
131	110
132	97
133	19
134	3
142	5
143	6
144	22
146	663
147	83
148	5
158	24
159	7
160	5
170	9
171	3
172	23
173	4
174	10
188	1488
189	1814
190	257
191	21
