Mass Spectrum: Octanal, 7-methoxy-3,7-dimethyl-
Formula: C11 H22 O2
CAS: 3613-30-7
Molecular weight: 186
Origin: Japan AIST/NIMC Database- Spectrum MS-IW-6279
m/z	RELATIVE INTENSITY
15	30
27	159
28	50
29	269
31	80
39	169
40	30
41	709
42	179
43	609
44	20
45	149
51	10
53	80
54	20
55	689
56	249
57	149
58	10
59	329
60	10
61	20
65	10
67	139
68	60
69	669
70	70
71	119
72	129
73	9999
74	519
75	60
77	20
79	70
80	10
81	549
82	60
83	90
84	40
85	249
86	20
87	10
91	10
93	119
94	20
95	329
96	30
97	139
98	30
99	40
105	10
107	20
109	70
110	70
111	109
112	30
113	10
121	179
122	10
123	10
136	20
137	80
138	10
139	60
153	40
154	10
155	10
171	239
172	20
