Mass Spectrum: 3-Acetyl-2,5-dichlorothiophene
Formula: C6 H4 Cl2 O S
CAS: 36157-40-1
Molecular weight: 194
Origin: NIST Mass Spectrometry Data Center, 1994
m/z	RELATIVE INTENSITY
12	129
13	261
14	879
15	3414
16	48
17	23
18	54
24	42
25	145
26	108
32	255
33	33
34	22
35	286
36	394
37	1433
38	368
39	124
41	100
42	879
43	7641
44	626
45	864
46	64
47	453
48	187
49	628
50	413
51	326
52	50
53	100
56	274
57	459
58	229
60	230
61	281
62	200
63	103
65	39
66	21
68	321
69	1002
70	101
71	435
72	908
73	613
74	211
75	164
77	76
79	1211
80	463
81	2776
82	352
83	234
84	500
85	115
86	112
87	226
89	250
91	235
92	198
93	279
94	95
95	122
96	49
97	50
103	82
105	59
107	1973
108	127
109	1376
110	56
111	206
115	379
116	1126
117	439
118	490
119	125
120	43
121	51
123	31
129	38
131	94
133	35
151	1800
152	340
153	1228
154	200
155	210
156	38
165	47
177	31
179	9999
180	713
181	6241
182	457
183	1279
184	79
185	54
194	3553
195	297
196	2372
197	184
198	504
199	35
