Mass Spectrum: Piperidinoacetal
Formula: C11 H23 N O2
CAS: 3616-58-8
Molecular weight: 201
Origin: Japan AIST/NIMC Database- Spectrum MS-NW-9649
m/z	RELATIVE INTENSITY
15	50
18	10
19	10
26	20
27	139
28	169
29	259
30	139
31	119
39	70
40	10
41	569
42	509
43	149
44	419
45	229
46	20
47	639
52	10
53	30
54	60
55	549
56	159
57	40
58	70
59	20
60	20
61	70
67	50
68	60
69	339
70	439
71	20
72	30
73	30
75	659
76	20
79	20
80	10
81	20
82	70
83	70
84	379
85	139
86	10
89	20
94	10
96	189
97	50
98	9999
99	739
100	20
103	599
104	30
108	10
110	149
111	40
112	349
113	40
124	20
126	639
127	50
128	40
142	60
143	20
153	10
154	30
155	169
156	1629
157	539
158	50
199	10
200	20
201	30
202	10
