Mass Spectrum: Ethanamine, 2,2-diethoxy-N,N-dimethyl-
Formula: C8 H19 N O2
CAS: 3616-56-6
Molecular weight: 161
Origin: Japan AIST/NIMC Database- Spectrum MS-IW- 67
m/z	RELATIVE INTENSITY
15	159
26	30
27	239
28	189
29	629
30	419
31	129
40	10
41	70
42	669
43	399
44	819
45	429
46	30
47	3889
48	40
49	20
54	10
55	30
56	139
57	199
58	9999
59	509
60	40
61	80
70	149
71	149
72	2959
73	439
74	40
75	3249
76	109
77	10
79	129
81	40
84	20
85	10
86	299
87	40
88	469
89	60
100	20
101	10
102	40
103	4299
104	249
105	20
107	60
109	20
114	20
115	90
116	3139
117	1509
118	99
130	20
132	30
160	10
161	199
162	30
