Mass Spectrum: 2,3-Dihydroxybenzoic acid, 3TMS derivative
Formula: C16 H30 O4 Si3
CAS: 3618-19-7
Molecular weight: 370
Origin: NIST Mass Spectrometry Data Center
m/z	RELATIVE INTENSITY
29	20
31	10
39	10
42	10
43	200
44	170
45	1431
46	90
47	80
51	20
52	10
53	20
55	40
56	10
57	80
58	80
59	190
60	20
61	30
63	30
64	10
65	10
66	10
67	20
69	30
70	30
71	40
73	8748
74	751
75	520
76	30
77	90
78	30
79	50
80	10
81	30
82	10
83	210
84	20
85	40
87	20
88	10
89	60
90	20
91	150
92	30
93	90
94	10
95	60
96	10
97	20
98	20
99	20
101	10
102	10
103	100
104	50
105	340
106	40
107	180
108	20
109	110
110	10
111	20
113	10
115	90
116	20
117	90
118	30
119	180
120	30
121	80
122	30
123	80
124	10
125	10
126	30
127	10
128	10
129	30
130	10
131	210
132	30
133	581
134	90
135	200
136	60
137	1081
138	150
139	60
141	10
143	30
144	10
145	40
147	991
148	170
149	270
150	50
151	130
152	20
153	20
155	10
157	20
159	20
160	10
161	40
162	20
163	150
164	60
165	180
166	50
167	30
169	10
175	20
176	10
177	60
178	30
179	100
180	20
181	60
182	10
183	10
189	20
190	20
191	270
193	2462
194	380
195	350
196	70
197	30
198	10
203	10
205	30
206	10
207	230
208	50
209	90
210	10
211	50
212	10
217	10
219	10
220	10
221	20
222	10
223	340
224	70
225	40
226	10
233	10
235	10
236	10
237	110
238	30
239	20
247	20
249	460
250	110
251	60
252	20
253	40
254	10
261	10
263	20
264	20
265	190
266	50
267	360
268	90
269	40
270	10
279	10
280	10
281	70
282	80
283	30
284	10
295	10
297	10
325	10
339	20
340	10
341	10
353	90
355	9999
356	3193
357	1561
358	340
359	80
360	10
369	10
370	40
371	10
372	10
