Mass Spectrum: Benzoic acid, 4-methyl-, hydrazide
Formula: C8 H10 N2 O
CAS: 3619-22-5
Molecular weight: 150
Origin: MASS SPECTROMETRY CENTER, UNIV. OF UTAH; ALDRICH T03700-1
m/z	RELATIVE INTENSITY
27	312
29	285
30	67
31	539
37	192
38	348
39	1389
40	112
41	431
50	545
51	712
52	220
61	157
62	498
63	1094
64	397
65	2591
66	233
74	148
75	37
77	158
89	905
90	601
91	6889
92	727
116	129
117	303
118	93
119	9999
120	1044
150	1373
151	171
