Mass Spectrum: Estra-1,3,5(10)-trien-17-one, 3-hydroxy-2-methoxy-
Formula: C19 H24 O3
CAS: 362-08-3
Molecular weight: 300
Origin: NIST Mass Spectrometry Data Center
m/z	RELATIVE INTENSITY
15	40
26	10
27	180
28	100
29	250
30	10
31	20
33	10
38	20
39	400
40	100
41	811
42	140
43	240
45	30
50	30
51	220
52	90
53	480
54	90
55	921
56	70
57	140
58	20
59	20
62	20
63	110
64	80
65	340
66	120
67	490
68	90
69	160
70	30
71	40
72	30
73	20
74	10
75	40
76	100
77	731
78	220
79	510
80	70
81	280
82	90
83	120
84	50
85	70
86	20
87	20
88	20
89	150
90	70
91	991
92	170
93	250
94	230
95	170
96	40
97	1271
98	120
99	50
101	110
102	150
103	901
104	170
105	420
106	110
107	460
109	100
110	30
111	60
112	20
113	60
115	1051
116	340
117	350
118	130
119	300
120	130
121	160
122	150
123	310
124	70
125	30
126	40
127	370
128	721
129	611
130	170
131	1071
132	270
133	390
134	60
135	190
136	70
137	1752
138	260
139	100
140	40
141	360
142	140
143	240
144	410
145	751
146	250
147	330
148	80
149	120
150	1061
151	350
152	200
153	230
154	100
155	240
156	90
157	470
158	210
159	440
160	270
161	741
162	170
163	550
164	130
165	190
166	70
167	110
168	90
169	210
170	130
171	310
172	280
173	480
174	410
175	1131
176	2232
177	430
178	100
179	60
180	30
181	140
182	80
183	320
184	110
185	170
186	80
187	841
188	490
189	911
190	651
191	100
192	20
193	20
194	30
195	120
196	60
197	170
198	60
199	120
200	370
201	330
202	1111
203	250
204	50
205	20
206	10
207	30
208	30
209	110
210	60
211	170
212	80
213	170
214	110
215	1782
216	490
217	90
218	20
219	10
221	20
222	20
223	40
224	50
225	140
226	60
227	120
228	90
229	280
230	90
231	20
233	10
235	30
236	10
237	10
238	10
239	80
240	40
241	150
242	80
243	500
244	300
245	40
249	20
250	20
251	50
252	10
253	50
254	20
255	30
256	80
257	160
258	50
259	10
265	10
266	10
267	70
268	20
269	120
270	20
271	60
272	210
273	40
281	20
282	10
283	20
284	10
285	420
286	80
287	10
297	10
298	30
300	9999
301	2082
302	260
303	30
