Mass Spectrum: Propiomazine
Formula: C20 H24 N2 O S
CAS: 362-29-8
Molecular weight: 340
Origin: AAFS Toxicology Section MS DB Committee, U. Alberta, Canada
m/z	RELATIVE INTENSITY
35	30
36	100
37	10
38	40
39	40
40	10
41	70
42	190
43	140
44	290
45	110
50	20
51	50
52	20
53	20
54	10
55	110
56	180
57	230
58	110
59	150
60	20
62	10
63	80
64	20
65	40
66	10
67	20
68	30
69	160
70	260
71	210
72	9999
73	510
74	40
75	50
76	40
77	130
78	50
79	80
80	10
81	50
82	50
83	50
84	60
85	90
86	50
87	60
88	30
89	90
90	10
91	50
92	20
93	30
94	20
95	100
96	40
97	50
98	120
100	20
101	20
102	30
103	50
104	40
105	90
106	240
107	40
108	50
109	60
110	10
111	30
112	20
113	80
115	30
116	10
117	20
118	10
119	20
120	40
121	40
122	20
123	10
124	10
125	20
126	50
127	70
128	40
129	20
131	10
133	30
135	30
136	20
137	50
138	20
139	120
140	50
141	20
145	30
146	20
147	20
148	10
149	20
150	20
151	40
152	70
153	100
154	100
155	20
157	10
158	10
159	20
163	10
164	30
165	20
166	60
167	60
168	20
169	40
170	50
171	90
172	30
173	10
174	10
177	20
178	70
179	130
180	60
181	10
182	10
183	40
184	40
185	10
190	10
191	20
192	10
193	30
194	20
195	10
196	360
197	490
198	630
199	140
200	30
201	10
204	20
205	10
206	20
207	20
209	50
210	150
211	90
212	90
213	10
215	10
217	10
218	10
221	10
222	30
223	40
224	40
225	40
226	220
227	40
228	20
234	10
235	10
236	170
237	40
238	20
239	10
240	20
250	10
252	10
254	430
255	640
256	130
257	60
258	10
268	110
269	360
270	80
271	40
282	10
283	270
284	50
285	20
295	10
296	10
298	10
299	10
300	10
340	270
341	70
342	20
