Mass Spectrum: 4-Ethylbenzoic acid, ethyl ester
Formula: C11 H14 O2
CAS: 36207-13-3
Molecular weight: 178
Origin: Zaikin V.G., TIPS RAS, Moscow, Russia
m/z	RELATIVE INTENSITY
27	90
28	30
29	80
39	80
44	30
50	70
51	160
52	30
53	50
63	110
64	30
65	90
74	30
75	40
76	60
77	711
78	170
79	500
80	30
89	220
90	200
91	210
102	60
103	460
104	190
105	1631
106	190
107	170
118	30
119	30
131	90
132	40
133	9999
134	1051
135	500
136	50
149	370
150	1521
151	160
163	340
164	40
177	80
178	1792
179	220
