Mass Spectrum: Benzothiazole, 2,6-dichloro-
Formula: C7 H3 Cl2 N S
CAS: 3622-23-9
Molecular weight: 203
Origin: NIST Mass Spectrometry Data Center, 1994
m/z	RELATIVE INTENSITY
12	130
13	24
24	51
25	148
26	279
27	49
32	202
33	46
35	624
36	411
37	1756
38	1542
39	407
40	29
44	516
45	1101
47	1092
48	180
49	1021
50	1182
51	630
52	29
53	658
56	172
57	549
58	360
59	38
60	410
61	1433
62	2187
63	3319
64	574
65	36
67	55
68	398
69	3552
70	477
71	1429
72	766
73	1218
74	1081
75	977
76	189
79	911
80	181
81	1368
82	1201
83	246
84	274
85	108
86	265
87	304
88	604
89	62
91	44
92	240
93	494
94	370
95	103
96	94
97	444
98	179
99	287
100	105
101	44
102	516
103	457
104	44
105	427
106	711
107	2559
108	314
109	213
110	87
111	28
112	36
115	58
116	128
117	39
118	95
119	25
120	128
121	25
124	341
125	29
126	128
129	65
131	67
133	1989
134	189
135	116
142	2309
143	228
144	860
145	101
146	49
156	106
158	57
167	159
168	1854
169	259
170	613
171	88
172	34
203	9999
204	1010
205	6624
206	545
207	1314
208	127
209	47
