Mass Spectrum: trans-(2-Ethylcyclopentyl)methanol
Formula: C8 H16 O
CAS: 36258-08-9
Molecular weight: 128
Origin: W.V. BROWN, CSIRO, BLACK MOUNTAIN, CANBERRA CITY, AUSTRALIA
m/z	RELATIVE INTENSITY
39	630
40	274
41	2247
42	521
43	630
44	247
45	82
51	137
52	82
53	521
54	630
55	7808
56	630
57	932
58	110
59	82
65	164
66	493
67	3699
68	3014
69	1342
70	438
71	192
77	192
78	82
79	384
80	438
81	9999
82	2466
83	247
85	110
91	110
93	110
95	2877
96	548
97	4110
98	384
109	192
110	3151
111	247
