Mass Spectrum: 3-Bromopropionaldehyde dimethyl acetal
Formula: C5 H11 Br O2
CAS: 36255-44-4
Molecular weight: 182
Origin: Chuck Anderson, Aldrich Chemical Co.
m/z	RELATIVE INTENSITY
15	110
26	111
27	589
28	291
29	1009
30	58
31	886
32	25
33	27
37	31
38	78
39	696
40	84
41	1721
42	172
43	242
44	67
45	3237
46	78
47	2889
48	55
53	45
55	309
56	215
57	373
58	72
59	226
71	2253
72	147
73	15
75	9999
76	338
77	50
79	22
80	25
81	32
82	24
93	103
94	20
95	142
97	25
101	30
106	22
107	89
109	101
119	26
121	29
123	56
125	52
135	20
137	14
150	289
151	2233
152	420
153	2171
154	102
181	87
183	87
