Mass Spectrum: Bicyclo[3.1.0]hex-3-en-2-one, 5-(1-methylethyl)-
Formula: C9 H12 O
CAS: 36262-12-1
Molecular weight: 136
Origin: NIST Mass Spectrometry Data Center
m/z	RELATIVE INTENSITY
26	50
27	540
31	10
37	70
38	270
39	2282
40	400
41	631
42	60
43	941
44	50
45	100
47	10
49	30
50	400
51	941
52	410
53	651
58	10
60	30
61	110
62	320
63	871
64	250
65	1942
66	1151
72	10
73	20
74	110
75	60
76	50
77	6446
78	1011
79	1772
80	140
85	10
86	20
87	10
89	70
90	30
91	6005
92	671
93	9999
94	3643
98	10
102	20
103	280
104	40
105	310
106	60
107	781
108	1882
115	40
116	10
117	90
118	30
119	60
120	30
121	7597
122	711
123	30
135	80
136	1071
137	150
