Mass Spectrum: Dispiro[2.2.2.2]deca-4,9-diene
Formula: C10 H12
CAS: 36262-33-6
Molecular weight: 132
Origin: JACSAT, 100(6)1806(1978); T. TSUJI ET AL.
m/z	RELATIVE INTENSITY
50	2700
52	4400
63	2400
65	2000
77	5700
78	4100
79	2100
91	7400
103	3000
104	2200
105	2900
115	5300
116	2400
117	9999
131	1500
132	3600
