Mass Spectrum: Benzene, pentafluoro-
Formula: C6 H F5
CAS: 363-72-4
Molecular weight: 168
Origin: Japan AIST/NIMC Database- Spectrum MS-NW-5591
m/z	RELATIVE INTENSITY
12	10
31	949
32	10
36	40
37	99
48	10
49	20
51	60
60	40
61	139
62	20
67	10
68	239
69	289
74	189
75	569
76	20
79	279
80	309
81	30
84	279
86	119
87	80
91	10
92	30
93	669
94	30
98	249
99	3779
100	229
105	30
106	80
110	30
111	10
113	20
117	639
118	689
119	40
124	209
129	10
130	40
137	1339
138	80
148	259
149	679
150	109
167	60
168	9999
169	669
170	20
