Mass Spectrum: Piroxicam
Formula: C15 H13 N3 O4 S
CAS: 36322-90-4
Molecular weight: 331
Origin: R.E.Ardrey ET AL.Pharmaceutical Mass Spectra,L.,1985
m/z	RELATIVE INTENSITY
36	100
37	100
38	300
39	1401
40	400
41	601
42	2602
43	601
44	200
45	200
50	1101
51	2903
52	601
53	200
58	200
62	100
63	300
64	300
65	500
66	300
67	3003
68	100
69	300
70	200
74	200
75	400
76	3803
77	2502
78	5405
79	801
80	200
89	300
90	400
91	500
92	400
93	300
94	3904
95	1001
96	300
97	100
102	400
103	400
104	5105
105	1902
106	200
107	300
108	200
109	100
116	300
117	8007
118	1001
119	100
120	1101
121	3303
122	300
130	200
132	400
133	100
134	200
136	100
145	6105
146	2002
147	3803
148	500
149	100
152	400
153	100
161	300
162	100
168	100
169	200
171	300
172	200
173	9999
174	1401
175	200
182	100
189	100
197	300
198	100
210	200
224	100
237	200
238	200
249	200
250	500
251	100
267	3203
268	601
331	1501
332	300
