Mass Spectrum: Butamifos
Formula: C13 H21 N2 O4 P S
CAS: 36335-67-8
Molecular weight: 332
Origin: NIST Mass Spectrometry Data Center
m/z	RELATIVE INTENSITY
15	30
18	40
26	50
27	510
28	290
29	1712
30	210
31	10
37	10
38	40
39	490
40	90
41	771
42	530
43	380
44	390
45	120
46	140
47	170
48	30
49	20
50	130
51	390
52	420
53	400
54	100
55	410
56	440
57	851
58	120
59	50
60	20
61	30
62	80
63	711
64	931
65	2022
66	490
67	170
68	40
69	50
70	390
71	190
72	2232
73	150
74	90
75	80
76	190
77	1121
78	1051
79	290
80	370
81	130
82	40
83	30
84	40
85	40
86	60
87	40
88	70
89	230
90	350
91	300
92	1201
93	360
94	180
95	310
96	4524
97	280
98	260
99	20
100	90
101	20
102	130
103	40
104	581
105	390
106	390
107	280
108	310
109	200
110	290
111	170
112	90
113	70
114	30
115	20
116	50
117	30
118	150
119	90
120	2813
121	490
122	1141
123	460
124	801
125	80
126	50
127	10
128	10
129	40
130	20
131	10
132	60
133	30
134	140
135	110
136	751
137	771
138	330
139	310
140	110
141	30
142	10
143	10
144	10
145	10
146	80
147	20
148	150
149	30
150	430
151	80
152	3313
153	540
154	210
155	50
156	20
157	10
159	10
161	10
162	20
163	20
164	90
165	20
166	170
167	70
168	430
169	370
170	80
171	20
172	10
173	10
177	10
178	90
179	20
180	330
181	30
182	60
183	120
184	1291
185	2102
186	270
187	120
188	10
190	20
191	10
194	10
195	10
196	160
197	80
198	40
200	6045
201	741
202	4014
203	881
204	250
205	50
206	10
209	10
210	10
211	40
212	80
213	30
214	20
215	50
216	220
217	90
218	40
219	10
224	10
225	10
226	10
227	40
228	1221
229	150
230	100
232	3653
233	330
234	210
235	20
237	10
238	10
239	40
240	10
242	50
243	20
244	140
245	20
246	10
247	30
256	360
257	90
258	2232
259	310
260	1441
261	180
262	80
263	10
268	40
269	10
284	410
286	9999
287	1661
288	621
289	80
290	10
299	200
300	30
302	10
303	90
304	10
305	10
333	10
