Mass Spectrum: Octadecanoic acid, propyl ester
Formula: C21 H42 O2
CAS: 3634-92-2
Molecular weight: 326
Origin: NIST Mass Spectrometry Data Center, 1990.
m/z	RELATIVE INTENSITY
27	1239
29	2166
39	603
41	6153
42	2197
43	9999
44	364
45	189
53	266
54	540
55	4565
56	1104
57	4173
58	430
59	499
60	3322
61	9043
62	200
67	750
68	404
69	2443
70	580
71	2097
73	3633
74	377
79	221
81	712
82	386
83	1682
84	713
85	1060
86	142
87	979
93	199
95	620
96	277
97	1249
98	622
99	321
101	491
102	2860
103	1135
109	333
111	588
113	156
115	2456
116	357
123	199
125	290
129	1186
143	339
157	399
158	182
171	1467
172	207
185	578
199	255
213	249
227	553
241	535
255	182
267	1020
268	222
283	347
284	430
285	1048
286	226
326	968
327	223
