Mass Spectrum: Germane, tetrapentyl-
Formula: C20 H44 Ge
CAS: 3634-47-7
Molecular weight: 358
Origin: J.DE RIDDER UTRECHT UNIVERSITY, UTRECHT, HOLLAND
m/z	RELATIVE INTENSITY
26	122
27	628
28	193
29	759
39	297
41	1135
42	364
43	1250
55	375
56	93
69	1845
70	96
71	96
74	227
75	197
77	171
87	111
89	889
91	431
101	267
103	1243
105	651
115	227
116	174
117	264
119	632
131	189
143	104
144	148
145	550
146	279
147	7722
148	430
189	238
215	137
217	9999
218	1120
219	220
245	107
287	3382
288	760
289	180
