Mass Spectrum: Ethanone, 1-(3,4-dimethylphenyl)-
Formula: C10 H12 O
CAS: 3637-01-2
Molecular weight: 148
Origin: NIST Mass Spectrometry Data Center, 1990.
m/z	RELATIVE INTENSITY
14	60
15	412
16	42
18	19
26	56
27	705
28	70
29	83
37	52
38	197
39	1174
40	148
41	220
42	110
43	1220
44	61
45	49
49	52
50	578
51	1367
52	346
53	445
54	40
55	34
58	27
59	89
61	71
62	295
63	883
64	180
65	537
66	107
73	46
74	233
75	220
76	278
77	2825
78	930
79	2126
80	139
86	54
87	66
88	33
89	297
90	129
91	410
92	34
93	25
98	46
102	336
103	1569
104	644
105	6100
106	492
115	126
116	26
117	68
118	40
119	154
131	96
133	9999
134	953
135	54
148	3192
149	335
