Mass Spectrum: 4-Ethoxy-3-methoxyphenethylamine
Formula: C11 H17 N O2
CAS: 36377-59-0
Molecular weight: 195
Origin: NIST Mass Spectrometry Data Center, 1994
m/z	RELATIVE INTENSITY
4	32
14	47
15	158
18	57
26	130
27	863
28	933
29	957
30	9999
31	195
32	27
38	106
39	809
40	189
41	229
42	132
43	257
44	55
50	219
51	894
52	323
53	308
54	68
55	236
62	77
63	261
64	151
65	708
66	598
67	229
68	46
69	28
74	34
75	53
77	899
78	547
79	383
80	105
81	137
82	24
89	240
90	264
91	378
92	100
93	129
94	978
95	248
96	30
103	34
104	47
105	351
106	362
107	521
108	113
109	211
110	30
117	33
118	41
119	53
120	31
121	108
122	1061
123	1084
124	109
133	22
134	66
135	313
136	22
137	5495
138	3514
139	338
140	26
149	38
150	79
151	73
164	55
165	620
166	4645
167	501
168	38
195	787
196	94
