Mass Spectrum: Cyclooctanemethanol
Formula: C9 H18 O
CAS: 3637-63-6
Molecular weight: 142
Origin: NIST Mass Spectrometry Data Center, 1990.
m/z	RELATIVE INTENSITY
26	71
27	768
28	230
29	854
30	71
31	787
32	43
39	1439
40	403
41	3801
42	683
43	700
44	103
50	69
51	168
52	103
53	729
54	1207
55	4459
56	388
57	796
65	202
66	280
67	2099
68	1017
69	9999
70	656
77	176
78	52
79	358
80	165
81	1487
82	1909
83	350
91	70
93	58
95	856
96	1813
97	159
109	187
111	3102
112	284
124	108
