Mass Spectrum: 2-Ethyl-2-hydroxybutyric acid
Formula: C6 H12 O3
CAS: 3639-21-2
Molecular weight: 132
Origin: Japan AIST/NIMC Database- Spectrum MS-NW-6580
m/z	RELATIVE INTENSITY
12	10
14	50
15	229
16	30
17	40
18	159
25	20
26	369
27	2329
28	1059
29	6189
30	199
31	939
32	20
36	10
37	80
38	149
39	1099
40	279
41	3269
42	399
43	1339
44	589
45	8159
46	189
47	289
49	20
50	99
51	139
52	70
53	879
54	109
55	669
56	419
57	9769
58	419
59	219
60	30
61	30
62	30
63	60
64	10
65	80
66	60
67	499
68	269
69	2479
70	249
71	209
72	30
73	60
74	40
75	319
76	20
77	30
78	50
79	20
80	10
81	419
82	30
83	40
84	10
85	199
86	649
87	9999
88	599
89	189
94	20
95	40
96	419
97	99
98	50
99	689
100	40
101	10
102	129
103	1009
104	129
105	20
112	20
113	30
114	879
115	109
116	10
