Mass Spectrum: Ethanone, 1-(2,4-difluorophenyl)-
Formula: C8 H6 F2 O
CAS: 364-83-0
Molecular weight: 156
Origin: Japan AIST/NIMC Database- Spectrum MS-NW-8617
m/z	RELATIVE INTENSITY
14	10
15	109
27	10
28	10
29	10
31	99
37	40
38	40
39	40
42	109
43	1109
44	30
45	20
49	20
50	179
51	90
53	10
56	40
57	189
60	10
61	109
62	249
63	1259
64	80
68	169
69	109
70	90
71	10
73	30
74	169
75	179
76	20
77	30
79	10
80	40
81	169
82	20
83	10
85	20
86	30
87	80
88	50
92	70
93	189
94	119
95	20
98	10
99	50
100	10
101	99
105	20
107	90
108	20
109	10
111	10
112	159
113	3149
114	359
115	20
119	30
122	10
125	80
126	20
127	159
128	10
138	20
139	20
140	30
141	9999
142	769
143	40
156	1399
157	129
158	10
