Mass Spectrum: (5-Ethylcyclopent-1-enyl)methanol
Formula: C8 H14 O
CAS: 36431-59-1
Molecular weight: 126
Origin: W.V. BROWN, CSIRO, BLACK MOUNTAIN, CANBERRA CITY, AUSTRALIA
m/z	RELATIVE INTENSITY
38	84
39	1684
41	3789
42	274
43	779
44	63
45	63
50	126
51	337
52	189
53	674
54	147
55	2632
56	147
57	526
63	105
65	442
66	337
67	5474
68	400
69	1032
70	1242
71	147
77	1053
78	274
79	7789
80	758
81	337
82	147
83	168
85	84
91	379
92	63
93	695
94	211
95	5895
96	653
97	9999
98	779
99	63
107	84
108	337
109	105
111	63
124	63
126	3158
127	274
