Mass Spectrum: 5-Ethylcyclopent-1-enecarboxaldehyde
Formula: C8 H12 O
CAS: 36431-60-4
Molecular weight: 124
Origin: W.V. BROWN, CSIRO, BLACK MOUNTAIN, CANBERRA CITY, AUSTRALIA
m/z	RELATIVE INTENSITY
38	109
39	1130
40	587
41	1739
42	130
43	174
44	196
50	109
51	304
52	130
53	500
54	152
55	717
56	65
57	217
63	152
65	630
66	674
67	5543
68	565
69	196
70	87
71	65
77	457
78	152
79	587
80	304
81	935
82	391
83	109
85	65
91	478
92	130
93	870
94	304
95	8174
96	1022
97	109
105	65
106	196
107	109
109	3152
110	283
123	435
124	9999
125	783
126	65
