Mass Spectrum: N-Benzyl-2-phenethylamine
Formula: C15 H17 N
CAS: 3647-71-0
Molecular weight: 211
Origin: NIST Mass Spectrometry Data Center
m/z	RELATIVE INTENSITY
27	20
30	10
38	10
39	240
40	10
41	100
42	50
43	10
50	80
51	290
52	80
53	30
62	40
63	230
64	70
65	1301
66	70
74	20
75	20
76	30
77	420
78	140
79	200
80	10
89	270
90	150
91	9999
92	901
93	30
102	20
103	180
104	130
105	350
106	60
116	10
117	80
118	300
119	70
120	7096
121	701
122	30
130	10
132	20
134	20
165	10
209	20
210	20
211	10
