Mass Spectrum: 2-Aminoethylethyl sulfide
Formula: C4 H11 N S
CAS: 36489-03-9
Molecular weight: 105
Origin: NIST Mass Spectrometry Data Center
m/z	RELATIVE INTENSITY
13	10
14	40
15	310
16	20
17	90
18	611
26	340
27	1411
28	1051
30	9999
31	30
32	20
33	30
34	40
35	130
38	10
39	40
40	90
41	340
42	751
43	621
44	390
45	831
46	420
47	911
48	581
49	70
50	20
57	380
58	240
59	220
60	170
61	821
62	30
63	30
73	10
74	70
75	320
76	1531
77	160
78	70
87	10
88	10
89	10
105	951
106	50
107	40
