Mass Spectrum: 1,4-Methano-1H-indene, octahydro-4-methyl-8-methylene-7-(1-methylethyl)-, [1S-(1.alpha.,3a.beta.,4.alpha.,7.alpha.,7a.beta.)]-
Formula: C15 H24
CAS: 3650-28-0
Molecular weight: 204
Origin: D.HENNEBERG, MAX-PLANCK INSTITUTE, MULHEIM, WEST GERMANY
m/z	RELATIVE INTENSITY
22	4
23	8
24	7
25	29
26	91
27	2371
28	2400
29	2326
30	53
33	17
34	17
35	21
36	13
37	80
38	63
39	2212
40	412
41	7093
42	375
43	2379
44	119
47	30
48	20
49	29
50	110
51	643
52	300
53	1853
54	243
55	3695
56	304
57	584
58	85
61	18
62	48
63	234
64	169
65	1355
66	440
67	3441
68	374
69	1987
70	214
71	226
72	52
76	116
77	2835
78	948
79	4394
80	1322
81	3229
82	633
83	501
84	86
85	76
86	37
87	69
88	86
89	243
90	167
91	6352
92	2480
93	6360
94	2602
95	2580
96	382
97	138
98	59
99	41
100	40
101	92
102	117
103	450
104	333
105	5710
106	1865
107	3187
108	9999
109	2655
110	390
111	110
112	55
113	54
114	49
115	500
116	239
117	829
118	291
119	3452
120	1811
121	1476
122	1082
123	447
124	100
125	38
126	30
127	107
128	226
129	201
130	110
131	437
132	226
133	3512
134	1040
135	1064
136	460
137	132
138	18
139	12
141	45
142	30
143	53
144	37
145	260
146	128
147	1373
148	1053
149	346
150	100
151	22
152	8
153	5
154	7
155	14
156	5
157	20
159	120
160	157
161	4628
162	745
163	142
164	12
165	3
171	3
173	20
174	19
175	487
176	197
177	17
183	4
187	54
188	28
189	1239
190	203
191	17
202	35
203	25
204	1656
205	276
206	21
