Mass Spectrum: Benzene, 1,2-dichloro-3-fluoro-
Formula: C6 H3 Cl2 F
CAS: 36556-50-0
Molecular weight: 164
Origin: NIST Mass Spectrometry Data Center, 1994
m/z	RELATIVE INTENSITY
25	61
26	137
31	716
33	56
35	482
36	307
37	1015
38	376
39	168
44	53
45	56
47	263
48	119
49	558
50	1060
51	150
55	151
56	179
57	174
59	33
60	274
61	743
62	611
63	557
64	577
65	215
66	39
67	33
68	1417
69	356
70	62
71	114
72	343
73	784
74	1728
75	483
78	39
79	39
80	60
81	116
82	804
83	537
84	579
85	184
86	178
87	58
90	115
91	174
92	607
93	1947
94	1248
95	153
96	135
97	271
98	51
99	64
102	180
103	233
104	176
105	83
106	51
107	74
108	126
109	1456
110	139
111	485
112	46
115	52
117	47
125	33
127	110
128	784
129	4460
130	536
131	1394
132	129
133	40
138	41
140	39
146	94
148	64
164	9999
165	769
166	6291
167	452
168	972
169	65
