Mass Spectrum: 1,1'-Biphenyl, 2,2',3,4'-tetrachloro-
Formula: C12 H6 Cl4
CAS: 36559-22-5
Molecular weight: 290
Origin: Organic Synthesis Lab, MSU, Moscow.TRC 1345
m/z	RELATIVE INTENSITY
43	33
44	92
46	15
47	47
49	138
50	290
51	123
55	24
56	23
60	76
61	342
62	312
63	147
72	74
73	378
74	797
75	666
76	25
79	88
80	104
81	24
83	28
84	193
85	333
86	289
87	151
88	28
92	810
93	302
96	74
97	290
98	457
99	432
100	74
101	28
106	17
107	49
108	135
109	434
110	1505
111	891
112	176
113	42
114	26
115	27
120	65
121	105
122	239
123	345
124	112
125	35
127	336
128	422
132	72
133	87
134	87
135	105
136	42
137	42
144	25
145	308
146	371
147	344
148	230
149	565
150	1357
151	165
156	26
157	48
159	130
160	78
161	35
162	31
169	38
170	98
171	41
172	93
174	23
182	36
183	111
184	795
185	674
186	269
187	214
194	111
195	16
196	60
206	23
217	25
218	50
219	175
220	5262
221	753
222	3356
223	407
224	509
225	64
254	209
255	2478
256	388
257	2379
258	403
259	849
260	119
261	96
287	14
290	8029
291	988
292	9999
293	1182
294	4583
295	599
296	1153
297	117
298	84
