Mass Spectrum: 3-Hexyne, 2-methyl-
Formula: C7 H12
CAS: 36566-80-0
Molecular weight: 96
Origin: JACSAT, 98(26) 8413(1976); R. WEST, UNIV OF WISCONSIN, USA
m/z	RELATIVE INTENSITY
39	4400
41	6500
53	5300
55	3500
67	6200
79	3700
81	9999
95	2600
96	7900
