Mass Spectrum: Butanal, 2-butenylhydrazone
Formula: C8 H16 N2
CAS: 36566-74-2
Molecular weight: 140
Origin: ATLAS OF MASS SPECTRA OF ORGANIC COMPOUNDS, V. A. KOPTYUG, ED.
m/z	RELATIVE INTENSITY
27	5900
28	4330
29	6680
30	3780
31	340
39	3220
40	530
41	8560
42	2000
43	6560
44	4110
45	210
51	190
53	1000
54	680
55	9999
56	4340
57	4150
58	3560
67	200
68	2660
69	2110
70	2660
71	1560
72	610
80	140
81	170
82	370
83	540
84	410
85	2450
86	3330
87	180
95	180
96	190
97	2780
98	540
99	1110
111	1780
112	660
113	180
125	1560
139	430
140	5680
141	630
