Mass Spectrum: Oxirane, 2-methyl-2-propyl-
Formula: C6 H12 O
CAS: 3657-41-8
Molecular weight: 100
Origin: SHELL RESEARCH LIMITED THORNTON RESEARCH CENTRE
m/z	RELATIVE INTENSITY
26	266
27	1960
28	462
29	2833
30	236
31	308
38	236
39	2566
40	513
41	4640
42	3983
43	3983
44	164
45	277
50	133
51	215
53	687
54	287
55	9999
56	708
57	1242
58	1704
59	431
67	431
68	184
69	677
70	277
71	472
72	1981
73	184
85	5492
86	687
99	266
100	215
