Mass Spectrum: Trichloroacetic acid butyl ester
Formula: C6 H9 Cl3 O2
CAS: 3657-07-6
Molecular weight: 218
Origin: V.G.Zaikin, Petrochem. Synth. Inst., Moscow
m/z	RELATIVE INTENSITY
26	350
27	2112
28	631
29	7096
30	210
31	80
35	250
36	290
37	130
38	250
39	1571
40	250
41	7317
42	490
43	621
44	591
47	821
48	90
49	290
50	90
51	180
53	150
55	1151
56	2022
57	9999
58	490
59	60
62	60
63	120
65	60
67	60
73	90
76	60
78	50
79	50
82	661
83	160
84	550
85	130
86	60
110	390
111	40
112	380
113	40
114	110
117	821
118	90
119	711
120	80
121	190
