Mass Spectrum: Hexane, 1,1-diethoxy-
Formula: C10 H22 O2
CAS: 3658-93-3
Molecular weight: 174
m/z	RELATIVE INTENSITY
15	40
19	120
27	701
29	2072
30	110
31	420
39	180
40	10
41	971
42	180
43	961
44	681
45	540
47	4424
55	2843
56	230
57	1251
58	110
59	520
67	80
71	190
72	370
73	100
75	3763
76	130
83	3653
84	220
85	641
88	70
89	70
99	130
101	270
103	9999
117	80
129	4204
145	30
173	50
