Mass Spectrum: Bis(2-ethylhexyl) hydrogen phosphite
Formula: C16 H35 O3 P
CAS: 3658-48-8
Molecular weight: 306
Origin: NIST Mass Spectrometry Data Center, 1990.
m/z	RELATIVE INTENSITY
15	16
17	7
18	16
27	542
28	171
29	1331
30	40
31	97
32	6
37	4
39	388
41	2820
42	520
43	1935
44	69
45	95
47	47
49	19
50	14
51	18
52	15
53	167
54	208
55	2016
56	930
57	3893
58	191
59	14
63	8
65	190
66	209
67	169
68	152
69	887
70	1611
71	3138
72	206
73	11
77	36
78	51
79	54
80	23
81	118
82	11
83	9999
84	437
85	97
86	7
91	7
93	7
96	1738
97	284
98	33
99	8
100	5
109	31
110	19
111	84
112	624
113	1825
114	173
115	7
121	12
122	5
123	42
124	8
135	9
136	15
137	84
138	15
151	46
152	10
165	58
166	8
179	6
193	8
194	26
195	80
196	9
