Mass Spectrum: Pentane, 1,1-diethoxy-
Formula: C9 H20 O2
CAS: 3658-79-5
Molecular weight: 160
m/z	RELATIVE INTENSITY
27	1722
28	1351
29	4514
30	260
31	2202
41	2662
42	450
43	1661
44	1321
45	1832
46	550
47	6236
55	571
57	7327
58	671
59	571
69	6716
70	450
71	260
72	290
75	4794
85	3383
86	240
87	1762
103	9999
114	961
115	5575
131	50
159	60
