Mass Spectrum: Butane, 1,1-diethoxy-
Formula: C8 H18 O2
CAS: 3658-95-5
Molecular weight: 146
m/z	RELATIVE INTENSITY
15	250
19	540
26	230
27	2462
28	781
29	4504
30	220
31	2012
32	120
39	470
40	120
41	1251
42	200
43	3373
44	1031
45	1391
46	260
47	8388
48	110
53	150
54	80
55	7457
56	380
57	2072
58	110
59	651
60	60
61	80
69	70
71	430
72	490
73	5145
74	240
75	5235
76	210
85	561
89	260
100	540
101	7036
102	480
103	9999
104	520
117	60
145	60
