Mass Spectrum: 1-Methyl-2,4,5-trioxoimidazolidine
Formula: C4 H4 N2 O3
CAS: 3659-97-0
Molecular weight: 128
Origin: R.A. CORRAL, DIV. QUIM. ORG., UNIV. NAC. LA PLATA, ARGEN
m/z	RELATIVE INTENSITY
40	300
41	600
42	1000
43	2900
44	2500
54	200
55	500
56	9300
57	9500
58	1200
70	2200
71	200
72	2600
85	700
100	5100
101	200
128	9999
