Mass Spectrum: Methyl pentafluorobenzoate
Formula: C8 H3 F5 O2
CAS: 36629-42-2
Molecular weight: 226
Origin: V.G. Zaikin, TIPS RAS, Moscow, Russia
m/z	RELATIVE INTENSITY
26	70
28	611
29	1692
30	390
31	2012
32	150
36	60
37	40
38	40
39	40
40	40
43	60
44	150
45	60
48	40
49	40
50	90
51	110
52	150
55	240
59	781
60	90
61	40
62	40
67	60
68	40
69	150
71	80
72	40
74	470
75	80
79	1391
80	90
82	40
86	390
91	40
93	1631
94	70
95	70
97	80
98	1692
99	310
105	80
110	230
111	40
112	40
116	60
117	5475
118	280
124	40
129	150
130	40
136	80
137	80
143	80
148	781
149	120
150	40
155	70
162	40
164	60
166	80
167	4554
168	480
169	40
176	110
177	90
181	60
192	90
193	40
194	70
195	9999
196	831
197	70
198	10
207	250
208	10
225	60
226	2182
227	190
228	10
