Mass Spectrum: 1-Hexadecanol
Formula: C16 H34 O
CAS: 36653-82-4
Molecular weight: 242
Origin: NIST Mass Spectrometry Data Center, 1990.
m/z	RELATIVE INTENSITY
14	77
27	841
28	130
29	2145
30	77
31	2246
39	1094
41	7584
42	1999
43	7107
44	551
45	193
51	63
53	766
54	1487
55	9999
56	4100
57	6535
58	324
65	181
66	240
67	2116
68	3495
69	8226
70	4259
71	2731
72	199
73	196
77	99
79	247
81	1271
82	3948
83	7605
84	2922
85	1557
86	110
94	51
95	531
96	1405
97	5737
98	1613
99	327
109	138
110	585
111	2545
112	910
113	143
123	56
124	289
125	979
126	518
127	76
138	156
139	282
140	275
152	87
153	112
154	159
168	132
196	261
224	120
