Mass Spectrum: Methyl 3,4-diaminobenzoate
Formula: C8 H10 N2 O2
CAS: 36692-49-6
Molecular weight: 166
Origin: NIST Mass Spectrometry Data Center, 1994
m/z	RELATIVE INTENSITY
14	61
15	673
17	31
18	106
26	68
27	291
28	1143
29	392
30	192
31	158
33	34
37	107
38	329
39	451
40	159
41	296
42	177
43	100
44	85
45	42
49	49
50	465
51	992
52	1587
53	2276
55	54
56	69
59	89
61	106
62	233
63	796
64	204
65	336
66	148
67	54
68	742
69	94
74	65
75	94
76	342
77	239
78	816
79	734
80	3414
81	265
82	45
83	109
88	28
90	888
91	121
92	103
93	37
94	74
95	142
103	49
105	604
106	653
107	4798
108	610
109	57
110	257
120	43
121	169
122	48
123	73
133	57
135	9999
136	895
137	110
138	214
149	25
150	32
151	39
166	8350
167	797
168	67
