Mass Spectrum: 4-Bromo-2-fluoroaniline
Formula: C6 H5 Br F N
CAS: 367-24-8
Molecular weight: 189
Origin: Chuck Anderson, Aldrich Chemical Co.
m/z	RELATIVE INTENSITY
26	44
27	50
28	312
31	402
33	110
36	58
37	297
38	382
39	440
40	113
41	269
42	15
44	193
45	110
46	25
48	6
49	102
50	280
51	188
52	414
53	77
55	963
56	280
57	911
58	59
59	122
60	68
61	367
62	496
63	1528
64	269
65	195
66	22
68	139
69	74
70	78
72	72
73	57
74	158
75	88
76	107
77	33
78	56
79	131
80	197
81	926
82	768
83	3704
84	489
85	52
86	37
87	23
88	57
89	207
90	2620
91	231
92	63
93	102
95	1024
96	933
106	40
107	34
108	169
109	512
110	3222
111	295
113	72
117	51
118	6
119	44
135	69
137	70
142	43
143	14
144	40
161	427
162	36
163	400
164	28
169	106
170	14
171	101
188	146
189	9999
190	760
191	9155
192	624
