Mass Spectrum: Butyl trifluoroacetate
Formula: C6 H9 F3 O2
CAS: 367-64-6
Molecular weight: 170
Origin: NIST Mass Spectrometry Data Center, 2010
m/z	RELATIVE INTENSITY
14	10
15	70
26	230
27	1571
28	911
30	90
31	130
33	60
37	50
38	140
39	1541
40	400
41	6966
42	490
44	110
45	90
47	220
50	550
51	170
52	40
53	230
54	200
55	2002
56	9999
57	7176
58	320
59	110
60	10
61	70
65	10
69	8658
70	100
71	30
72	60
73	20
78	320
80	60
83	10
85	10
91	10
93	10
95	80
97	611
99	1702
101	100
109	10
112	50
113	100
115	250
125	50
128	30
129	10
141	861
142	50
153	10
155	70
