Mass Spectrum: 2,4-Difluorophenol
Formula: C6 H4 F2 O
CAS: 367-27-1
Molecular weight: 130
Origin: NIST Mass Spectrometry Data Center
m/z	RELATIVE INTENSITY
12	100
14	130
15	20
16	80
17	30
25	100
26	160
27	90
28	170
29	270
31	1631
32	100
36	120
37	500
38	250
39	130
41	200
42	80
43	80
44	160
45	90
49	280
50	641
51	1241
52	230
53	420
54	110
55	280
56	731
57	1041
58	90
60	140
61	601
62	490
63	1772
64	190
65	200
68	210
69	120
71	70
73	200
74	180
75	1331
76	250
77	70
79	190
80	320
81	1962
82	8338
83	761
92	80
99	320
101	2342
102	350
110	1231
111	120
128	80
130	9999
131	701
