Mass Spectrum: 2,4-Pentanedione, 1,1,1-trifluoro-
Formula: C5 H5 F3 O2
CAS: 367-57-7
Molecular weight: 154
Origin: Japan AIST/NIMC Database- Spectrum MS-IW-5622
m/z	RELATIVE INTENSITY
13	30
14	149
15	559
20	40
25	40
26	169
27	629
28	239
29	649
30	20
31	709
32	10
33	60
36	10
37	129
38	219
39	779
40	99
41	819
42	849
43	8499
44	279
45	399
47	60
49	30
50	159
51	229
52	20
53	189
54	30
55	459
56	80
57	90
58	50
59	40
60	20
61	40
62	10
63	119
64	50
66	30
67	199
68	40
69	8719
70	279
71	99
73	20
74	20
75	139
76	10
77	80
78	40
79	20
82	10
83	119
84	189
85	9999
86	479
87	119
88	10
89	299
90	10
91	379
92	30
93	10
94	10
95	20
97	189
99	10
102	10
103	10
105	10
107	129
108	10
109	10
111	40
117	10
119	1279
120	159
121	20
125	10
139	2329
140	109
141	10
154	3339
155	199
156	10
