Mass Spectrum: 2-Trifluoromethyl-5-methoxybenzimidazole
Formula: C9 H7 F3 N2 O
CAS: 3671-65-6
Molecular weight: 216
Origin: Div. of Experiment Therapeutics WRAIR, WRAMC, Washington DC 20307
m/z	RELATIVE INTENSITY
41	431
42	205
43	233
44	23
45	36
47	598
48	264
49	2574
50	2509
51	5317
52	4591
53	1263
54	280
55	160
56	71
57	153
58	21
60	48
61	614
62	1663
63	2613
64	1266
65	989
66	349
67	153
68	295
69	3093
70	129
74	128
75	533
76	1553
77	2377
78	1050
79	625
80	1148
81	128
82	113
83	33
84	942
86	551
87	236
88	537
89	469
90	636
91	200
92	201
93	72
95	51
96	997
97	105
99	21
100	164
101	198
102	431
103	613
104	265
105	122
106	211
107	68
108	290
113	103
114	100
115	126
116	742
117	96
120	387
121	21
123	652
124	23
126	295
127	166
131	116
133	43
134	73
135	22
138	57
145	21
146	170
147	102
151	83
153	2490
154	683
155	51
165	26
166	352
167	136
172	55
173	2931
174	234
181	601
182	171
185	263
186	255
187	196
196	249
197	1025
198	109
199	25
200	26
201	5252
202	494
215	232
216	9999
217	1077
218	57
