Mass Spectrum: Phenanthrene, 4,5-dimethyl-
Formula: C16 H14
CAS: 3674-69-9
Molecular weight: 206
Origin: SHELL OIL CO., HOUSTON, TEXAS, USA
m/z	RELATIVE INTENSITY
37	29
38	123
39	473
40	40
41	48
42	6
43	13
44	14
48	2
49	8
50	236
51	301
52	62
53	38
54	6
55	15
56	9
57	9
58	2
59	2
60	2
61	39
62	191
63	431
64	60
65	54
66	8
67	41
68	20
69	21
70	15
71	5
72	2
73	23
74	317
75	375
76	483
77	109
78	25
79	7
80	6
81	71
82	117
83	69
84	4
85	43
86	184
87	330
88	611
89	879
90	39
91	20
92	5
93	38
94	313
95	875
96	38
97	10
98	144
99	139
100	487
101	1240
102	616
103	383
104	10
105	5
106	3
107	2
108	2
109	16
110	69
111	85
112	21
113	76
114	27
115	114
116	13
117	3
118	2
119	4
120	5
121	7
122	44
123	31
124	15
125	28
126	99
127	53
128	46
129	9
130	3
131	2
132	3
133	6
134	17
135	20
136	7
137	48
138	31
139	201
140	30
141	21
142	5
143	3
144	1
145	3
146	9
147	5
148	4
149	35
150	193
151	227
152	390
153	87
154	11
155	4
156	2
157	2
158	4
159	2
160	3
161	32
162	57
163	346
164	152
165	588
166	104
167	13
168	2
169	2
170	2
171	1
172	1
173	8
174	82
175	85
176	291
177	121
178	276
179	273
180	43
181	5
182	2
183	1
184	2
185	11
186	35
187	352
188	320
189	4300
190	2324
191	9999
192	1645
193	172
194	16
195	2
196	2
197	4
198	42
199	66
200	335
201	246
202	956
203	546
204	351
205	1050
206	7341
207	1259
208	146
209	14
210	2
