Mass Spectrum: Pentane, 3-ethoxy-
Formula: C7 H16 O
CAS: 36749-13-0
Molecular weight: 116
Origin: R.NAKAO RADIATION CENTER OF OSAKA PREFECTURE, SAKIA, JAPAN
m/z	RELATIVE INTENSITY
27	1700
28	1900
29	2900
31	2700
39	1300
41	2300
42	1700
43	1200
55	3700
59	9999
70	1300
87	5400
116	20
117	8
