Mass Spectrum: Phenanthrene, 2-ethyl-
Formula: C16 H14
CAS: 3674-74-6
Molecular weight: 206
Origin: G.A.M.S., PARIS, FRANCE.
m/z	RELATIVE INTENSITY
26	20
27	50
28	10
29	10
38	10
39	100
41	20
43	20
50	70
51	120
52	20
53	10
55	20
56	10
57	30
61	10
62	90
63	240
64	20
65	20
67	20
69	20
70	30
71	20
74	140
75	340
76	530
77	90
78	10
81	80
82	180
83	200
85	10
86	60
87	220
88	1280
89	1020
90	30
91	20
92	40
93	20
94	270
95	980
96	250
98	60
99	80
100	370
101	850
102	310
103	940
104	10
105	10
109	10
110	30
111	30
112	10
113	30
114	10
115	70
116	10
122	20
123	20
124	20
125	40
126	90
127	60
128	40
137	30
138	20
139	120
140	20
141	10
149	50
150	280
151	440
152	310
153	50
154	10
161	10
162	30
163	220
164	110
165	550
166	90
167	10
174	110
175	140
176	890
177	940
178	590
179	150
180	20
186	20
187	180
188	150
189	2210
190	1020
191	9999
192	1790
193	150
198	10
199	20
200	150
201	130
202	620
203	420
204	410
205	1280
206	7870
207	1360
208	110
209	10
