Mass Spectrum: Butane, 1,2,2-tribromo-
Formula: C4 H7 Br3
CAS: 3675-69-2
Molecular weight: 292
Origin: RADIAN CORP
m/z	RELATIVE INTENSITY
15	200
25	70
26	610
27	1700
28	30
29	550
37	300
38	510
39	1760
40	140
41	390
49	160
50	600
51	720
52	260
53	4300
54	380
55	1030
56	40
79	760
80	350
81	820
82	340
83	20
91	70
92	60
93	380
94	70
95	320
104	130
105	640
106	220
107	2310
108	130
109	1730
117	140
119	380
121	320
123	80
132	40
133	9999
134	620
135	9630
136	530
158	90
160	190
162	70
171	320
173	630
175	300
184	220
185	170
186	440
187	190
188	210
189	60
199	90
201	10
213	2800
214	130
215	5390
216	260
217	2570
218	110
294	40
296	30
