Mass Spectrum: 1H-Isoindole-1,3(2H)-dione, 5-amino-
Formula: C8 H6 N2 O2
CAS: 3676-85-5
Molecular weight: 162
Origin: RADIAN CORP
m/z	RELATIVE INTENSITY
16	10
26	30
27	60
28	290
29	70
30	10
31	10
32	10
36	10
37	170
38	210
39	140
40	140
41	1040
42	70
43	260
44	190
45	380
46	210
49	40
50	130
51	180
52	430
53	220
54	20
55	110
56	40
57	110
58	30
59	70
61	320
62	640
63	1300
64	1150
65	390
66	50
67	140
68	40
69	110
70	90
71	70
72	10
73	140
74	140
75	80
76	70
77	100
78	160
79	140
80	20
81	170
82	40
83	70
84	40
85	40
86	30
87	70
88	100
89	200
90	460
91	5130
92	420
93	40
94	10
95	40
96	30
97	60
98	40
99	20
101	20
103	10
104	20
105	290
106	130
107	70
109	20
110	20
111	30
112	10
113	10
115	40
116	40
117	120
118	1550
119	3350
120	440
121	50
123	20
124	10
125	10
127	10
129	30
133	80
134	30
135	10
143	20
144	30
145	80
146	10
147	20
149	60
157	10
162	9999
163	980
164	90
167	10
