Mass Spectrum: Trifluoromethylbenzene, 3,4-diamine-
Formula: C7 H7 F3 N2
CAS: 368-71-8
Molecular weight: 176
Origin: NIST Mass Spectrometry Data Center, 1994
m/z	RELATIVE INTENSITY
15	1
20	60
26	87
28	582
30	131
37	196
38	447
39	471
40	272
41	530
42	204
43	142
44	4
46	54
47	25
48	44
49	133
50	683
51	1208
52	1756
53	1321
54	446
55	99
56	147
57	306
58	25
61	125
62	312
63	1399
64	284
65	297
66	131
67	79
68	94
69	731
70	177
71	119
72	100
75	653
76	537
77	311
78	901
79	438
80	2539
81	276
82	197
83	239
84	61
85	51
86	24
87	101
88	600
89	159
90	326
91	82
92	35
93	41
94	58
95	53
96	44
97	66
98	800
99	271
100	127
101	973
102	347
103	79
104	35
105	404
106	184
107	906
108	324
109	229
110	190
111	35
112	63
113	182
114	77
115	30
116	81
117	31
119	39
120	138
121	72
122	39
125	213
126	1225
127	201
128	778
129	1293
130	219
131	45
132	248
133	39
135	151
136	119
137	104
138	62
139	136
140	293
141	33
148	2386
149	308
153	21
154	51
155	93
156	21
157	1973
158	255
159	157
160	146
161	17
173	25
175	1399
176	9999
177	818
178	32
