Mass Spectrum: 1,3,5-Triazine, 2,4,6-tris(trifluoromethyl)-
Formula: C6 F9 N3
CAS: 368-66-1
Molecular weight: 285
m/z	RELATIVE INTENSITY
31	2332
38	200
50	3503
52	430
57	300
69	9999
70	200
76	5005
77	100
78	671
102	1331
121	6676
122	100
190	3833
191	100
266	3663
267	200
285	3663
286	220
