Mass Spectrum: m-Trifluoromethylbenzonitrile
Formula: C8 H4 F3 N
CAS: 368-77-4
Molecular weight: 171
Origin: NIST Mass Spectrometry Data Center, 1990.
m/z	RELATIVE INTENSITY
25	28
26	112
27	216
31	303
36	41
37	323
38	307
39	256
45	23
46	17
48	53
49	252
50	1268
51	908
52	205
53	19
56	88
57	235
60	34
61	160
62	209
63	179
64	93
68	103
69	719
70	129
71	27
72	59
73	201
74	596
75	1809
76	850
77	109
79	38
80	75
81	104
82	58
84	29
85	74
86	81
87	99
88	72
92	22
93	147
94	578
95	187
98	52
99	452
100	418
101	194
102	1086
103	84
104	24
105	29
106	42
107	29
112	23
113	17
118	38
119	90
121	5262
122	417
123	79
124	190
125	437
126	99
131	21
132	81
143	184
144	232
145	318
146	31
150	197
152	4305
153	377
154	19
168	32
170	3513
171	9999
172	869
173	31
