Mass Spectrum: 3-Hexen-1-ol, acetate, (Z)-
Formula: C8 H14 O2
CAS: 3681-71-8
Molecular weight: 142
Origin: NIST Mass Spectrometry Data Center
m/z	RELATIVE INTENSITY
14	90
15	661
16	10
17	10
18	20
25	10
26	110
27	1031
28	290
29	661
30	40
31	90
37	30
38	120
39	1651
40	270
41	2122
42	581
43	9999
44	240
45	80
49	10
50	110
51	220
52	120
53	581
54	851
55	751
56	70
57	60
58	20
60	10
61	60
62	30
63	50
64	10
65	280
66	160
67	8468
68	571
69	270
70	60
71	20
72	10
73	390
74	20
77	80
78	20
79	210
80	40
81	691
82	4874
83	400
84	10
86	10
94	10
97	40
98	10
99	10
112	10
