Mass Spectrum: 3-Hexen-1-ol, acetate, (E)-
Formula: C8 H14 O2
CAS: 3681-82-1
Molecular weight: 142
Origin: NIST Mass Spectrometry Data Center
m/z	RELATIVE INTENSITY
14	100
15	661
16	20
17	10
18	20
25	10
26	110
27	1041
28	300
29	671
30	40
31	100
32	10
37	30
38	120
39	1621
40	270
41	2222
42	591
43	9999
44	250
45	80
49	10
50	110
51	230
52	120
53	601
54	841
55	761
56	70
57	70
58	20
59	10
60	10
61	50
62	20
63	60
64	10
65	280
66	160
67	8698
68	591
69	340
70	70
71	20
72	10
73	380
74	30
77	80
78	20
79	230
80	40
81	701
82	5245
83	420
84	20
85	10
86	10
94	10
97	30
98	10
99	10
112	10
