Mass Spectrum: 2,4,6-tri(2-Pyridyl)-s-triazine
Formula: C18 H12 N6
CAS: 3682-35-7
Molecular weight: 312
Origin: NIST Mass Spectrometry Data Center, 1994
m/z	RELATIVE INTENSITY
14	3
26	247
28	175
29	11
38	65
39	154
40	12
50	840
51	1524
52	810
53	349
63	52
64	208
75	129
76	828
77	3275
78	3524
79	890
80	69
104	4901
105	9999
106	735
130	261
156	332
180	73
181	75
182	76
207	986
208	936
209	138
234	109
284	75
285	53
286	76
312	5310
313	1107
314	132
