Mass Spectrum: Cobalt, nonacarbonyl[.mu.3-(methoxyoxoethylidyne)]tri-, triangulo
Formula: C12 H3 Co3 O11
CAS: 36834-85-2
Molecular weight: 500
Origin: G. A. VAGLIO
m/z	RELATIVE INTENSITY
59	1100
71	200
87	300
115	100
118	700
130	1100
131	900
142	200
143	100
158	200
159	400
177	200
178	100
189	1700
190	3000
192	400
217	600
218	800
220	2000
245	600
248	3000
273	300
276	5200
301	400
304	6000
329	200
332	9500
357	100
360	9999
385	100
388	2700
413	100
416	2500
444	3500
472	8800
500	500
