Mass Spectrum: (Z)-4-Methyl-2-hexene
Formula: C7 H14
CAS: 3683-19-0
Molecular weight: 98
Origin: NIST Mass Spectrometry Data Center, 1990.
m/z	RELATIVE INTENSITY
14	273
15	251
27	1340
28	245
29	945
38	279
39	2217
41	6709
42	449
43	323
50	221
51	391
53	867
55	3532
56	1258
67	982
69	9999
70	1370
83	1139
98	2479
