Mass Spectrum: 2-Hexene, 4-methyl-, (E)-
Formula: C7 H14
CAS: 3683-22-5
Molecular weight: 98
Origin: NIST Mass Spectrometry Data Center, 1990.
m/z	RELATIVE INTENSITY
14	144
15	277
26	241
27	1685
28	1205
29	1104
32	279
38	260
39	2569
41	7401
42	476
43	302
50	195
51	366
52	169
53	871
55	3715
56	1163
57	156
63	136
65	258
66	122
67	876
69	9999
70	1381
77	117
79	123
83	1072
98	2267
99	197
