Mass Spectrum: Pentane, 3-methoxy-
Formula: C6 H14 O
CAS: 36839-67-5
Molecular weight: 102
Origin: D.HENNEBERG, MAX-PLANCK INSTITUTE, MULHEIM, WEST GERMANY
m/z	RELATIVE INTENSITY
25	4
26	88
27	799
28	293
29	1005
30	36
31	222
32	8
33	87
37	27
38	28
39	462
40	60
41	3187
42	408
43	1235
44	31
45	3424
46	75
50	11
51	18
53	57
54	10
55	474
56	40
57	146
58	31
59	166
67	8
69	28
70	158
71	211
72	294
73	9999
74	433
75	20
101	22
102	5
