Mass Spectrum: Broxaldine
Formula: C17 H11 Br2 N O2
CAS: 3684-46-6
Molecular weight: 419
Origin: R.E.Ardrey ET AL.Pharmaceutical Mass Spectra,L.,1985
m/z	RELATIVE INTENSITY
27	200
29	300
31	200
39	200
40	300
41	200
42	100
43	200
44	601
50	200
51	500
52	100
53	100
55	100
56	100
57	200
69	200
70	100
74	100
75	100
76	200
77	2302
78	300
101	100
102	100
104	100
105	9999
106	701
127	100
128	400
207	100
288	100
421	200
