Mass Spectrum: Tolycaine
Formula: C15 H22 N2 O3
CAS: 3686-58-6
Molecular weight: 278
Origin: Finnigan MAT: Toxicological Library (LIBR-TX)
m/z	RELATIVE INTENSITY
42	196
56	212
58	616
72	405
77	107
86	9999
87	511
104	92
