Mass Spectrum: N-Butyl-N-propyl-1-butanamine
Formula: C11 H25 N
CAS: 36874-77-8
Molecular weight: 171
Origin: AIR PRODUCTS & CHEMICALS, INC BOX 538, ALLENTOWN, PA 18105, D M PAREES
m/z	RELATIVE INTENSITY
27	550
29	1210
30	1010
39	240
41	1290
42	930
43	770
44	1130
45	90
54	70
55	280
56	250
57	800
58	410
59	390
68	50
70	260
72	640
73	70
82	60
84	400
86	2710
87	210
94	110
95	80
98	340
99	70
100	1160
101	130
102	70
109	70
114	110
115	70
117	90
127	40
128	9999
129	1020
130	40
140	40
142	3260
143	350
170	100
171	740
172	100
