Mass Spectrum: Nicocodine
Formula: C24 H24 N2 O4
CAS: 3688-66-2
Molecular weight: 404
Origin: HOME OFFICE, CENTRAL RES. EST., ALDERMASTON, BERKS., U.K.
m/z	RELATIVE INTENSITY
42	3300
43	600
44	1500
51	1100
58	700
59	1500
70	1200
72	1500
77	500
78	4200
81	1900
94	1000
106	5900
115	800
124	2300
146	800
152	600
162	500
165	500
175	500
178	500
188	1000
189	500
214	800
224	700
225	1000
229	3800
230	700
266	700
267	3400
268	600
280	500
281	900
282	9999
283	1900
288	1100
299	1900
