Mass Spectrum: 2-Fluoro-5-nitroaniline
Formula: C6 H5 F N2 O2
CAS: 369-36-8
Molecular weight: 156
Origin: NIST Mass Spectrometry Data Center, 1994
m/z	RELATIVE INTENSITY
26	52
27	96
28	529
29	52
30	752
31	399
32	41
33	178
37	276
38	450
39	771
40	152
41	194
42	50
44	74
45	55
46	348
48	38
49	108
50	330
51	703
52	859
53	123
54	91
55	70
56	357
57	2253
58	185
59	261
60	95
61	403
62	695
63	2481
64	433
65	304
66	73
67	37
68	112
69	101
70	374
71	319
72	167
73	47
74	119
75	87
76	185
77	69
78	218
79	117
80	218
81	926
82	1281
83	6675
84	883
85	53
86	36
87	35
88	88
89	35
90	4687
91	403
92	62
93	48
94	41
96	84
98	2411
99	162
106	154
107	38
108	217
109	872
110	5571
111	411
123	43
126	1281
127	122
128	75
138	39
139	51
140	172
156	9999
157	723
158	25
