Mass Spectrum: 3',4'-Difluoroacetophenone
Formula: C8 H6 F2 O
CAS: 369-33-5
Molecular weight: 156
Origin: NIST Mass Spectrometry Data Center
m/z	RELATIVE INTENSITY
15	130
26	10
27	10
29	10
31	130
37	80
38	70
39	70
41	10
42	140
43	1551
44	40
45	20
49	40
50	280
51	140
53	20
55	10
56	80
57	230
60	10
61	190
62	400
63	1822
64	100
68	250
69	140
70	110
73	60
74	290
75	300
76	30
77	50
79	20
80	60
81	220
82	20
83	10
85	30
86	50
87	130
88	70
92	120
93	340
94	190
95	30
98	10
99	80
100	20
101	170
102	10
104	10
105	40
106	10
107	90
109	20
110	10
111	20
112	240
113	6246
114	581
115	20
119	20
122	30
123	10
125	130
126	20
127	230
128	10
138	20
139	10
141	9999
142	781
143	40
156	2863
157	240
158	10
