Mass Spectrum: 3,4-Difluoronitrobenzene
Formula: C6 H3 F2 N O2
CAS: 369-34-6
Molecular weight: 159
Origin: NIST Mass Spectrometry Data Center, 1994
m/z	RELATIVE INTENSITY
16	97
25	34
26	80
28	2
30	4145
31	1103
32	10
36	80
37	585
38	329
39	261
40	30
44	92
45	85
46	303
48	36
49	190
50	1087
51	826
52	48
55	102
56	459
57	702
58	30
60	88
61	882
62	1889
63	9999
64	643
68	1040
69	557
70	56
73	251
74	977
75	1255
76	128
77	46
79	96
80	180
81	596
82	119
86	83
87	385
88	46
91	61
92	353
93	1113
94	366
95	36
99	131
100	230
101	2672
102	152
106	26
107	29
110	38
113	8544
114	550
127	30
129	2372
130	135
143	283
159	6481
160	417
161	46
