Mass Spectrum: cis,cis-2,7-Nonadiene
Formula: C9 H16
CAS: 36901-84-5
Molecular weight: 124
Origin: NIST Mass Spectrometry Data Center, 1990.
m/z	RELATIVE INTENSITY
26	206
27	1696
28	644
29	1517
38	344
39	3749
40	842
41	7187
42	531
43	170
50	269
51	625
52	337
53	2079
54	937
55	3160
56	238
63	162
65	526
67	7265
68	9999
69	2699
70	195
77	356
78	102
79	625
81	1406
82	1244
83	116
91	149
93	183
95	2968
96	468
109	225
124	272
