Mass Spectrum: Pyridine, 4-ethyl-2,6-dimethyl-
Formula: C9 H13 N
CAS: 36917-36-9
Molecular weight: 135
m/z	RELATIVE INTENSITY
26	360
27	1782
28	520
29	430
31	180
37	130
38	490
39	2082
40	270
41	901
42	1651
50	480
51	1091
52	661
53	921
54	210
55	110
61	70
62	230
63	681
64	300
65	1011
66	350
67	180
77	1832
78	510
79	1601
80	310
91	841
92	250
93	671
94	340
104	140
105	210
106	460
107	561
108	160
117	120
118	220
119	190
120	3693
121	1041
133	300
134	1491
135	9999
136	941
