Mass Spectrum: 2-Azabicyclo[2.2.2]oct-5-ene-2-carboxylic acid, ethyl ester
Formula: C10 H15 N O2
CAS: 3693-69-4
Molecular weight: 181
Origin: R.L.FOLTZ BATTELLE COLUMBUS LAB., COLUMBUS, OHIO, USA
m/z	RELATIVE INTENSITY
43	373
44	167
45	63
47	79
50	886
51	268
52	275
53	1247
54	310
55	323
56	251
57	127
59	54
62	572
65	553
67	527
68	326
69	283
74	164
77	799
78	387
79	2073
80	9999
81	1830
82	362
85	918
90	87
91	223
93	3171
94	173
96	325
101	65
102	81
103	108
106	135
108	1705
109	96
124	6333
125	540
136	870
140	750
141	293
142	154
152	4720
153	9461
154	598
169	173
180	94
181	2682
182	805
183	87
