Mass Spectrum: 4-Methoxybenzyl isothiocyanate
Formula: C9 H9 N O S
CAS: 3694-57-3
Molecular weight: 179
Origin: NIST Mass Spectrometry Data Center, 1994
m/z	RELATIVE INTENSITY
14	56
15	432
16	15
26	109
27	158
28	146
29	89
30	19
31	25
32	126
37	78
38	211
39	552
40	73
41	140
43	19
44	69
45	127
46	16
50	597
51	1142
52	716
53	245
54	37
55	116
57	14
58	166
59	63
60	35
61	83
62	225
63	570
64	264
65	410
66	59
67	37
68	16
69	69
70	57
71	53
72	129
73	28
74	128
75	120
76	207
77	1911
78	1576
79	169
80	26
81	21
82	30
83	26
84	24
85	17
86	40
87	30
89	420
90	226
91	878
92	125
93	49
96	20
102	32
103	69
104	225
105	74
106	182
107	95
108	85
109	71
110	14
116	37
117	26
118	23
119	52
120	14
121	9999
122	843
123	63
132	59
134	28
135	66
136	36
137	12
146	86
147	74
148	18
151	45
163	21
164	39
179	678
180	97
181	32
