Mass Spectrum: 2-Isopropylimidazole
Formula: C6 H10 N2
CAS: 36947-68-9
Molecular weight: 110
Origin: NIST Mass Spectrometry Data Center
m/z	RELATIVE INTENSITY
12	10
13	30
14	120
15	561
16	10
18	10
25	20
26	230
27	991
28	1211
29	280
30	30
36	10
37	180
38	430
39	1501
40	961
41	1812
42	2132
43	240
44	10
46	40
47	140
49	20
50	110
51	180
52	310
53	240
54	811
55	290
56	20
63	10
64	50
65	60
66	170
67	290
68	921
69	1011
70	50
75	10
78	20
79	10
80	50
81	170
82	210
83	30
93	390
95	9999
96	601
97	10
106	10
107	70
109	1221
110	2012
111	130
