Mass Spectrum: Benzene, 1-chloro-4-(isothiocyanatomethyl)-
Formula: C8 H6 Cl N S
CAS: 3694-45-9
Molecular weight: 183
Origin: NIST Mass Spectrometry Data Center, 1994
m/z	RELATIVE INTENSITY
14	12
26	74
27	150
28	178
32	243
35	42
36	53
37	230
38	364
39	992
40	120
41	37
43	68
44	289
45	316
46	38
47	59
48	31
49	203
50	823
51	633
52	85
58	288
59	69
60	162
61	346
62	694
63	1637
64	342
65	171
69	53
70	153
71	140
72	291
73	671
74	614
75	614
76	161
77	185
78	24
82	16
84	62
85	168
86	199
87	207
88	16
89	2660
90	713
91	89
93	44
94	17
96	37
97	60
99	719
100	52
101	234
102	77
103	54
104	30
111	68
112	25
114	38
116	246
117	29
119	73
120	80
121	72
122	17
123	99
124	17
125	9999
126	812
127	3128
128	250
138	19
148	45
151	47
155	123
157	48
183	1104
184	123
185	407
186	58
187	24
