Mass Spectrum: p-Methylbenzyl isothiocyanate
Formula: C9 H9 N S
CAS: 3694-46-0
Molecular weight: 163
Origin: NIST Mass Spectrometry Data Center, 1994
m/z	RELATIVE INTENSITY
4	14
14	24
15	79
18	16
26	87
27	632
28	146
29	27
32	140
37	78
38	181
39	937
40	105
41	102
44	97
45	178
46	17
47	11
50	555
51	1038
52	315
53	304
54	37
55	14
58	185
59	88
60	28
61	89
62	241
63	604
64	172
65	431
66	56
67	68
69	28
70	62
71	56
72	134
73	33
74	149
75	158
76	206
77	1870
78	691
79	1709
80	465
83	13
84	23
85	27
86	47
87	44
89	267
90	101
91	300
92	28
101	34
102	184
103	1123
104	28
105	9999
106	845
107	44
108	16
116	190
117	52
118	30
121	82
122	13
128	20
129	10
130	46
131	90
132	13
134	36
135	67
148	72
161	13
163	859
164	93
165	46
