Mass Spectrum: .alpha.-(p-Chlorophenyl)cinnamonitrile
Formula: C15 H10 Cl N
CAS: 3695-93-0
Molecular weight: 239
Origin: NIST Mass Spectrometry Data Center, 1994
m/z	RELATIVE INTENSITY
16	27
17	15
18	80
26	96
27	281
28	181
32	14
35	45
36	45
37	144
38	386
39	1198
40	89
47	28
49	117
50	1493
51	1989
52	419
53	53
60	34
61	264
62	640
63	1166
64	216
65	116
67	32
68	38
72	44
73	252
74	863
75	1941
76	817
77	884
78	154
80	26
81	30
82	21
84	73
85	179
86	367
87	951
88	2844
90	45
91	37
92	28
93	118
94	44
97	85
98	274
99	471
100	480
101	996
102	856
106	275
107	93
108	22
109	42
110	100
111	235
112	249
113	235
114	231
115	56
120	72
121	30
122	83
123	149
124	112
125	244
126	359
127	256
128	72
134	33
135	47
136	246
137	178
138	179
139	168
140	102
147	51
148	48
149	244
150	580
151	751
152	435
153	110
160	39
161	54
162	76
163	156
164	228
165	46
173	63
174	327
175	764
176	1900
177	2587
178	582
179	55
186	28
187	38
188	92
189	84
190	78
199	122
200	96
201	770
202	1114
203	4248
204	9999
205	1465
206	122
211	37
212	130
213	32
214	45
224	249
225	36
226	74
237	132
239	4864
240	949
241	1646
242	275
