Mass Spectrum: 1,1-Dicyanoethane
Formula: C4 H4 N2
CAS: 3696-36-4
Molecular weight: 80
m/z	RELATIVE INTENSITY
12	110
13	130
15	2522
16	40
24	120
25	310
26	1862
27	1061
28	2172
29	70
30	10
31	30
32	10
35	110
36	440
37	300
38	430
39	120
40	70
41	90
42	30
43	140
44	10
45	10
48	20
49	10
50	390
51	1992
52	3513
53	9999
54	591
55	20
56	20
57	10
63	20
64	20
65	130
66	20
76	130
77	300
78	420
79	3323
80	430
81	40
