Mass Spectrum: 1-Hydroxy-3-methyl-2-butanone
Formula: C5 H10 O2
CAS: 36960-22-2
Molecular weight: 102
Origin: M. PECHAL, SHOE & LEATHER RES. INST., GOTTWALDOV, CZ
m/z	RELATIVE INTENSITY
15	280
17	300
18	1560
26	210
27	1790
28	1860
29	700
30	150
31	1620
32	170
38	130
39	880
40	240
41	2850
42	440
43	9999
44	390
45	1010
51	120
53	190
55	300
57	530
58	220
59	170
66	140
67	190
69	420
70	600
71	5160
72	250
84	330
87	140
102	120
