Mass Spectrum: Kynurenic Acid, 2TMS derivative
Formula: C16 H23 N O3 Si2
CAS: 36972-84-6
Molecular weight: 333
Origin: NIST Mass Spectrometry Data Center
m/z	RELATIVE INTENSITY
15	10
27	10
29	40
31	10
39	30
42	20
43	330
44	170
45	1311
46	90
47	120
50	40
51	40
52	20
53	50
54	20
55	70
56	20
57	90
58	140
59	250
60	40
61	60
62	30
63	80
64	30
65	30
66	20
67	30
68	10
69	30
70	50
71	50
73	7136
74	681
75	771
76	150
77	120
78	20
79	20
80	10
81	20
82	10
83	60
84	80
85	40
86	70
87	50
88	150
89	240
90	40
91	100
92	40
93	40
94	30
95	20
96	10
97	20
98	20
99	90
100	160
101	170
102	80
103	120
104	50
105	140
106	30
107	40
108	30
109	70
112	10
113	70
114	200
115	631
116	190
117	110
118	40
119	100
120	30
121	961
126	30
127	230
128	150
129	110
130	200
131	220
132	80
133	210
134	40
135	40
136	70
139	10
140	230
141	100
142	180
143	651
145	210
146	90
147	400
148	70
149	50
151	641
154	50
155	20
156	160
157	70
158	340
159	130
160	100
161	30
162	20
163	10
167	10
168	20
169	30
170	200
171	50
172	140
173	80
174	40
175	10
176	10
179	10
180	10
182	20
183	20
184	160
185	80
186	520
187	100
188	80
189	20
190	10
193	10
194	10
196	10
198	50
199	40
200	400
201	110
202	400
203	70
204	40
205	10
212	20
213	30
214	651
215	210
216	971
217	440
218	180
219	40
220	10
228	40
229	70
230	190
231	7677
232	1571
233	420
234	60
235	10
242	40
243	40
244	170
245	330
246	260
247	50
248	20
256	20
257	10
258	110
259	30
260	60
261	10
262	10
270	10
271	10
272	110
273	40
274	410
275	100
276	40
277	10
284	10
285	10
286	80
287	60
288	2172
289	1351
290	1251
291	330
292	110
293	20
300	10
302	260
303	90
304	4024
305	1191
306	460
307	90
308	20
314	10
315	10
316	160
318	9999
319	2793
320	1081
321	200
322	30
330	10
332	530
333	1071
334	330
335	120
336	20
