Mass Spectrum: Benz[a]anthracene, 7-ethyl-
Formula: C20 H16
CAS: 3697-30-1
Molecular weight: 256
m/z	RELATIVE INTENSITY
36	10
37	20
38	80
39	430
40	60
41	230
42	50
43	140
44	30
45	80
48	10
49	10
50	180
51	210
52	50
53	30
54	10
55	70
56	70
57	180
58	20
59	20
60	10
61	30
62	110
63	250
64	40
65	40
66	10
67	20
68	10
69	30
70	20
71	50
72	10
73	20
74	140
75	160
76	90
77	70
78	30
79	20
80	10
81	20
82	20
83	30
84	20
85	40
86	120
87	200
88	160
89	100
90	60
91	40
92	10
93	20
94	60
95	50
96	10
97	20
98	100
99	120
100	310
101	310
102	40
103	20
104	10
105	30
106	100
107	120
108	140
109	20
110	50
111	100
112	370
113	911
114	1001
115	90
116	30
117	140
118	110
119	360
120	701
121	240
122	50
123	40
124	120
125	460
126	691
127	230
128	921
129	30
130	20
131	10
132	10
133	10
134	20
135	20
136	10
137	30
138	20
139	60
140	10
141	10
142	10
144	10
145	10
146	10
147	10
148	10
149	30
150	90
151	60
152	50
153	10
154	10
157	10
158	10
159	10
160	10
161	30
162	30
163	100
164	30
165	50
166	10
167	10
168	10
169	10
170	10
173	10
174	70
175	50
176	80
177	20
178	30
179	10
180	10
185	20
186	30
187	120
188	50
189	170
190	20
191	10
194	10
196	10
197	10
198	30
199	20
200	120
201	50
202	150
203	50
204	10
205	10
209	10
210	10
211	90
212	40
213	260
214	70
215	520
216	120
217	40
218	10
219	20
220	10
221	10
222	40
223	40
224	260
225	130
226	701
227	180
228	350
229	130
230	30
231	20
232	20
234	10
235	30
236	30
237	330
238	130
239	2632
240	821
241	9999
242	2162
243	240
249	40
250	340
251	110
252	861
253	921
254	881
255	350
256	7647
257	1611
258	210
259	30
