Mass Spectrum: n-Dodecylmethyl sulfide
Formula: C13 H28 S
CAS: 3698-89-3
Molecular weight: 216
Origin: NIST Mass Spectrometry Data Center, 1994
m/z	RELATIVE INTENSITY
14	56
15	155
27	2437
28	591
29	4002
30	119
32	4
39	1863
41	9999
42	1967
43	6732
44	267
45	762
46	429
47	1253
48	2594
49	1397
50	150
51	144
52	90
53	740
54	1134
55	8115
56	4447
57	4219
58	236
59	297
60	90
61	8357
62	1103
63	490
64	68
65	129
66	68
67	1405
68	1833
69	6360
70	4316
71	1703
72	92
73	148
74	197
75	1371
76	420
77	145
79	208
81	582
82	1635
83	4776
84	2371
85	997
86	65
87	309
88	54
89	364
90	60
95	173
96	662
97	3258
98	1134
99	153
101	85
103	2099
104	157
105	122
110	277
111	1524
112	702
113	82
117	355
124	118
125	521
126	255
131	95
139	120
140	367
145	66
159	59
168	261
187	145
201	8101
202	1220
203	502
204	65
215	834
216	3985
217	671
218	191
