Mass Spectrum: Methyl n-octyl sulfide
Formula: C9 H20 S
CAS: 3698-95-1
Molecular weight: 160
Origin: Japan AIST/NIMC Database- Spectrum MS-NW-4894
m/z	RELATIVE INTENSITY
14	20
15	169
26	139
27	2649
28	349
29	3429
30	80
31	40
32	80
33	10
34	30
35	519
36	10
37	30
38	60
39	1549
40	269
41	7279
42	4199
43	7999
44	269
45	689
46	529
47	1229
48	3829
49	1649
50	219
51	149
52	50
53	469
54	549
55	7629
56	8499
57	5409
58	259
59	269
60	259
61	9999
62	1519
63	549
64	80
65	60
66	40
67	579
68	1499
69	7009
70	7119
71	2879
72	159
73	119
74	159
75	1609
76	519
77	119
78	30
79	60
80	20
81	179
82	939
83	4209
84	4299
85	769
86	40
87	219
88	40
89	519
90	80
91	80
92	10
93	20
94	90
95	60
96	30
97	549
98	119
99	90
100	10
101	70
102	10
103	1279
104	99
105	90
106	10
107	20
108	10
109	30
110	60
111	189
112	1489
113	229
114	10
115	20
117	239
118	30
119	40
120	10
121	10
123	10
125	10
126	40
127	50
128	10
129	20
131	249
132	30
133	20
139	10
140	20
141	40
142	10
143	40
144	70
145	5639
146	659
147	339
148	30
159	619
160	6279
161	719
162	339
163	30
