Mass Spectrum: 1-(2-Hydroxyethyl)-2-imidazolidinone
Formula: C5 H10 N2 O2
CAS: 3699-54-5
Molecular weight: 130
Origin: NIST Mass Spectrometry Data Center
m/z	RELATIVE INTENSITY
14	10
15	280
16	10
18	30
19	30
26	100
27	510
28	1171
29	851
30	1111
31	430
38	10
39	40
40	160
41	530
42	1812
43	561
44	530
45	210
52	30
53	10
54	220
55	230
56	3853
57	250
58	150
59	50
60	10
68	30
69	80
70	1401
71	210
72	80
73	20
74	20
81	10
83	40
84	30
85	370
86	260
87	80
97	10
99	9999
100	3073
101	170
111	20
112	120
113	10
129	10
130	490
131	40
