Mass Spectrum: Triethyl 3-phosphonopropanoate
Formula: C9 H19 O5 P
CAS: 3699-67-0
Molecular weight: 238
Origin: Japan AIST/NIMC Database- Spectrum MS-NW-3764
m/z	RELATIVE INTENSITY
14	30
15	189
16	10
17	20
18	70
25	10
26	269
27	1769
28	1249
29	3459
30	99
31	289
32	149
39	30
40	10
41	90
42	60
43	399
44	119
45	799
46	30
47	389
48	40
49	20
53	20
54	40
55	2949
56	579
57	209
58	10
59	80
60	10
61	10
62	20
63	20
64	20
65	1289
66	30
67	10
69	10
70	10
71	50
72	10
73	749
74	609
75	179
76	20
77	40
78	30
79	30
80	10
81	1939
82	1299
83	609
84	40
85	10
88	10
89	10
91	699
92	399
93	459
94	199
95	30
96	60
97	30
99	549
101	219
102	709
103	50
104	10
105	10
106	10
107	40
108	80
109	3209
110	1059
111	2299
112	60
113	20
114	20
115	10
116	10
117	10
118	10
119	119
120	369
121	289
122	289
123	40
124	10
125	30
126	10
127	259
128	10
129	40
135	80
136	569
137	9999
138	4649
139	729
140	60
141	20
142	10
143	30
148	189
149	70
150	20
151	10
153	90
154	10
155	199
156	10
160	10
163	109
164	369
165	9419
166	2449
167	239
168	30
181	60
182	10
183	149
184	10
191	30
192	759
193	4159
194	449
195	50
209	249
210	60
211	769
212	70
213	10
237	549
238	70
