Mass Spectrum: Phenol, 4-[2-(methylamino)ethyl]-
Formula: C9 H13 N O
CAS: 370-98-9
Molecular weight: 151
Origin: K.L.STUART UNIV. OF THE WEST INDIES, KINGSTON, JAMAICA
m/z	RELATIVE INTENSITY
15	10
28	20
44	9999
77	60
91	20
107	150
108	130
121	40
151	220
