Mass Spectrum: Benzene, 1-fluoro-4-(2-phenylethyl)-
Formula: C14 H13 F
CAS: 370-76-3
Molecular weight: 200
m/z	RELATIVE INTENSITY
39	340
41	70
50	120
51	350
52	70
57	180
62	70
63	320
64	50
65	1051
66	50
75	160
76	60
77	250
78	80
83	831
84	50
89	240
90	60
91	8338
92	691
101	210
102	80
103	160
104	100
107	190
108	60
109	9999
110	801
120	60
121	110
122	140
200	4244
201	681
202	30
