Mass Spectrum: Isopropyl N-(3-trifluoromethylphenyl)carbamate
Formula: C11 H12 F3 N O2
CAS: 370-56-9
Molecular weight: 247
Origin: NIST Mass Spectrometry Data Center, 1994
m/z	RELATIVE INTENSITY
12	15
13	19
14	62
15	625
16	30
17	18
18	42
19	146
20	25
25	18
26	136
27	1717
28	274
29	261
31	266
32	15
33	18
37	159
38	347
39	1106
40	233
41	2771
42	15
43	9999
44	447
45	1815
46	60
47	17
49	19
50	209
51	172
52	115
53	14
54	19
55	8
56	27
57	194
58	42
59	341
60	28
61	81
62	194
63	664
64	388
65	175
66	28
69	281
70	41
73	12
74	13
75	331
76	70
77	24
79	17
80	18
81	63
82	59
83	260
84	51
86	7
87	52
88	193
89	69
90	214
91	200
92	43
93	35
94	40
95	198
96	21
99	52
100	56
101	28
102	20
106	23
107	30
108	57
109	243
110	33
111	197
112	85
113	484
114	464
115	54
116	15
118	15
119	58
120	185
121	27
122	14
125	116
126	36
127	14
129	12
132	151
133	261
134	58
135	14
137	68
139	251
140	427
141	149
142	234
143	32
144	12
145	440
146	35
148	21
159	356
160	636
161	3722
162	301
163	12
168	306
169	36
174	22
184	28
186	288
187	922
188	1025
189	98
202	7
205	598
206	69
228	212
229	21
247	932
248	110
249	11
