Mass Spectrum: Pholedrine
Formula: C10 H15 N O
CAS: 370-14-9
Molecular weight: 165
Origin: Dr. Jiri Zamecnik, DCIEM, North York, Canada, GP Library
m/z	RELATIVE INTENSITY
39	300
41	250
42	770
43	400
53	180
56	830
58	9999
65	150
75	130
77	650
78	150
91	130
105	60
107	750
108	100
119	30
120	40
133	70
134	50
135	90
148	40
149	50
150	110
164	50
