Mass Spectrum: Cloperastine
Formula: C20 H24 Cl N O
CAS: 3703-76-2
Molecular weight: 329
Origin: NIST Mass Spectrometry Data Center, 1998.
m/z	RELATIVE INTENSITY
15	10
27	30
28	70
29	60
30	80
39	70
40	10
41	540
42	510
43	90
44	290
45	20
50	30
51	70
52	10
53	30
54	80
55	640
56	240
57	50
58	20
62	10
63	40
64	10
65	20
67	40
68	60
69	220
70	270
71	20
73	10
74	10
75	50
76	20
77	120
78	20
79	10
80	10
81	10
82	60
83	80
84	190
85	1580
86	100
87	20
88	10
89	50
90	10
91	20
94	10
96	220
98	9999
99	790
100	30
101	10
102	10
103	10
105	50
106	10
110	20
111	60
112	50
113	880
114	80
115	50
116	10
119	10
125	20
126	20
127	20
128	30
137	10
138	10
139	110
140	10
141	20
149	10
150	10
151	20
152	40
153	20
154	10
162	10
163	110
164	130
165	1330
166	720
167	110
168	10
178	10
181	10
186	10
199	40
200	10
201	220
202	40
203	70
204	10
