Mass Spectrum: 3-Benzylquinoline
Formula: C16 H13 N
CAS: 37045-16-2
Molecular weight: 219
Origin: E.V.BROWN, DEP. CHEM., UNIV. KENTUCKY, LEXINGTON, KENTUCKY,U
m/z	RELATIVE INTENSITY
91	800
189	800
203	400
204	500
216	800
217	2900
218	9900
219	9999
220	2100
