Mass Spectrum: 3,4-Decadiene
Formula: C10 H18
CAS: 37050-04-7
Molecular weight: 138
Origin: S.A. Rang et al., IR & MS of Unsatd. Hydrocarbons, 1977
m/z	RELATIVE INTENSITY
15	250
26	340
27	2940
29	3560
39	2890
41	5320
42	790
43	1530
50	210
51	740
52	550
53	1970
54	950
55	2320
56	450
57	1210
63	210
65	920
66	550
67	9999
68	1100
69	660
70	160
77	890
78	180
79	1740
80	290
81	2740
82	6100
83	450
84	50
85	160
95	920
107	90
108	30
109	930
110	120
123	100
124	10
137	80
138	10
