Mass Spectrum: 3,4-Octadiene, 7-methyl-
Formula: C9 H16
CAS: 37050-05-8
Molecular weight: 124
Origin: S.A. Rang et al., IR & MS of Unsatd. Hydrocarbons, 1977
m/z	RELATIVE INTENSITY
15	630
26	400
27	4440
29	2220
39	6060
41	5970
42	630
43	3280
50	550
51	1470
52	800
53	3430
54	600
55	2320
56	490
57	200
63	470
65	1470
66	620
67	9999
68	1520
69	890
70	120
77	1370
78	400
79	3180
80	480
81	4750
82	2650
83	180
85	430
93	360
94	170
95	3600
107	190
108	50
109	1720
110	140
124	450
125	45
