Mass Spectrum: Dichloroacetic acid, pentyl ester
Formula: C7 H12 Cl2 O2
CAS: 37079-03-1
Molecular weight: 198
Origin: V.G.Zaikin, Petrochem. Synth. Inst., Moscow
m/z	RELATIVE INTENSITY
26	120
27	1221
28	310
29	2092
30	90
31	110
35	110
36	190
37	110
38	180
39	971
40	210
41	2813
42	2913
43	9999
44	591
45	70
47	120
48	460
49	170
50	250
51	180
52	60
53	180
54	60
55	2612
56	250
57	190
69	410
70	1872
71	3313
72	250
73	40
76	661
77	110
78	230
79	80
83	1071
84	30
85	731
86	50
87	110
111	160
112	30
113	130
115	30
