Mass Spectrum: Dichloroacetic acid 2-methylpropyl ester
Formula: C6 H10 Cl2 O2
CAS: 37079-08-6
Molecular weight: 184
Origin: V.Zaikin,Topchiev Inst.Petrochem.Synth.,Moscow
m/z	RELATIVE INTENSITY
26	140
27	661
28	120
29	1812
31	80
35	80
36	480
38	160
39	811
40	140
41	3803
42	500
43	3113
44	100
47	90
48	310
49	120
50	130
55	510
56	2933
57	9999
58	380
59	190
73	110
76	1181
77	140
82	60
83	2202
84	70
85	1381
87	230
106	100
107	60
110	150
111	561
112	140
113	510
114	50
115	160
129	80
141	160
142	1641
143	390
144	1021
145	200
146	170
