Mass Spectrum: Dichloroacetic acid, hexyl ester
Formula: C8 H14 Cl2 O2
CAS: 37079-04-2
Molecular weight: 212
Origin: V.G.Zaikin, Petrochem. Synth. Inst., Moscow
m/z	RELATIVE INTENSITY
26	160
27	1281
28	240
29	1451
30	30
31	30
36	280
38	100
39	971
40	210
41	3283
42	1812
43	9999
44	510
47	40
48	350
49	100
50	180
51	170
53	130
54	180
55	2252
56	3713
57	1191
67	130
69	1081
70	80
71	80
73	70
76	591
77	50
78	180
83	1081
84	611
85	1451
86	80
87	80
111	180
112	30
113	130
115	20
