Mass Spectrum: 7-Hydroxyamoxapine
Formula: C17 H16 Cl N3 O2
CAS: 37081-76-8
Molecular weight: 329
Origin: Patti Price, Georgia Bureau of Investigation, Decatur, Georgia
m/z	RELATIVE INTENSITY
41	1070
42	4053
44	1211
50	870
51	1781
52	2392
53	1561
54	810
56	9999
58	1811
62	650
63	2862
65	870
69	1701
75	2632
76	580
77	650
78	820
79	580
80	1471
81	270
85	1311
87	690
108	630
111	300
112	310
114	330
122	250
123	450
124	760
125	780
126	2131
127	1261
152	1561
153	2972
176	210
178	140
179	490
188	500
204	250
209	7036
210	1361
216	610
217	700
238	280
239	310
243	370
244	2111
245	1241
246	1551
260	4994
261	6145
262	2402
263	3012
273	3563
274	1050
275	1050
285	900
287	1050
329	1121
