Mass Spectrum: Carbonfluoridodithioic acid, trifluoromethyl ester
Formula: C2 F4 S2
CAS: 371-73-3
Molecular weight: 164
Origin: Dennis Rohrbaugh, CBDCOM/ERDEC, Edgewood, MD
m/z	RELATIVE INTENSITY
44	1016
46	24
50	320
51	177
63	9999
64	675
65	478
66	34
69	5460
70	39
76	1983
77	29
78	172
82	409
95	1529
97	123
101	251
164	4932
165	202
166	419
