Mass Spectrum: Ethanol, 2-fluoro-
Formula: C2 H5 F O
CAS: 371-62-0
Molecular weight: 64
m/z	RELATIVE INTENSITY
12	10
13	40
14	140
15	651
16	20
17	220
18	1021
19	110
25	30
26	130
27	681
28	250
29	761
30	120
31	9999
32	190
33	250
34	10
35	30
36	10
37	10
38	40
39	20
40	10
41	40
42	170
43	781
44	240
45	390
46	210
47	220
48	30
63	200
64	1421
65	70
