Mass Spectrum: Arsine, bis(trifluoromethyl)-
Formula: C2 H As F6
CAS: 371-74-4
Molecular weight: 214
Origin: A.Pleshkova, Nesmeyanov Inst.Org.Elem.Cpds, Moscow
m/z	RELATIVE INTENSITY
31	951
32	10
50	270
51	4504
52	50
69	9999
70	110
75	1491
76	500
94	2702
95	1581
113	7797
125	2122
126	4644
127	60
144	2612
145	1131
146	10
163	450
164	10
175	270
176	10
194	360
195	230
196	10
214	3383
215	80
