Mass Spectrum: p-Fluoroaniline
Formula: C6 H6 F N
CAS: 371-40-4
Molecular weight: 111
Origin: Japan AIST/NIMC Database- Spectrum MS-NW- 998
m/z	RELATIVE INTENSITY
26	30
27	50
28	119
29	10
31	179
32	20
33	50
36	20
37	109
38	149
39	239
40	70
41	259
42	30
44	50
45	109
46	20
48	30
49	40
50	129
51	129
52	269
53	50
54	90
55	359
56	149
57	669
58	109
59	30
60	20
61	109
62	139
63	339
64	639
65	249
66	40
67	40
68	40
69	40
70	50
71	20
72	80
73	10
74	50
75	99
76	30
78	30
80	40
81	169
82	169
83	1829
84	3009
85	289
86	10
88	10
89	40
90	80
91	389
92	70
93	10
94	109
95	70
96	40
108	20
109	70
110	609
111	9999
112	689
113	20
