Mass Spectrum: Methane, thiobis[trifluoro-
Formula: C2 F6 S
CAS: 371-78-8
Molecular weight: 170
m/z	RELATIVE INTENSITY
12	120
19	70
31	681
32	470
33	10
34	20
44	80
50	320
51	130
63	1491
64	30
65	70
66	10
69	9999
70	110
82	1041
83	20
84	50
101	230
102	10
103	20
151	300
152	10
153	20
170	2562
171	80
172	120
