Mass Spectrum: Diethylhydroxylamine
Formula: C4 H11 N O
CAS: 3710-84-7
Molecular weight: 89
Origin: James Little,Eastman Chem.Co.,Kingsport,TN
m/z	RELATIVE INTENSITY
27	2272
29	3833
30	400
31	190
40	170
41	550
42	2672
43	250
44	841
46	8297
55	90
56	611
57	90
58	160
59	140
60	601
70	100
72	110
73	60
74	9999
75	390
87	180
88	591
89	3373
90	350
