Mass Spectrum: Naphthalene, 2-(1-methylethenyl)-
Formula: C13 H12
CAS: 3710-23-4
Molecular weight: 168
Origin: Japan AIST/NIMC Database- Spectrum MS-IW-2138
m/z	RELATIVE INTENSITY
15	10
27	40
38	20
39	159
40	10
41	30
44	20
50	119
51	209
52	40
53	10
55	10
56	10
57	119
58	20
61	30
62	99
63	359
64	30
65	50
69	179
70	90
71	109
73	10
74	169
75	269
76	549
77	289
78	60
81	119
82	429
83	679
84	319
85	20
86	70
87	119
88	30
89	99
90	10
91	30
98	70
99	50
100	40
101	169
102	139
103	20
110	20
111	20
113	60
114	30
115	419
116	40
122	10
125	40
126	379
127	629
128	2349
129	269
130	10
137	20
138	20
139	269
140	70
141	339
142	50
150	229
151	769
152	3009
153	4219
154	529
155	50
162	20
163	179
164	179
165	1169
166	379
167	2039
168	9999
169	1409
170	99
