Mass Spectrum: 1,2-Heptanediol
Formula: C7 H16 O2
CAS: 3710-31-4
Molecular weight: 132
m/z	RELATIVE INTENSITY
14	10
15	290
16	10
17	50
18	250
19	110
26	50
27	951
28	280
29	2052
30	90
31	1151
32	110
33	60
38	30
39	591
40	90
41	3493
42	430
43	2752
44	641
45	811
46	30
47	40
50	20
51	40
52	10
53	150
54	100
55	9999
56	731
57	1611
58	180
59	320
60	240
61	1922
62	50
63	20
65	20
66	10
67	190
68	80
69	951
70	130
71	220
72	70
73	160
74	30
75	100
76	20
77	20
79	20
81	220
82	170
83	9999
84	671
85	90
86	160
87	340
88	30
89	50
95	80
96	50
97	100
98	10
99	60
100	370
101	3924
102	270
103	30
114	10
115	60
116	10
117	80
118	10
128	10
129	10
130	10
131	20
132	10
133	10
