Mass Spectrum: Hydrazine, 1,2-bis(1-methylethyl)-
Formula: C6 H16 N2
CAS: 3711-34-0
Molecular weight: 116
Origin: ATLAS OF MASS SPECTRA OF ORGANIC COMPOUNDS, V. A. KOPTYUG, ED.
m/z	RELATIVE INTENSITY
27	1750
28	560
29	460
30	1460
31	9999
32	1070
39	730
40	190
41	2520
42	1790
43	7640
44	2260
45	130
56	930
57	350
58	4680
59	4440
60	180
72	120
73	5130
74	380
85	120
99	110
101	6400
102	480
115	140
116	6400
117	750
