Mass Spectrum: 3,4-Dihydroxymandelic acid, 4TMS derivative
Formula: C20 H40 O5 Si4
CAS: 37148-65-5
Molecular weight: 472
Origin: F.A.J.MUSKIET, LAB. CLIN. CHEM., UNIV. HOSP., GRONINGEN, NET
m/z	RELATIVE INTENSITY
40	280
43	140
44	320
45	1470
46	80
47	120
57	60
58	70
59	130
61	50
69	100
72	100
73	9640
74	930
75	790
77	180
115	40
117	80
119	70
131	170
133	170
135	60
147	1120
148	250
149	150
161	50
178	50
179	80
191	60
193	240
195	50
206	50
223	70
237	90
251	180
252	50
265	170
266	80
267	340
281	210
282	50
283	140
295	390
296	80
297	260
298	70
325	50
339	80
341	40
353	90
355	9999
356	3350
357	1560
358	390
359	100
384	80
429	380
430	160
431	50
457	210
458	70
472	130
474	50
