Mass Spectrum: 2-Propanamine, 1-methoxy-
Formula: C4 H11 N O
CAS: 37143-54-7
Molecular weight: 89
Origin: Chuck Anderson, Aldrich Chemical Co.
m/z	RELATIVE INTENSITY
14	25
15	405
16	13
17	23
18	1348
19	4
25	2
26	51
27	295
28	648
29	515
30	393
31	88
32	6
33	27
37	96
38	30
39	166
40	94
41	503
42	1006
43	416
44	9999
45	659
46	17
47	8
52	9
53	3
54	18
55	12
56	212
57	65
58	135
59	46
70	2
71	53
72	23
73	20
74	157
75	3
88	19
89	38
90	46
