Mass Spectrum: 1,3,6,9b-Tetraazaphenalene
Formula: C9 H6 N4
CAS: 37159-99-2
Molecular weight: 170
m/z	RELATIVE INTENSITY
18	286
26	347
27	204
28	1020
37	551
38	837
39	490
40	612
50	449
51	735
52	2469
53	367
62	286
63	531
64	1592
65	1510
66	551
75	265
76	571
77	490
78	224
79	204
86	184
88	143
89	510
90	347
91	612
92	1959
93	143
103	510
115	204
116	2612
117	449
142	429
143	5550
170	9999
