Mass Spectrum: Ethyl p-(p-pentyloxybenzylidene)aminobenzoate
Formula: C21 H25 N O3
CAS: 37168-42-6
Molecular weight: 339
Origin: NIST Mass Spectrometry Data Center, 1994
m/z	RELATIVE INTENSITY
17	8
18	27
27	1471
28	360
29	4023
30	89
38	75
39	836
41	2352
42	342
43	5247
44	170
50	365
51	650
52	112
53	120
54	75
55	556
62	57
63	332
64	196
65	2152
66	199
69	138
71	244
75	303
76	912
77	705
78	156
79	82
88	43
89	200
90	164
91	112
92	75
93	412
94	183
95	35
101	39
102	165
103	420
104	223
105	129
107	86
113	61
114	130
115	424
116	111
117	45
119	103
120	124
121	283
126	52
127	104
128	96
130	96
131	78
132	56
139	583
140	424
141	491
142	56
144	51
148	207
149	111
150	84
151	520
152	346
153	187
154	47
165	127
166	716
167	1452
168	710
169	273
170	60
176	165
177	187
178	258
179	134
180	84
194	199
195	229
196	881
197	445
198	86
207	76
208	53
211	74
212	67
223	799
224	4608
225	871
226	121
236	63
240	2806
241	2511
242	392
243	53
250	50
251	159
252	65
254	90
266	76
268	2504
269	9653
270	1833
271	195
282	119
294	1017
295	212
296	34
339	9999
340	2355
341	270
342	20
