Mass Spectrum: Acetic acid, cyano-
Formula: C3 H3 N O2
CAS: 372-09-8
Molecular weight: 85
Origin: NIST Mass Spectrometry Data Center, 1992
m/z	RELATIVE INTENSITY
12	580
13	248
14	264
15	154
16	551
17	166
18	181
24	107
25	221
26	496
28	137
29	255
36	118
38	1715
39	1950
40	5318
41	9999
42	554
43	110
44	8340
45	4421
46	96
51	82
52	72
53	83
67	238
68	1219
69	70
74	4
77	107
79	63
85	554
