Mass Spectrum: Benzenamine, 3-fluoro-
Formula: C6 H6 F N
CAS: 372-19-0
Molecular weight: 111
Origin: Japan AIST/NIMC Database- Spectrum MS-NW-1008
m/z	RELATIVE INTENSITY
15	10
25	10
26	50
27	80
28	259
29	30
30	10
31	219
32	20
33	70
36	30
37	209
38	329
39	489
40	129
41	439
42	70
43	60
44	60
45	119
46	30
48	40
49	50
50	199
51	189
52	399
53	60
54	90
55	249
56	129
57	869
58	129
59	40
60	30
61	179
62	239
63	569
64	999
65	419
66	70
67	50
68	70
69	70
70	119
71	60
72	169
73	30
74	70
75	169
76	50
77	10
78	50
80	70
81	179
82	179
83	2059
84	3199
85	359
86	20
88	20
89	40
90	149
91	519
92	90
93	20
94	129
95	80
96	80
108	20
109	80
110	589
111	9999
112	669
113	20
