Mass Spectrum: Bis(trifluoromethyl)tetrasulfane
Formula: C2 F6 S4
CAS: 372-07-6
Molecular weight: 266
Origin: Dennis Rohrbaugh, CBDCOM/ERDEC, Edgewood, MD
m/z	RELATIVE INTENSITY
50	229
51	239
64	8769
66	809
68	20
69	9999
70	119
82	829
83	419
85	30
96	669
98	50
101	989
114	60
133	2609
134	40
135	299
165	2999
167	509
197	439
199	30
266	2059
267	80
268	359
