Mass Spectrum: Phenol, 3-fluoro-
Formula: C6 H5 F O
CAS: 372-20-3
Molecular weight: 112
Origin: Japan AIST/NIMC Database- Spectrum MS-IW-2227
m/z	RELATIVE INTENSITY
25	10
26	30
27	70
28	70
29	80
31	229
32	50
33	30
36	20
37	149
38	279
39	389
40	30
41	40
42	50
43	20
44	40
45	70
46	20
48	10
49	60
50	199
51	149
52	10
53	209
54	10
55	80
56	429
57	1129
58	269
59	10
60	30
61	159
62	209
63	769
64	1229
65	169
66	70
67	10
68	99
69	90
70	60
71	40
72	30
73	489
74	109
75	149
76	10
77	10
79	20
80	30
81	259
82	169
83	2349
84	2359
85	129
86	99
87	10
91	10
92	99
93	30
94	129
95	80
97	50
110	30
111	159
112	9999
113	679
114	40
