Mass Spectrum: 1,3,5-Trifluorobenzene
Formula: C6 H3 F3
CAS: 372-38-3
Molecular weight: 132
Origin: Japan AIST/NIMC Database- Spectrum MS-IW-2588
m/z	RELATIVE INTENSITY
31	409
32	10
36	30
37	209
38	159
39	30
44	30
45	10
48	10
49	60
50	279
51	139
55	30
56	139
57	389
58	10
60	30
61	289
62	459
63	1819
64	109
66	299
68	329
69	109
70	10
72	10
73	50
74	139
75	569
76	20
79	50
80	129
81	1889
82	389
83	10
86	50
87	90
88	459
89	20
92	90
93	119
94	30
99	179
100	10
101	579
102	30
106	309
107	10
110	10
111	20
112	579
113	389
114	70
130	20
131	179
132	9999
133	679
134	10
