Mass Spectrum: Butanoic acid, 4,4,4-trifluoro-3-oxo-, ethyl ester
Formula: C6 H7 F3 O3
CAS: 372-31-6
Molecular weight: 184
Origin: Japan AIST/NIMC Database- Spectrum MS-NW-2715
m/z	RELATIVE INTENSITY
12	50
13	149
14	279
15	669
16	30
18	10
19	119
20	40
24	30
25	90
26	409
27	2319
28	579
29	7059
30	169
31	2439
32	90
33	159
36	10
37	20
39	30
40	90
41	1229
42	1439
43	2499
44	569
45	2959
46	449
47	80
49	10
50	179
51	169
52	20
53	90
55	40
56	30
57	30
58	10
59	70
60	90
61	70
62	20
63	179
64	129
67	30
68	70
69	9999
70	269
71	119
72	10
73	90
74	30
75	109
76	10
77	10
78	50
79	10
82	60
83	299
84	10
86	50
87	3759
88	129
89	539
90	20
91	429
92	90
93	30
94	20
95	10
97	509
98	10
99	20
107	70
109	20
110	10
111	149
112	129
113	10
115	5489
116	299
117	50
119	249
120	90
121	10
122	40
123	10
137	90
138	249
139	6439
140	289
141	40
153	10
156	309
157	369
158	10
163	80
164	10
165	10
169	40
181	30
184	719
185	60
186	10
