Mass Spectrum: 2-Heptanol, 6-amino-2-methyl-
Formula: C8 H19 N O
CAS: 372-66-7
Molecular weight: 145
Origin: Finnigan MAT: Toxicological Library (LIBR-TX)
m/z	RELATIVE INTENSITY
41	412
42	297
43	1480
44	9999
45	184
55	413
56	873
57	219
59	1079
69	776
70	281
71	201
95	108
110	93
113	293
128	97
