Mass Spectrum: Trisulfide, bis(trifluoromethyl)
Formula: C2 F6 S3
CAS: 372-06-5
Molecular weight: 234
m/z	RELATIVE INTENSITY
19	40
25	10
31	520
32	1351
33	20
34	60
36	20
38	40
43	10
44	220
45	20
46	50
50	240
51	200
53	10
63	550
64	5005
65	120
66	450
67	10
69	8508
70	160
76	410
77	20
78	50
82	540
83	190
84	30
96	230
101	400
102	10
103	60
110	20
114	80
133	7337
134	270
135	671
136	100
137	20
146	50
165	2602
166	90
167	320
168	10
215	130
217	20
234	9999
235	450
236	1341
237	50
238	70
