Mass Spectrum: Cyclohexane, fluoro-
Formula: C6 H11 F
CAS: 372-46-3
Molecular weight: 102
m/z	RELATIVE INTENSITY
14	10
15	100
16	10
19	10
20	220
24	10
25	10
26	280
27	1882
28	1151
29	681
30	40
31	60
32	40
33	360
34	10
35	10
36	30
37	80
38	210
39	2152
40	430
41	5245
42	1421
43	881
44	50
45	110
46	621
47	310
48	20
49	40
50	250
51	480
52	170
53	801
54	3883
55	1942
56	2592
57	280
58	40
59	2022
60	410
61	130
62	30
63	60
64	10
65	130
66	150
67	9999
68	571
69	370
70	50
71	40
72	170
73	480
74	510
75	40
76	10
77	160
78	60
79	220
80	50
81	851
82	2662
83	210
84	20
85	50
86	10
87	40
88	10
95	10
96	10
97	20
98	10
99	10
100	10
101	30
102	240
103	20
