Mass Spectrum: Cyclopropanamine, 2-phenyl-, trans-(+)-
Formula: C9 H11 N
CAS: 3721-28-6
Molecular weight: 133
Origin: MI-0110
m/z	RELATIVE INTENSITY
26	270
27	1101
28	4314
29	911
30	4344
31	140
32	130
36	120
37	190
38	490
39	2192
40	340
41	571
42	881
43	380
44	120
45	70
46	20
47	20
48	40
49	180
50	1491
51	3193
52	1021
53	530
54	1541
55	1361
56	6126
57	410
58	70
59	20
60	10
61	220
62	641
63	1812
64	410
65	1541
66	400
67	190
68	50
69	40
70	10
71	10
72	40
73	140
74	571
75	520
76	601
77	3493
78	2402
79	1641
80	290
81	70
82	10
83	40
84	40
85	110
86	180
87	170
88	100
89	1071
90	470
91	2833
92	490
93	160
94	70
95	10
96	10
97	20
98	90
99	40
100	40
101	170
102	621
103	1992
104	2142
105	1021
106	1371
107	190
108	10
112	20
113	90
114	120
115	5945
116	3003
117	2612
118	651
119	110
120	30
128	140
129	210
130	1381
131	571
132	9999
133	8207
134	871
135	90
136	40
