Mass Spectrum: Cyclohexane, 1-ethyl-2-methyl-
Formula: C9 H18
CAS: 3728-54-9
Molecular weight: 126
Origin: NIST Mass Spectrometry Data Center, 1990.
m/z	RELATIVE INTENSITY
27	794
28	161
29	855
32	35
39	1413
40	368
41	2962
42	832
43	703
44	44
50	83
51	213
52	116
53	736
54	44
55	8316
56	1640
57	304
63	60
65	201
66	109
67	769
68	457
69	2378
70	695
71	101
77	209
79	172
81	503
82	150
83	505
84	263
91	52
96	2038
97	9999
98	834
111	162
126	910
127	85
