Mass Spectrum: Cyclopentane, 1-methyl-2-propyl-
Formula: C9 H18
CAS: 3728-57-2
Molecular weight: 126
Origin: D.HENNEBERG, MAX-PLANCK INSTITUTE, MULHEIM, WEST GERMANY
m/z	RELATIVE INTENSITY
21	2
23	2
24	10
25	19
26	82
27	1990
28	76
29	1728
30	47
31	4
32	28
33	8
34	7
36	19
37	19
38	67
39	1700
40	334
41	5851
42	3381
43	2804
44	8
46	11
47	3
48	7
50	70
51	160
52	98
53	616
54	590
55	9999
56	7807
57	1327
58	49
61	4
62	11
63	26
65	130
66	89
67	1349
68	463
69	3418
70	4186
71	674
72	22
73	4
77	545
78	18
79	109
80	23
81	287
82	2321
83	5838
84	2823
85	391
86	12
91	10
93	8
95	44
96	320
97	2631
98	1289
99	81
100	1
103	1
108	3
111	157
112	7
124	2
125	6
126	1761
127	196
