Mass Spectrum: 1-Ethyl-3-methylcyclohexane (c,t)
Formula: C9 H18
CAS: 3728-55-0
Molecular weight: 126
Origin: NIST Mass Spectrometry Data Center, 1990.
m/z	RELATIVE INTENSITY
14	3
26	64
27	656
28	41
29	726
39	1250
40	284
41	2365
42	467
43	526
50	55
51	199
52	100
53	642
54	55
55	8138
56	950
57	225
63	50
65	163
66	84
67	652
68	307
69	2204
70	295
77	168
79	203
81	873
82	115
83	211
84	56
91	58
96	1940
97	9999
98	756
111	271
126	2122
127	211
