Mass Spectrum: Terephthalonitrile N,N'-dioxide
Formula: C8 H4 N2 O2
CAS: 3729-34-8
Molecular weight: 160
Origin: Pu Leung, NIH, Bethesda, MD
m/z	RELATIVE INTENSITY
41	1073
42	480
43	1894
44	4046
45	1049
47	1025
48	215
49	4169
50	3436
51	4550
52	3177
53	1413
54	1584
55	623
61	947
62	2234
63	3000
64	2428
65	1917
66	562
67	344
69	392
73	749
74	1219
75	2919
76	2782
77	3011
78	1165
79	974
80	691
83	174
84	317
86	266
87	409
88	1791
89	1894
90	3348
91	1039
92	899
101	814
102	3000
103	998
104	3256
105	1103
106	1131
114	174
116	2932
117	439
118	2942
119	759
120	1839
121	776
128	2183
129	201
130	535
131	453
132	2670
133	446
134	2040
135	215
144	7302
145	548
159	1642
160	9999
161	949
162	44
