Mass Spectrum: Sulfur, pentafluoro(trifluoromethyl)-, (OC-6-21)-
Formula: C F8 S
CAS: 373-80-8
Molecular weight: 196
m/z	RELATIVE INTENSITY
12	50
13	10
19	60
31	330
32	180
34	10
44	30
50	200
51	450
53	20
63	70
69	9999
70	641
71	10
72	30
82	40
89	3413
90	30
91	160
101	10
108	140
110	10
120	10
127	1061
128	10
129	50
196	10
