Mass Spectrum: Hexane, 1-fluoro-
Formula: C6 H13 F
CAS: 373-14-8
Molecular weight: 104
m/z	RELATIVE INTENSITY
2	140
14	360
15	921
16	100
20	30
25	30
26	781
27	6726
28	1473
29	6306
30	150
31	100
32	99
33	1581
34	20
36	20
37	130
38	340
39	3523
40	651
41	7977
42	6776
43	9999
44	360
45	210
46	400
47	2152
48	50
49	20
50	170
51	320
52	90
53	490
54	410
55	5525
56	5575
57	2242
58	120
59	991
60	150
61	300
62	30
63	40
65	50
66	20
68	70
69	2803
70	220
71	260
72	40
73	110
74	450
75	581
76	30
77	10
81	10
83	60
84	350
85	30
