Mass Spectrum: 6-C14H26
Formula: C14 H26
CAS: 3730-08-3
Molecular weight: 194
Origin: S.A. Rang et al., IR & MS of Unsatd. Hydrocarbons, 1977
m/z	RELATIVE INTENSITY
15	22
24	5
25	24
26	172
27	2463
28	185
29	4434
30	138
31	10
37	17
38	50
39	1663
40	405
41	7143
42	989
43	4803
44	167
45	17
49	7
50	74
51	300
52	673
53	1724
54	8929
55	7143
56	1232
57	1248
58	124
59	29
60	33
61	5
62	12
63	69
64	33
65	592
66	664
67	9999
68	3941
69	3756
70	429
71	205
72	45
73	29
74	7
75	17
76	14
77	745
78	219
79	1394
80	600
81	9643
82	4680
83	74
84	217
85	74
86	14
87	7
89	7
90	7
91	381
92	72
93	421
94	243
95	7321
96	2340
97	608
98	74
99	22
100	26
101	7
102	5
103	17
104	7
105	55
106	14
107	127
108	96
109	2771
110	1475
111	251
112	38
113	14
114	31
115	17
116	5
117	10
119	10
121	45
122	33
123	1377
124	470
125	69
126	12
127	12
128	22
129	12
135	17
136	14
137	502
138	158
139	117
140	19
141	12
142	10
149	7
151	664
152	324
153	48
154	5
156	5
165	201
166	38
167	10
168	5
179	31
180	5
193	7
194	84
195	38
