Mass Spectrum: 2-Hexanol, 2,5-dimethyl-, (S)-
Formula: C8 H18 O
CAS: 3730-60-7
Molecular weight: 130
Origin: Japan AIST/NIMC Database- Spectrum MS-IW- 619
m/z	RELATIVE INTENSITY
15	50
18	10
26	10
27	279
28	70
29	469
30	10
31	579
38	10
39	289
40	50
41	1509
42	149
43	969
44	30
45	229
48	10
49	129
50	20
51	20
52	10
53	99
54	20
55	1899
56	1469
57	1169
58	359
59	9999
60	359
61	20
65	10
67	60
68	90
69	1039
70	179
71	249
72	10
73	40
77	10
79	10
81	30
83	20
84	10
95	20
97	1339
98	99
111	30
112	239
113	90
114	10
115	779
116	60
