Mass Spectrum: 4-(Aminomethyl)pyridine
Formula: C6 H8 N2
CAS: 3731-53-1
Molecular weight: 108
Origin: NIST Mass Spectrometry Data Center, 1990.
m/z	RELATIVE INTENSITY
13	41
14	48
15	48
16	10
24	28
25	76
26	459
27	750
28	2752
29	728
30	5525
31	141
32	17
36	50
37	305
38	536
39	893
40	314
41	253
42	74
48	46
49	356
50	1616
51	2227
52	1960
53	1173
54	404
55	110
61	91
62	246
63	392
64	285
65	437
66	71
67	74
75	140
76	155
77	137
78	767
79	3051
80	9999
81	527
92	116
105	124
107	1778
108	844
109	63
