Mass Spectrum: 2-Pyridinemethanamine
Formula: C6 H8 N2
CAS: 3731-51-9
Molecular weight: 108
Origin: Japan AIST/NIMC Database- Spectrum MS-NW-5719
m/z	RELATIVE INTENSITY
14	20
15	40
16	40
18	10
24	10
25	30
26	309
27	739
28	1459
29	259
30	5789
31	99
32	40
34	10
36	20
37	179
38	309
39	759
40	139
41	169
42	80
43	30
44	70
46	10
48	20
49	159
50	799
51	1509
52	2929
53	1739
54	249
55	70
56	20
57	10
58	10
59	20
60	30
61	70
62	119
63	239
64	189
65	449
66	99
67	90
68	10
69	10
70	10
71	10
72	10
74	30
75	119
76	169
77	189
78	1249
79	7019
80	9999
81	609
82	30
84	40
85	10
87	10
90	20
91	60
92	229
93	329
94	50
96	10
103	30
104	359
105	479
106	90
107	4909
108	8329
109	629
110	30
