Mass Spectrum: 1-Azabicyclo[2.2.2]octan-3-one
Formula: C7 H11 N O
CAS: 3731-38-2
Molecular weight: 125
Origin: Japan AIST/NIMC Database- Spectrum MS-NW-2385
m/z	RELATIVE INTENSITY
13	10
14	90
15	879
16	10
17	20
18	70
25	20
26	209
27	1319
28	859
29	649
30	239
31	10
39	1499
40	339
41	4509
42	9339
43	3209
44	399
46	40
47	169
48	20
49	20
50	109
51	179
52	109
53	369
54	1569
55	3989
56	1279
57	219
58	20
61	10
62	20
63	30
64	10
65	80
66	60
67	349
68	2799
69	4079
70	359
71	20
77	20
78	10
79	30
80	90
81	60
82	2739
83	169
93	20
94	99
95	60
96	4119
97	9999
98	679
99	20
124	10
125	2329
126	189
127	20
