Mass Spectrum: Phosphorodiamidothioic chloride, tetramethyl-
Formula: C4 H12 Cl N2 P S
CAS: 3732-81-8
Molecular weight: 186
Origin: R.C. DOUGHERTY
m/z	RELATIVE INTENSITY
28	1201
30	400
40	300
41	400
42	3904
43	1001
44	9999
45	601
60	1702
63	1201
76	500
99	400
107	500
108	500
110	5305
112	2002
119	400
142	701
144	300
151	2803
186	1251
188	450
