Mass Spectrum: Metazocine
Formula: C15 H21 N O
CAS: 3734-52-9
Molecular weight: 231
Origin: R.E.Ardrey ET AL.Pharmaceutical Mass Spectra,L.,1985
m/z	RELATIVE INTENSITY
27	500
29	300
30	1001
31	2502
39	601
40	100
41	801
42	4304
43	300
44	1802
51	400
52	100
53	300
54	100
55	300
56	400
57	300
58	801
59	5105
60	200
63	200
65	300
67	100
68	200
69	100
70	901
71	601
72	601
77	601
78	200
79	200
82	601
83	400
84	9999
85	601
86	400
89	100
91	400
93	100
94	100
96	601
97	200
98	200
100	200
102	100
103	200
105	200
107	300
108	500
110	300
115	701
116	300
117	200
121	200
122	100
124	5605
125	500
127	400
128	500
129	300
130	100
131	601
132	200
133	200
134	100
141	300
144	500
145	901
146	400
147	601
148	400
157	701
158	801
159	1401
160	1001
161	1301
162	200
171	200
172	601
173	801
174	1301
175	300
176	100
185	100
186	100
187	100
188	100
189	200
200	100
202	801
203	100
214	100
216	4704
217	701
230	2302
231	6206
232	1101
233	100
