Mass Spectrum: 4,7-Methano-1H-indene, 4,5,6,7,8,8-hexachloro-3a,4,7,7a-tetrahydro-
Formula: C10 H6 Cl6
CAS: 3734-48-3
Molecular weight: 336
Origin: ACCUSTANDARD Chemicals / NIST MS Data Center.
m/z	RELATIVE INTENSITY
13	7
15	7
17	9
18	14
25	6
26	50
27	177
28	232
29	7
32	62
35	32
36	30
37	62
38	128
39	627
40	346
41	31
44	1
47	47
49	85
50	152
51	199
52	30
53	16
55	7
56	5
60	57
61	135
62	133
63	159
66	9999
67	548
68	22
71	35
72	45
73	171
74	161
75	152
76	26
77	48
78	14
79	29
80	69
81	28
82	26
83	62
84	125
85	172
86	118
87	70
88	14
89	28
90	9
91	13
92	3
94	29
95	82
96	107
97	236
98	277
99	178
100	409
101	750
102	257
103	297
104	34
106	53
107	86
108	150
109	217
110	71
111	98
112	16
113	43
114	62
115	239
116	231
117	166
118	60
119	170
120	116
121	123
122	63
123	94
124	50
125	107
126	166
127	18
130	115
131	66
132	159
133	169
134	101
135	243
136	56
137	151
138	29
139	28
141	176
143	200
144	32
145	98
146	20
147	43
148	35
149	76
150	16
151	28
153	12
154	13
155	34
156	16
157	51
158	33
159	92
160	318
161	163
162	115
163	40
165	111
167	133
168	28
169	85
170	64
171	35
172	33
173	9
174	7
177	8
178	13
179	25
180	18
181	35
182	25
183	77
184	35
185	42
186	14
187	7
188	7
189	4
190	12
191	62
192	22
193	62
194	127
195	144
196	348
197	101
198	211
199	31
200	36
201	34
202	14
203	63
204	59
205	56
206	57
207	25
208	20
213	9
214	28
215	15
216	47
217	60
218	34
219	65
220	17
221	17
222	4
225	19
226	18
227	38
228	28
229	65
230	407
231	159
232	404
233	139
234	160
235	476
236	142
237	681
238	161
239	460
240	106
241	154
242	43
243	24
244	10
248	75
250	115
251	26
252	74
253	33
254	27
255	31
256	8
257	14
261	12
263	32
264	28
265	144
266	101
267	186
268	107
269	101
270	268
271	8
272	434
273	8
274	344
275	27
276	171
277	10
278	41
280	8
301	124
303	219
304	41
305	132
306	18
307	39
308	6
309	6
336	237
338	420
339	61
340	329
341	48
342	157
343	18
344	39
345	5
346	7
