Mass Spectrum: Carbamodithioic acid, dimethyl-, methyl ester
Formula: C4 H9 N S2
CAS: 3735-92-0
Molecular weight: 135
Origin: F.I.ONUSKA CANADA CENTRE FOR INLAND WATERS, ONTARIO, CANADA
m/z	RELATIVE INTENSITY
34	821
38	1119
41	791
42	1463
43	1284
44	2552
55	687
56	806
57	1060
58	239
59	209
60	254
61	284
69	507
71	716
72	597
73	1060
76	9999
83	403
85	388
88	8478
90	358
91	881
109	209
111	224
120	60
121	60
135	4075
