Mass Spectrum: 1H-Purine-2,6-dione, 3,7-dihydro-1,3-dimethyl-7-[2-[(1-methyl-2-phenylethyl)amino]ethyl]-
Formula: C18 H23 N5 O2
CAS: 3736-08-1
Molecular weight: 341
Origin: Drug Lab
m/z	RELATIVE INTENSITY
40	110
41	530
42	841
43	340
44	240
50	20
51	110
52	60
53	130
54	390
55	140
56	921
57	240
58	80
63	80
64	20
65	530
66	120
67	310
68	440
69	320
70	2963
71	180
75	20
77	190
78	100
79	160
80	90
81	370
82	150
83	80
89	130
90	50
91	4374
92	410
93	120
94	370
95	591
96	160
97	370
98	20
102	20
103	130
104	90
105	100
106	20
107	60
108	130
109	300
110	140
111	40
115	210
116	60
117	230
118	130
119	911
120	180
121	100
122	340
123	220
124	170
125	140
129	30
130	60
131	50
132	50
133	30
134	260
135	80
136	140
137	120
138	250
144	60
146	140
147	70
148	791
149	130
150	160
151	100
152	110
159	70
160	90
161	30
162	30
163	80
165	280
166	40
177	40
179	20
180	120
181	671
182	60
192	20
193	340
194	100
195	30
206	40
207	4564
208	540
209	50
222	30
235	20
248	40
250	9999
251	1431
252	130
253	20
326	20
