Mass Spectrum: Butane, 1-(2-propenyloxy)-
Formula: C7 H14 O
CAS: 3739-64-8
Molecular weight: 114
Origin: CARL DJERASSI DEPT OF CHEM STANFORD UNIV STANFORD CALIF 94305
m/z	RELATIVE INTENSITY
26	200
27	1000
28	500
29	2500
30	200
31	300
39	1300
40	200
41	9999
42	700
43	1500
53	100
54	100
55	100
56	1000
57	3000
58	7900
59	300
71	700
72	100
85	200
99	15
113	10
114	15
