Mass Spectrum: 1,1,1-Trifluoro-2-propanol
Formula: C3 H5 F3 O
CAS: 374-01-6
Molecular weight: 114
Origin: NIST Mass Spectrometry Data Center
m/z	RELATIVE INTENSITY
12	30
13	90
14	350
15	1271
17	30
19	2242
20	10
24	10
25	60
26	390
27	2382
29	3103
30	120
31	601
33	130
36	10
37	10
38	10
41	60
42	400
43	1932
45	9999
46	380
47	1742
48	40
49	530
50	250
51	1421
52	20
55	40
56	30
57	20
60	40
63	100
64	40
65	110
67	330
69	971
70	10
73	10
74	10
75	380
76	50
77	210
78	50
79	751
80	90
91	20
93	20
95	220
96	20
99	841
100	20
113	20
