Mass Spectrum: 1-Propene, 3,3,3-trifluoro-2-methyl-
Formula: C4 H5 F3
CAS: 374-00-5
Molecular weight: 110
Origin: THE M.W. KELLOGG CO., JERSEY CITY, N.J., USA
m/z	RELATIVE INTENSITY
24	39
25	147
26	522
27	760
28	200
29	64
31	1133
32	100
36	169
37	1247
38	1936
39	8380
40	1017
41	9999
42	341
43	27
44	150
45	299
46	464
47	42
48	18
49	83
50	422
51	595
52	21
55	64
56	195
57	519
58	71
59	1012
60	869
61	31
62	7
63	48
64	2114
65	1853
66	52
68	81
69	1862
70	108
71	181
72	17
74	33
75	727
76	155
77	855
78	29
81	5
82	112
83	68
87	43
88	206
89	603
90	1342
91	1995
92	84
93	25
94	19
95	3080
96	100
106	8
107	25
108	26
109	288
110	5280
111	230
