Mass Spectrum: 4-Chloro-o-tolyl isocyanate
Formula: C8 H6 Cl N O
CAS: 37408-18-7
Molecular weight: 167
Origin: NIST Mass Spectrometry Data Center, 1994
m/z	RELATIVE INTENSITY
14	30
15	146
25	61
26	569
27	815
28	891
29	106
32	15
36	134
37	926
38	1347
39	1612
40	245
41	87
43	136
44	91
47	151
48	102
49	699
50	3024
51	4457
53	258
54	125
55	80
56	97
60	266
61	828
62	1132
63	1670
64	650
65	231
69	295
70	91
71	97
72	155
73	735
74	901
75	2180
76	2278
77	4444
78	1179
79	98
84	483
85	336
86	335
87	326
88	273
89	881
90	114
97	164
98	101
99	381
100	177
101	134
102	1412
103	569
104	2238
105	267
106	60
110	71
111	278
112	1832
113	559
114	696
115	154
123	70
124	90
125	292
126	61
127	90
132	6854
133	586
134	72
138	6066
139	3579
140	2237
141	1053
142	127
166	949
167	9999
168	1219
169	3262
170	344
