Mass Spectrum: Benzeneacetic acid, 2-nitro-
Formula: C8 H7 N O4
CAS: 3740-52-1
Molecular weight: 181
Origin: RADIAN CORP
m/z	RELATIVE INTENSITY
16	30
17	50
18	150
26	90
27	360
28	520
29	460
30	850
31	60
32	110
35	10
36	60
37	260
38	690
39	2590
40	340
41	550
42	160
43	440
44	2120
45	1780
46	190
47	30
48	10
49	130
50	1640
51	3210
52	1460
53	1110
54	140
55	460
56	110
57	260
58	30
59	30
60	250
61	490
62	1470
63	4090
64	2100
65	5790
66	770
67	230
68	110
69	320
70	90
71	150
72	20
73	320
74	590
75	520
76	890
77	9450
78	4630
79	3810
80	710
81	300
82	80
83	150
84	110
85	230
86	330
87	350
88	150
89	4380
90	1800
91	8780
92	1390
93	130
103	60
104	400
105	1400
106	290
107	1580
108	390
109	90
110	40
118	80
119	740
120	7770
121	1060
122	90
123	50
124	20
133	40
134	400
135	200
136	9999
137	1320
138	270
139	40
146	170
147	90
148	30
149	280
150	50
151	30
152	20
153	10
155	10
156	10
157	20
163	50
164	110
165	60
167	40
168	10
171	10
181	30
182	5
