Mass Spectrum: 1,3,2-Dioxathiolane, 2-oxide
Formula: C2 H4 O3 S
CAS: 3741-38-6
Molecular weight: 108
m/z	RELATIVE INTENSITY
26	230
27	230
28	671
29	9999
30	781
31	180
32	490
42	561
43	4624
44	2893
48	2853
49	230
50	2492
52	120
64	1231
65	2893
66	120
67	120
78	9559
79	230
107	120
108	2893
109	120
110	120
