Mass Spectrum: Acetic acid isopropylidene-hydrazide
Formula: C5 H10 N2 O
CAS: 3742-63-0
Molecular weight: 114
Origin: James Little,Eastman Chem.Co.,Kingsport,TN
m/z	RELATIVE INTENSITY
27	891
29	651
30	1902
39	1712
40	601
41	2262
42	1541
43	9999
44	320
53	90
54	941
55	5065
56	1171
57	9809
58	350
69	280
70	150
71	1231
72	7547
73	591
77	110
83	70
84	90
85	80
91	370
97	70
99	6085
100	390
105	190
114	5505
115	380
