Mass Spectrum: Vinylcyclopentane
Formula: C7 H12
CAS: 3742-34-5
Molecular weight: 96
m/z	RELATIVE INTENSITY
12	10
13	20
14	70
15	360
16	10
24	10
25	30
26	470
27	2542
28	661
29	581
30	10
31	10
32	10
36	20
37	140
38	390
39	3753
40	821
41	2532
42	490
43	50
44	20
45	30
46	20
48	10
49	30
50	240
51	440
52	240
53	1611
54	2983
55	1621
56	90
57	10
60	10
61	40
62	80
63	140
64	20
65	340
66	721
67	9999
68	3243
69	200
70	10
73	10
74	10
75	10
76	10
77	180
78	40
79	230
80	40
81	1722
82	110
83	10
85	10
86	10
87	10
89	10
90	10
91	60
92	10
93	20
94	10
95	340
96	1111
97	80
98	10
