Mass Spectrum: 1,2,4,5-Tetrazine, 1,4-dihydro-3,6-dimethyl-
Formula: C4 H8 N4
CAS: 37454-64-1
Molecular weight: 112
m/z	RELATIVE INTENSITY
25	90
26	950
27	1600
28	3600
29	300
30	190
38	150
39	300
40	800
41	1500
42	9999
43	800
44	270
55	140
56	560
57	130
69	550
70	230
83	200
84	2800
85	190
