Mass Spectrum: Butane, 1,1,2,3,4,4-hexachloro-1,2,3,4-tetrafluoro-
Formula: C4 Cl6 F4
CAS: 375-43-9
Molecular weight: 334
m/z	RELATIVE INTENSITY
28	601
31	540
32	170
35	90
36	40
37	30
40	10
43	10
47	250
48	20
49	80
50	20
55	130
59	20
62	20
63	20
64	30
65	10
66	190
67	10
68	60
69	460
70	10
71	70
72	10
73	20
74	180
75	10
78	120
79	10
80	40
82	240
83	10
84	160
85	2142
86	70
87	701
88	10
90	150
91	10
92	50
93	200
94	70
96	50
97	100
98	60
99	20
100	10
101	9999
102	140
103	6356
104	80
105	1051
106	60
107	10
108	20
109	510
110	20
111	170
113	80
115	50
116	50
117	1551
118	30
119	1521
120	20
121	500
123	60
124	10
125	200
126	10
127	130
128	10
129	50
131	30
132	741
133	80
134	480
135	490
136	80
137	160
140	20
141	20
142	10
143	20
144	10
145	10
147	20
148	130
149	10
150	130
151	2973
152	110
153	1912
154	50
155	320
156	10
159	40
161	20
163	621
164	80
165	400
166	90
167	1541
168	80
169	2102
170	60
171	681
172	30
173	70
175	30
177	20
179	470
181	450
183	350
185	360
187	130
189	30
193	20
194	30
195	10
196	40
197	90
198	40
199	80
200	50
201	30
202	20
204	10
206	10
213	60
214	40
215	70
217	30
228	50
230	50
232	90
234	100
236	50
238	10
247	40
249	60
251	40
253	10
264	10
267	20
268	10
299	130
301	210
303	140
305	50
307	10
