Mass Spectrum: Perfluorononanoic acid
Formula: C9 H F17 O2
CAS: 375-95-1
Molecular weight: 464
Origin: NIST Mass Spectrometry Data Center, 2010
m/z	RELATIVE INTENSITY
17	10
18	30
20	10
27	10
28	30
29	30
31	150
32	10
35	40
36	210
37	20
38	70
41	10
42	10
43	10
44	70
45	2953
46	30
47	40
50	100
51	450
52	10
55	10
60	10
62	20
63	10
67	180
69	3843
70	40
71	10
73	10
74	30
75	10
77	10
78	40
79	10
81	110
82	30
85	10
89	10
90	10
93	340
94	10
95	350
96	10
97	410
98	20
100	1722
101	70
105	10
106	40
109	180
110	10
112	120
113	30
117	110
119	1972
120	40
122	10
124	30
126	10
129	20
131	9999
132	300
137	30
140	10
143	120
147	80
150	90
151	20
155	10
157	10
159	10
162	170
163	10
167	10
169	1171
170	40
181	1271
182	50
193	90
194	10
195	40
197	10
200	10
201	10
209	10
212	10
219	220
220	10
231	841
232	50
243	30
245	10
247	10
269	160
270	10
281	390
282	20
293	10
295	10
297	10
319	10
331	60
381	130
382	10
400	10
419	20
445	250
446	20
