Mass Spectrum: Heptafluorobutyryl chloride
Formula: C4 Cl F7 O
CAS: 375-16-6
Molecular weight: 232
Origin: NIST Mass Spectrometry Data Center
m/z	RELATIVE INTENSITY
12	60
16	10
18	10
19	30
20	30
24	20
28	310
29	10
31	3053
32	30
35	661
36	40
37	200
40	10
43	110
47	140
50	1501
51	20
52	10
55	60
63	5275
65	1661
66	60
69	9999
70	110
71	80
74	100
75	100
78	160
81	260
85	1872
87	571
89	10
90	20
93	190
97	30
100	1972
101	40
109	350
110	10
112	10
116	40
119	1111
120	20
131	70
135	70
137	30
147	20
149	10
150	40
169	4164
170	130
185	450
186	20
187	140
197	591
198	20
