Mass Spectrum: Butanal, heptafluoro-
Formula: C4 H F7 O
CAS: 375-02-0
Molecular weight: 198
Origin: G.O.PRITCHARD UNIV.OF CALIFORNIA SANTA BARBARA CALIFORNIA USA
m/z	RELATIVE INTENSITY
12	70
13	40
15	270
19	10
20	20
24	20
25	10
28	310
29	9999
31	1470
32	170
43	40
44	70
50	290
51	1510
63	40
69	3030
78	10
79	130
81	70
82	50
100	1260
101	50
119	200
131	220
150	590
169	200
