Mass Spectrum: Butane, 2,2,3,3-tetrachloro-1,1,1,4,4,4-hexafluoro-
Formula: C4 Cl4 F6
CAS: 375-34-8
Molecular weight: 302
Origin: DOW CHEMICAL COMPANY / ASTM E14-UNCERTIFIED SPECTRUM 93
m/z	RELATIVE INTENSITY
14	9
16	2
17	2
18	10
24	5
28	362
29	5
31	244
32	83
35	80
36	26
37	26
38	6
39	3
40	7
41	2
42	2
43	26
44	8
45	10
47	128
48	2
49	44
50	56
51	7
55	100
56	3
58	2
59	34
61	12
62	13
63	3
66	46
67	3
68	16
69	4373
70	52
71	11
72	5
73	5
74	209
75	10
77	6
78	51
79	3
80	16
81	1
82	78
83	8
84	51
85	2238
86	35
87	709
88	7
89	3
90	47
92	16
93	455
94	131
95	3
96	78
97	22
98	14
99	7
101	1207
102	16
103	782
104	15
105	129
106	3
109	400
110	14
111	133
112	28
113	20
115	13
116	20
117	18
118	9
119	17
121	5
124	27
125	19
127	11
128	20
129	185
130	11
131	184
132	48
133	58
134	27
135	81
136	3
137	24
139	2
140	2
141	2
143	18
144	3
145	3
146	2
147	340
148	36
149	111
150	38
151	9999
152	236
153	6399
154	145
155	1015
156	24
159	4
161	3
162	3
163	640
164	83
165	413
166	95
167	88
168	40
169	19
170	7
171	5
177	3
178	2
179	193
180	8
181	186
182	26
183	62
184	15
185	8
186	2
194	12
196	93
197	91
198	34
199	84
200	5
201	26
202	2
203	4
204	3
205	2
213	37
215	24
216	3
217	8
218	3
219	4
229	17
231	16
232	84
233	460
234	68
235	573
236	29
237	275
238	12
239	58
240	5
241	4
267	18
269	16
271	4
273	4
275	6
277	3
279	2
283	6
285	9
287	3
302	3
304	4
306	2
