Mass Spectrum: Acebutolol
Formula: C18 H28 N2 O4
CAS: 37517-30-9
Molecular weight: 336
Origin: Finnigan MAT: Toxicological Library (LIBR-TX)
m/z	RELATIVE INTENSITY
27	1504
30	4565
41	2353
42	786
43	6100
56	3659
57	712
71	973
72	9999
73	404
80	288
82	319
98	2183
100	681
106	311
107	215
108	213
114	202
116	199
133	512
135	1795
136	902
150	196
151	3373
152	294
205	412
218	105
221	2636
222	306
