Mass Spectrum: Benzo[b]thiophene-2-carboxaldehyde, 7-methyl-,
Formula: C10 H8 O S
CAS: 3751-76-6
Molecular weight: 176
Origin: Japan AIST/NIMC Database- Spectrum MS-IW-4471
m/z	RELATIVE INTENSITY
27	10
28	10
37	10
38	20
39	80
45	159
50	60
51	109
52	20
53	20
58	10
59	10
60	10
61	40
62	90
63	199
64	20
65	30
69	299
70	30
71	30
72	20
73	70
74	159
75	99
76	60
77	349
78	40
81	30
82	50
83	10
84	10
85	20
86	40
87	109
88	70
89	99
90	10
93	99
94	20
95	40
96	10
97	30
98	20
99	10
101	60
102	269
103	529
104	50
105	10
106	20
107	10
108	20
113	30
114	20
115	249
116	20
117	20
119	20
120	20
121	329
122	30
123	10
132	30
145	219
146	119
147	3659
148	749
149	219
150	30
175	8669
176	9999
177	1599
178	549
179	50
