Mass Spectrum: 4-Decylaniline
Formula: C16 H27 N
CAS: 37529-30-9
Molecular weight: 233
Origin: Japan AIST/NIMC Database- Spectrum MS-NW-7460
m/z	RELATIVE INTENSITY
27	109
28	109
29	199
30	30
39	99
40	10
41	249
42	40
43	179
44	20
50	10
51	30
52	30
53	40
54	30
55	99
56	20
57	40
63	20
64	10
65	70
66	30
67	20
69	20
71	10
76	10
77	219
78	109
79	129
80	40
89	30
90	10
91	70
92	80
93	99
94	50
95	10
102	10
103	30
104	50
105	60
106	9999
107	869
108	40
115	20
117	30
118	60
119	159
120	109
121	10
130	20
131	10
132	90
133	30
134	10
144	10
147	10
148	10
231	10
232	10
233	1379
234	259
235	30
