Mass Spectrum: 3H-1,2,4-Triazole-3-thione,2,4-dihydro-2,4,5-trimethyl-
Formula: C5 H9 N3 S
CAS: 37526-42-4
Molecular weight: 143
Origin: James Little,Eastman Chem.Co.,Kingsport,TN
m/z	RELATIVE INTENSITY
27	190
29	100
30	220
40	290
41	360
42	1842
43	430
45	420
46	210
54	130
55	180
56	851
58	240
59	230
69	5035
70	731
72	601
73	661
74	5575
76	300
84	70
85	60
86	60
98	60
102	100
110	180
128	60
129	20
142	951
143	9999
144	971
145	581
146	50
