Mass Spectrum: Ethane, 1,2-dicyclopropyl-
Formula: C8 H14
CAS: 37520-11-9
Molecular weight: 110
Origin: D.HENNEBERG, MAX-PLANCK INSTITUTE, MULHEIM, WEST GERMANY
m/z	RELATIVE INTENSITY
26	279
27	4579
28	3079
29	5039
38	249
39	5569
40	609
41	8049
42	459
43	149
44	39
50	200
51	400
52	219
53	2000
54	7709
55	8100
56	449
65	249
66	279
67	9999
68	2179
69	1349
70	9
77	159
78	9
79	279
80	49
81	2679
82	2409
83	89
95	349
