Mass Spectrum: p-Heptylaniline
Formula: C13 H21 N
CAS: 37529-27-4
Molecular weight: 191
Origin: Chuck Anderson, Aldrich Chemical Co.
m/z	RELATIVE INTENSITY
26	9
27	127
28	72
29	133
30	30
36	38
38	18
39	108
40	15
41	169
42	33
43	109
44	8
50	10
51	49
52	49
53	59
54	34
55	46
57	2
63	31
64	14
65	118
66	51
67	24
76	5
77	403
78	169
79	174
80	49
89	40
90	15
91	100
92	102
93	111
94	34
102	10
103	40
104	85
106	9999
107	741
108	31
115	28
116	10
117	50
118	102
119	160
120	63
121	2
130	28
131	12
132	105
133	19
191	1035
192	132
193	8
