Mass Spectrum: p-Nonylaniline
Formula: C15 H25 N
CAS: 37529-29-6
Molecular weight: 219
Origin: NIST Mass Spectrometry Data Center, 1994
m/z	RELATIVE INTENSITY
15	12
17	3
18	23
27	483
28	257
29	670
30	83
32	6
37	4
39	328
40	61
41	840
42	125
43	461
44	18
50	18
51	91
52	86
53	127
54	76
55	147
56	26
57	73
58	6
62	7
63	47
64	22
65	170
66	80
67	42
68	7
69	18
70	4
71	10
75	9
77	500
78	238
79	320
80	92
81	9
89	50
90	21
91	129
92	109
93	141
94	53
95	9
101	6
102	17
103	62
104	99
105	6
106	9999
107	855
108	43
115	36
116	12
117	59
118	126
119	266
120	124
121	12
128	4
129	5
130	35
131	20
132	91
133	29
134	11
144	6
146	5
147	9
217	5
219	655
220	118
221	10
