Mass Spectrum: 2-Chlorocinnamic acid
Formula: C9 H7 Cl O2
CAS: 3752-25-8
Molecular weight: 182
Origin: Japan AIST/NIMC Database- Spectrum MS-NW-2651
m/z	RELATIVE INTENSITY
14	60
15	10
16	40
17	10
18	40
26	40
27	99
28	119
29	50
31	20
32	30
35	10
36	60
37	60
38	80
39	189
40	40
41	30
42	10
43	40
44	159
45	149
49	70
50	469
51	999
52	119
53	30
54	10
55	20
57	20
59	40
60	20
61	80
62	129
63	259
64	50
65	219
66	10
68	50
69	50
71	20
72	20
73	159
74	359
75	1179
76	369
77	479
78	50
79	30
81	10
82	50
83	20
84	30
85	60
86	40
87	40
88	10
89	149
90	99
91	2269
92	179
93	10
95	10
97	30
98	50
99	70
100	70
101	1799
102	979
103	2279
104	199
105	30
109	10
110	10
111	70
112	40
113	30
114	10
117	10
118	60
119	50
121	10
123	20
125	119
126	10
127	40
128	20
129	20
130	30
131	10
133	10
134	40
135	10
136	309
137	559
138	169
139	229
140	30
141	20
146	20
147	9999
148	1009
149	129
150	10
153	10
161	30
163	10
164	10
165	199
166	30
167	70
168	10
181	40
182	1109
183	119
184	389
185	40
