Mass Spectrum: Benzyl tiglate
Formula: C12 H14 O2
CAS: 37526-88-8
Molecular weight: 190
Origin: NIST Mass Spectrometry Data Center
m/z	RELATIVE INTENSITY
13	10
17	10
18	10
26	120
27	1531
28	290
29	1411
30	20
37	50
38	260
39	2212
40	200
41	360
42	30
43	180
44	20
50	480
51	1161
52	350
53	771
54	390
55	3853
56	310
57	20
61	20
62	150
63	540
64	200
65	2132
66	130
67	20
69	150
70	30
71	10
75	50
76	90
77	961
78	230
79	781
80	60
83	5475
84	550
85	40
87	10
89	661
91	9999
92	861
93	30
99	20
103	10
105	230
107	661
108	80
112	40
115	30
116	30
117	220
118	30
121	90
122	10
128	50
129	450
130	90
131	160
132	10
134	20
143	90
145	2522
146	330
147	180
148	10
157	210
158	20
161	30
172	2122
173	270
174	30
175	110
176	10
190	390
191	60
