Mass Spectrum: 2,3-Dihydro-4-methyl-8-nitro-1H-1,5-benzodiazepin-2-one
Formula: C10 H9 N3 O3
CAS: 37546-88-6
Molecular weight: 219
Origin: Institute of Organic Chemistry, Novosibirsk, USSR 1988
m/z	RELATIVE INTENSITY
51	119
52	99
53	229
57	119
63	379
77	419
78	299
90	549
91	269
104	369
118	99
119	669
120	119
130	609
131	2259
132	459
147	3639
148	429
149	99
175	209
176	1409
177	9999
178	1379
179	239
219	2729
220	369
