Mass Spectrum: 2,3-Dihydro-4-methyl-7-nitro-1H-1,5-benzodiazepin-2-one
Formula: C10 H9 N3 O3
CAS: 37546-86-4
Molecular weight: 219
Origin: Institute of Organic Chemistry, Novosibirsk, USSR 1988
m/z	RELATIVE INTENSITY
51	119
53	129
57	119
61	119
63	1189
64	119
77	789
78	1029
79	159
90	1289
91	299
105	659
106	559
107	99
130	589
131	4769
132	329
133	559
144	329
145	299
146	139
147	1719
176	489
177	9999
178	1359
179	209
219	3859
220	529
