Mass Spectrum: Benzo(a)pyrene 4,5-oxide
Formula: C20 H12 O
CAS: 37574-47-3
Molecular weight: 268
Origin: DKFZ HD SIMS, HEIDELBERG, GERMANY, F.R.G.
m/z	RELATIVE INTENSITY
50	369
51	461
52	569
53	53
54	50
55	507
56	553
57	56
58	7
59	6
60	10
61	20
62	33
63	323
64	384
65	353
66	7
67	32
68	16
69	215
70	21
71	21
72	6
73	50
74	184
75	123
76	169
77	753
78	330
79	26
80	33
86	35
87	52
88	16
89	12
91	9
92	10
93	44
94	50
95	9
96	3
97	7
98	32
99	60
100	52
101	16
103	4
104	3
105	64
106	153
107	107
108	4
109	7
110	29
111	107
112	200
113	261
114	7
115	7
117	50
118	338
119	815
120	600
121	15
122	23
123	55
124	246
125	338
126	415
127	13
128	3
129	3
132	3
133	61
134	1076
135	63
136	10
137	13
138	7
139	10
140	3
141	13
146	10
147	9
148	4
149	30
150	23
151	9
152	3
153	4
155	18
158	6
159	4
161	24
162	16
163	24
164	7
165	3
167	6
169	9
170	3
171	3
172	3
173	6
174	26
175	9
176	9
179	15
180	3
181	20
182	4
183	4
185	41
186	38
187	107
188	35
189	36
190	6
191	3
193	4
195	6
197	107
198	43
199	35
200	56
201	15
202	13
203	3
205	4
207	6
209	36
210	38
211	153
212	73
213	123
214	27
215	9
216	3
218	3
219	13
220	4
221	13
222	52
223	50
224	138
225	78
226	86
227	16
228	7
229	4
233	20
234	38
235	215
236	215
237	1123
238	661
239	4153
240	1123
241	123
242	15
243	13
244	3
245	6
246	35
247	41
248	215
249	153
250	738
251	276
252	2923
253	661
254	83
265	10
266	40
267	184
268	9999
269	2153
270	323
271	38
