Mass Spectrum: Perfluoroeicosane
Formula: C20 F42
CAS: 37589-57-4
Molecular weight: 1038
Origin: Japan AIST/NIMC Database- Spectrum MS-IW- 46
m/z	RELATIVE INTENSITY
31	90
50	30
69	9999
70	159
81	30
93	90
100	719
101	10
112	40
119	3559
120	70
124	10
131	4149
132	129
143	70
150	50
155	10
162	129
169	5749
170	179
181	1739
182	70
193	99
200	10
212	10
219	4849
220	199
231	1399
232	70
243	30
250	10
269	2859
270	149
281	859
282	50
300	10
319	1569
320	99
331	469
332	30
350	10
369	729
370	50
381	269
382	20
419	339
420	20
431	149
432	10
469	159
470	10
481	90
519	90
520	10
531	50
569	60
581	30
619	40
631	20
669	30
681	20
719	20
731	10
769	10
931	50
