Mass Spectrum: Acetic acid, dichloro-, propyl ester
Formula: C5 H8 Cl2 O2
CAS: 37587-81-8
Molecular weight: 170
Origin: V.G.Zaikin, Petrochem. Synth. Inst., Moscow
m/z	RELATIVE INTENSITY
26	120
27	1491
28	240
29	390
30	70
31	150
35	90
36	190
37	70
38	150
39	691
40	100
41	2692
42	811
43	9999
44	320
45	60
47	180
48	490
49	100
50	280
51	280
52	410
53	50
57	120
59	100
76	581
78	210
79	550
82	50
83	1261
84	30
85	981
87	100
111	320
113	280
115	100
141	100
143	60
145	10
