Mass Spectrum: Dichloroacetic acid 3-methylbutyl ester
Formula: C7 H12 Cl2 O2
CAS: 37587-83-0
Molecular weight: 198
Origin: V.Zaikin,Topchiev Inst.Petrochem.Synth.,Moscow
m/z	RELATIVE INTENSITY
26	90
27	741
28	180
29	1181
35	60
36	340
38	110
39	701
40	120
41	2442
42	1311
43	9999
44	190
47	80
48	290
49	100
50	50
51	70
52	100
53	180
54	120
55	5645
56	410
57	1211
58	60
67	50
69	520
70	4024
71	5175
72	260
73	90
76	711
77	80
78	240
79	170
83	1782
84	100
85	1091
86	60
87	180
93	50
94	70
111	340
113	280
115	80
128	851
129	400
130	561
131	260
132	100
142	140
144	90
155	360
156	190
157	250
158	180
