Mass Spectrum: 4,4'-Dipentylazoxybenzene
Formula: C22 H30 N2 O
CAS: 37592-87-3
Molecular weight: 338
Origin: NIST Mass Spectrometry Data Center, 1994
m/z	RELATIVE INTENSITY
17	12
18	90
27	1043
28	227
29	2909
30	62
32	47
39	694
41	3351
42	206
43	1565
44	54
50	121
51	435
52	149
53	215
54	60
55	733
56	70
57	480
58	26
62	38
63	248
64	214
65	1172
66	124
67	297
68	26
69	407
70	43
71	175
75	45
76	132
77	1775
78	1035
79	1307
80	159
81	177
82	25
89	877
90	1962
91	9999
92	926
93	538
94	74
95	124
102	144
103	685
104	672
105	1368
106	598
107	415
108	90
115	428
116	201
117	501
118	277
119	196
120	144
121	92
127	51
128	96
129	102
130	116
131	127
132	261
133	98
134	31
135	35
140	18
141	97
142	30
143	40
144	32
145	129
146	18
147	8271
148	1052
149	79
151	121
152	71
153	86
154	74
155	215
156	53
157	25
160	44
161	176
162	67
163	155
164	36
165	129
166	81
167	90
168	98
169	334
170	73
171	31
174	123
175	733
176	123
177	187
178	102
179	64
180	112
181	167
182	100
183	335
184	106
191	71
192	43
193	63
194	132
195	121
196	67
197	281
198	50
202	33
207	51
208	36
209	45
210	39
211	67
212	21
224	29
225	120
226	74
237	46
239	1035
240	241
241	41
253	1282
254	633
255	115
265	66
266	23
267	177
268	58
281	290
282	57
295	40
309	122
310	78
322	267
323	64
338	3650
339	923
340	141
