Mass Spectrum: 4,4'-Diheptylazoxybenzene
Formula: C26 H38 N2 O
CAS: 37592-89-5
Molecular weight: 394
Origin: NIST Mass Spectrometry Data Center, 1994
m/z	RELATIVE INTENSITY
27	212
29	726
39	258
41	1542
42	153
43	2399
44	60
51	111
52	42
53	111
54	42
55	974
56	88
57	615
58	41
63	59
64	75
65	470
66	68
67	146
69	99
71	95
76	63
77	664
78	393
79	448
80	79
81	111
89	347
90	1028
91	9999
92	862
93	234
94	45
95	63
102	61
103	397
104	359
105	818
106	515
107	246
108	60
115	242
116	110
117	294
118	150
119	172
120	99
121	60
128	62
129	66
130	69
131	228
132	173
133	66
134	42
141	44
145	42
146	66
155	106
165	75
166	46
167	55
169	162
173	79
175	649
176	125
179	79
180	103
181	102
182	61
183	198
184	61
190	47
191	119
194	67
195	72
196	60
197	261
198	65
202	74
203	275
204	58
205	90
209	41
253	63
265	40
267	688
268	157
281	830
282	453
283	68
293	92
295	148
296	54
309	212
310	62
351	46
365	86
366	96
377	49
378	441
379	141
393	314
394	2531
395	807
396	98
