Mass Spectrum: o-Tolunitrile, .alpha.-cyano-
Formula: C9 H6 N2
CAS: 3759-28-2
Molecular weight: 142
Origin: N M M. NIBBERING
m/z	RELATIVE INTENSITY
27	200
37	200
38	200
39	500
50	400
51	300
52	100
61	200
62	400
63	400
64	300
65	100
74	100
75	400
76	300
87	200
88	700
89	300
90	100
102	100
113	100
114	1000
115	3600
116	500
141	1000
142	9999
143	1100
