Mass Spectrum: Cyclopentane, decafluoro-
Formula: C5 F10
CAS: 376-77-2
Molecular weight: 250
m/z	RELATIVE INTENSITY
12	10
19	10
31	1561
43	10
50	390
55	60
62	100
69	1501
74	190
81	150
86	10
93	871
98	10
100	2292
105	20
112	130
117	10
119	20
124	60
131	9999
143	60
150	40
155	10
162	100
181	1421
193	10
212	10
231	440
250	40
