Mass Spectrum: 1-Pyrrolidinecarboxaldehyde
Formula: C5 H9 N O
CAS: 3760-54-1
Molecular weight: 99
Origin: NIST Mass Spectrometry Data Center, 1994
m/z	RELATIVE INTENSITY
13	80
14	279
15	1705
16	21
17	50
18	178
26	901
27	2972
28	6482
29	3876
30	1176
31	49
36	36
37	314
38	633
39	3097
40	1245
41	4466
42	7080
43	9999
44	711
49	54
50	123
51	97
52	114
53	163
54	240
55	384
56	837
57	69
58	289
68	840
70	3339
71	6096
72	225
98	1347
99	7251
100	438
