Mass Spectrum: 1,5-Cyclooctadiene, 1,5-dimethyl-
Formula: C10 H16
CAS: 3760-14-3
Molecular weight: 136
Origin: NIST Mass Spectrometry Data Center, 1990.
m/z	RELATIVE INTENSITY
14	40
15	168
27	3344
28	1178
29	1155
32	72
39	4862
40	1704
41	3882
42	676
43	307
50	508
51	1480
52	819
53	4327
54	390
55	1061
62	149
63	522
65	1302
67	9999
68	8780
69	628
75	87
77	2318
78	775
79	6040
80	1267
81	4087
82	341
89	111
91	2508
93	6411
94	2591
95	1323
103	210
104	112
105	656
106	111
107	2356
108	2460
109	213
115	168
119	161
121	3426
122	340
136	2096
137	253
