Mass Spectrum: Ethanone, 1-(3-chloro-4-methoxyphenyl)-
Formula: C9 H9 Cl O2
CAS: 37612-52-5
Molecular weight: 184
m/z	RELATIVE INTENSITY
41	30
42	60
43	1491
44	180
45	20
47	20
48	10
49	60
50	340
51	380
52	70
53	130
54	10
55	30
56	20
57	10
60	20
61	150
62	350
63	1281
64	110
65	50
66	30
69	10
71	10
72	90
73	170
74	340
75	621
76	260
77	1581
78	270
79	40
81	30
84	80
85	70
86	60
87	60
88	10
89	80
90	30
91	170
92	30
93	10
96	20
97	110
98	430
99	140
100	150
101	40
102	10
103	30
104	80
105	80
106	40
107	10
108	10
109	20
110	100
111	971
112	130
113	460
114	50
115	60
118	30
119	170
120	30
121	10
123	10
125	40
126	1231
127	120
128	390
129	40
133	20
135	40
138	40
139	70
140	30
141	1091
142	100
143	340
144	30
145	10
147	10
150	10
153	10
154	170
155	70
156	60
157	20
167	10
169	9999
170	911
171	8638
172	290
173	50
175	10
184	3373
185	340
186	1131
187	110
188	20
