Mass Spectrum: Methyl 1-methylpyrrole-2-carboxylate
Formula: C7 H9 N O2
CAS: 37619-24-2
Molecular weight: 139
Origin: NIST Mass Spectrometry Data Center
m/z	RELATIVE INTENSITY
12	20
13	40
14	80
15	1672
17	10
18	40
25	40
26	260
27	921
28	80
29	611
30	240
37	400
38	901
39	3503
40	260
41	230
42	561
45	220
49	120
50	520
51	701
52	901
53	3433
54	480
55	190
56	10
59	20
62	10
63	80
64	330
65	180
66	210
67	90
68	40
69	70
75	30
76	40
78	540
79	500
80	2192
81	891
82	80
93	100
94	721
95	70
96	90
97	30
106	280
108	9999
109	751
110	50
124	130
125	10
139	5335
140	440
141	30
