Mass Spectrum: 1-Methylcycloheptanol
Formula: C8 H16 O
CAS: 3761-94-2
Molecular weight: 128
Origin: NIST Mass Spectrometry Data Center, 1990.
m/z	RELATIVE INTENSITY
15	351
18	122
26	155
27	1385
28	975
29	908
31	234
39	1790
40	403
41	2420
42	668
43	4555
44	187
45	416
50	114
51	291
52	127
53	706
54	550
55	1055
56	346
57	687
58	2802
59	676
65	202
67	1936
68	1381
69	809
71	9999
72	943
77	206
79	301
80	126
81	846
82	567
85	1183
86	415
91	104
93	148
95	1942
96	165
99	310
110	534
111	103
113	1640
114	124
128	121
