Mass Spectrum: Ethyl 4-pyrazolecarboxylate
Formula: C6 H8 N2 O2
CAS: 37622-90-5
Molecular weight: 140
Origin: Chuck Anderson, Aldrich Chemical Co.
m/z	RELATIVE INTENSITY
14	34
15	85
18	9
26	94
27	447
28	616
29	746
30	45
31	47
36	63
37	180
38	737
39	1432
40	954
41	175
42	88
43	122
44	69
45	230
52	45
53	138
65	30
66	59
67	364
68	677
69	50
94	42
95	9999
96	729
97	156
112	2395
113	138
114	10
125	92
140	1041
141	78
