Mass Spectrum: Aprindine
Formula: C22 H30 N2
CAS: 37640-71-4
Molecular weight: 322
Origin: Tox21 Consortium/NIST Mass Spectrometry Data Center, 2012
m/z	RELATIVE INTENSITY
15	10
18	10
26	10
27	100
28	210
29	380
30	731
31	10
38	10
39	160
40	20
41	260
42	661
43	210
44	280
45	10
50	40
51	280
52	60
53	40
54	80
55	80
56	1161
57	520
58	2102
59	110
62	20
63	120
64	40
65	270
66	60
67	20
68	60
69	50
70	761
71	1071
72	1361
73	80
74	100
75	40
76	80
77	1982
78	440
79	320
80	30
82	30
84	2172
85	1181
86	9999
87	621
88	40
89	200
90	70
91	1832
92	230
93	120
94	60
95	10
96	30
98	6476
99	611
100	761
101	90
102	140
103	480
104	2162
105	1131
106	2362
107	260
108	60
109	40
111	20
113	8828
114	881
115	4034
116	6656
117	6055
118	911
119	751
120	550
121	60
122	10
126	10
127	40
128	170
129	210
130	711
131	220
132	1351
133	1692
134	771
135	90
136	10
139	10
140	10
141	40
142	40
143	70
144	781
145	210
146	180
147	30
148	10
151	10
152	30
154	170
155	20
156	70
157	50
158	1291
159	160
160	30
161	50
162	20
163	10
164	10
165	80
166	40
167	30
168	10
170	10
172	40
173	10
174	20
175	10
176	20
177	20
178	70
179	40
180	20
181	20
182	10
188	10
189	190
190	40
191	40
192	70
193	180
194	50
195	10
202	10
203	40
204	70
205	100
206	1692
207	430
208	210
209	290
210	60
211	10
216	10
217	30
218	40
219	30
220	420
221	170
222	681
223	240
224	30
232	10
233	10
234	290
235	70
236	130
237	30
244	10
245	10
246	20
247	30
248	240
249	961
250	210
251	40
293	10
320	40
321	10
322	230
323	60
324	10
