Mass Spectrum: Fenobucarb
Formula: C12 H17 N O2
CAS: 3766-81-2
Molecular weight: 207
Origin: Japan AIST/NIMC Database- Spectrum MS-IW-3498
m/z	RELATIVE INTENSITY
15	99
27	119
28	109
29	99
30	20
38	10
39	209
40	20
41	119
43	20
50	40
51	149
52	50
53	90
55	159
56	50
57	109
58	309
62	10
63	80
64	30
65	209
66	40
67	10
74	10
75	20
76	20
77	699
78	119
79	99
89	50
90	20
91	739
92	99
93	199
94	70
95	50
101	20
102	70
103	669
104	70
105	90
106	10
107	719
108	60
115	139
116	40
117	50
118	10
119	80
120	109
121	9999
122	899
123	50
128	10
129	10
131	20
132	10
133	50
134	50
135	239
136	20
148	10
149	20
150	3099
151	339
152	20
176	20
178	10
207	70
208	10
