Mass Spectrum: 2,7-Dimethyl-2,6-octadien-4-ol
Formula: C10 H18 O
CAS: 37665-99-9
Molecular weight: 154
Origin: W.Epstein ET AL.J.Chem.Eng.Data,21,500(1976)
m/z	RELATIVE INTENSITY
41	3813
42	230
43	1672
51	320
52	130
53	681
54	130
55	1611
56	190
57	1631
65	490
67	1331
69	611
70	1041
77	420
79	490
80	190
81	130
83	420
85	9999
86	490
91	510
92	150
93	701
105	230
121	300
136	230
137	20
154	20
