Mass Spectrum: Benzene,2-cyclopenten-1-yl-
Formula: C11 H12
CAS: 37689-22-8
Molecular weight: 144
Origin: S.A. Rang et al., IR & MS of Unsatd. Hydrocarbons, 1977
m/z	RELATIVE INTENSITY
15	29
25	6
26	72
27	473
28	107
29	34
30	3
31	10
37	27
38	130
39	1964
40	387
41	849
42	48
43	27
44	68
45	8
46	3
47	3
48	3
49	11
50	637
51	2017
52	473
53	215
54	19
55	21
56	14
57	72
58	157
59	10
60	3
61	29
62	230
63	1009
64	330
65	1592
66	2527
67	955
68	59
69	68
70	201
71	743
72	90
73	11
74	187
75	258
76	316
77	1380
78	637
79	129
80	16
81	10
82	5
83	5
84	3
85	11
86	59
87	113
88	90
89	637
90	108
91	1539
92	130
93	27
94	10
95	14
96	3
97	3
98	19
99	18
100	11
101	81
102	637
103	849
104	215
105	59
106	11
107	6
108	3
109	3
110	6
111	10
112	6
113	99
114	135
115	3570
116	849
117	402
118	59
119	10
125	32
126	90
127	1168
128	5053
129	9167
130	955
131	54
138	16
139	212
140	63
141	1115
142	584
143	7500
144	9999
145	1115
146	265
