Mass Spectrum: Aniline, TMS derivative
Formula: C9 H15 N Si
CAS: 3768-55-6
Molecular weight: 165
Origin: J.Little, Eastman Chem. Comp.,Kingsport
m/z	RELATIVE INTENSITY
43	450
44	160
45	380
51	120
53	100
58	140
59	280
65	240
67	190
68	190
73	871
75	1021
77	370
79	100
83	90
84	280
91	460
92	270
93	310
95	200
104	80
105	190
106	170
107	80
108	60
118	100
119	360
120	480
121	110
122	80
131	90
132	310
133	170
134	1091
135	230
136	70
146	180
148	781
150	9999
151	1792
152	490
153	40
160	10
162	30
165	5875
166	671
167	200
168	10
