Mass Spectrum: Cyclopentene,3-pentyl-
Formula: C10 H18
CAS: 37689-14-8
Molecular weight: 138
Origin: S.A. Rang et al., IR & MS of Unsatd. Hydrocarbons, 1977
m/z	RELATIVE INTENSITY
15	13
25	4
26	31
27	448
28	239
29	386
30	10
31	5
37	7
38	18
39	480
40	125
41	1433
42	159
43	319
44	25
45	7
46	1
49	2
50	21
51	86
52	65
53	284
54	182
55	446
56	68
57	77
58	10
59	2
60	2
61	1
62	5
63	27
64	9
65	284
66	1019
67	9999
68	669
69	108
70	62
71	35
72	7
73	4
74	2
75	6
76	3
77	216
78	55
79	382
80	250
81	310
82	1051
83	296
84	34
85	15
86	2
87	1
89	3
90	1
91	74
92	15
93	89
94	28
95	375
96	177
97	55
98	11
99	9
100	2
101	2
102	2
103	4
104	2
105	11
106	3
107	17
108	8
109	58
110	52
111	14
112	8
113	2
114	1
115	3
116	1
117	3
119	3
121	8
122	1
123	14
124	8
125	16
134	3
135	4
136	14
137	13
138	605
139	55
