Mass Spectrum: 1,1'-Biphenyl, 2,2',4,5,5'-pentachloro-
Formula: C12 H5 Cl5
CAS: 37680-73-2
Molecular weight: 324
Origin: T.L.Hayes, Battelle Columbus Laboratories, Columbus, OH 43221
m/z	RELATIVE INTENSITY
34	14
35	222
36	584
37	409
38	374
39	94
40	240
41	22
42	25
43	27
44	52
45	27
47	166
48	51
49	358
50	687
51	261
52	34
53	6
54	22
55	93
56	14
57	16
59	19
60	360
61	1267
62	751
63	235
64	6
66	79
67	133
68	26
70	13
71	100
72	465
73	2035
74	2570
75	957
76	83
77	11
78	292
79	514
80	129
81	41
82	34
83	150
84	843
85	1037
86	891
87	358
88	46
89	9
91	1114
92	2283
93	784
94	52
95	86
96	555
97	1046
98	1751
99	1014
100	104
101	25
102	30
103	59
104	25
105	31
106	31
107	319
108	849
109	4343
110	3390
111	1217
112	21
113	21
114	284
115	299
116	73
117	20
118	88
119	137
120	342
121	428
122	927
123	771
124	173
125	49
127	6200
128	5411
129	1815
130	259
131	169
132	395
133	609
134	367
135	320
136	79
137	95
138	6
141	7
142	38
143	103
144	1060
145	1472
146	1211
147	1033
148	780
149	890
150	145
151	7
154	39
155	19
156	108
157	240
158	266
159	224
160	104
161	71
162	1000
163	1566
164	1033
165	399
166	50
167	47
168	110
169	214
170	168
171	153
172	104
173	41
174	12
178	8
179	30
180	41
181	161
182	334
183	831
184	3453
185	673
186	1095
187	180
189	6
191	50
192	76
193	122
194	222
195	123
196	120
197	30
198	40
203	27
204	172
205	80
206	198
207	365
208	130
209	79
210	13
215	6
216	20
217	89
218	990
219	888
220	708
221	537
222	180
223	100
224	15
228	86
229	16
230	89
231	12
232	24
238	9
240	18
241	12
242	7
245	5
249	18
251	13
252	36
254	6543
255	934
256	6187
257	814
258	2011
259	264
260	223
261	17
265	29
267	10
268	13
269	13
271	7
277	6
279	11
281	110
282	42
283	21
288	122
289	1362
290	344
291	1753
292	312
293	855
294	129
295	184
296	19
297	25
316	6
324	6347
325	864
326	9999
327	1358
328	6508
329	856
330	2112
331	274
332	339
333	36
334	20
