Mass Spectrum: Cyclopentene, 3-(2-methylpropyl)-
Formula: C9 H16
CAS: 37689-12-6
Molecular weight: 124
Origin: S.A. Rang et al., IR & MS of Unsatd. Hydrocarbons, 1977
m/z	RELATIVE INTENSITY
25	2
26	38
27	822
28	78
29	515
30	12
31	2
37	9
38	45
39	1018
40	227
41	2074
42	159
43	705
44	24
45	12
46	3
49	2
50	41
51	164
52	111
53	433
54	169
55	340
56	190
57	822
58	35
59	3
61	2
62	8
63	44
64	14
65	319
66	1448
67	9999
68	1018
69	127
70	30
71	5
73	6
74	3
75	11
76	5
77	217
78	64
79	422
80	227
81	1331
82	900
83	132
84	8
85	2
87	2
89	3
90	2
91	64
92	11
93	29
94	8
95	148
96	38
97	3
103	3
104	2
105	6
106	2
107	12
108	3
109	412
110	42
111	2
122	3
123	8
124	939
125	90
126	3
