Mass Spectrum: Cyclopentene,3-hexyl-
Formula: C11 H20
CAS: 37689-18-2
Molecular weight: 152
Origin: S.A. Rang et al., IR & MS of Unsatd. Hydrocarbons, 1977
m/z	RELATIVE INTENSITY
15	8
25	5
26	23
27	367
28	251
29	521
30	6
37	6
38	15
39	463
40	99
41	1189
42	110
43	405
44	18
45	1
50	16
51	63
52	52
53	251
54	162
55	328
56	84
57	62
58	6
62	4
63	20
64	8
65	270
66	1189
67	9999
68	757
69	177
70	31
71	21
72	4
75	5
76	4
77	232
78	73
79	540
80	367
81	521
82	1459
83	347
84	57
85	25
86	4
89	4
91	84
92	16
93	104
94	42
95	540
96	251
97	36
98	7
99	3
103	4
104	2
105	8
106	3
107	13
108	8
109	104
110	99
111	18
112	5
113	4
115	2
117	2
119	2
121	10
122	8
123	72
124	46
125	10
126	2
127	1
137	15
150	28
151	13
152	637
153	73
154	8
