Mass Spectrum: 1,3-Dibenzoylbenzene
Formula: C20 H14 O2
CAS: 3770-82-9
Molecular weight: 286
Origin: NIST Mass Spectrometry Data Center, 1994
m/z	RELATIVE INTENSITY
18	11
27	29
28	3
32	7
37	13
38	30
39	102
50	785
51	2101
52	99
53	44
62	57
63	103
64	14
65	15
74	154
75	272
76	1130
77	6293
78	430
79	20
86	28
87	51
88	24
89	23
98	33
99	32
100	20
101	29
102	46
105	9999
106	744
107	42
111	14
113	26
115	13
125	21
126	87
127	53
150	110
151	236
152	559
153	284
154	32
163	19
179	19
181	1189
182	179
183	15
207	36
209	2266
210	337
211	36
226	20
229	20
239	17
240	28
241	21
257	71
258	80
259	16
267	42
268	74
269	14
286	2499
287	521
288	61
