Mass Spectrum: 1-Phenanthrenemethanol, 1,2,3,4,4a,9,10,10a-octahydro-1,4a-dimethyl-7-(1-methylethyl)-, [1R-(1.alpha.,4a.beta.,10a.alpha.)]-
Formula: C20 H30 O
CAS: 3772-55-2
Molecular weight: 286
Origin: NIST Mass Spectrometry Data Center
m/z	RELATIVE INTENSITY
39	70
41	971
42	80
43	1441
44	50
45	50
51	80
52	30
56	120
58	40
63	60
64	40
65	240
71	200
76	90
77	691
78	220
84	240
86	20
89	140
90	60
91	1561
92	260
98	200
99	460
102	80
103	170
104	80
105	731
106	120
112	540
113	70
114	20
115	1351
116	420
117	2152
118	260
119	370
120	90
127	490
128	1862
129	2322
130	400
131	2302
132	310
133	861
134	120
139	160
140	50
141	2322
142	1001
143	1832
144	270
145	811
146	140
147	581
148	110
152	530
153	851
154	611
155	1501
156	470
157	961
158	200
159	5115
160	741
161	200
166	320
167	611
168	300
169	1181
170	330
171	1191
172	240
173	6396
174	931
175	150
178	240
181	330
182	160
183	1161
184	290
185	2462
186	571
187	320
189	280
190	80
193	70
194	40
195	250
196	110
197	771
198	170
199	540
200	100
209	220
210	200
211	1842
212	430
213	1281
214	220
215	50
223	80
224	90
225	550
226	120
227	120
228	20
237	60
238	60
239	350
240	160
241	120
253	9999
254	2132
255	671
256	110
269	30
271	9038
272	1952
273	230
274	20
285	30
286	3593
287	801
288	90
