Mass Spectrum: Phenol, 2,3,5,6-tetrabromo-4-methyl-
Formula: C7 H4 Br4 O
CAS: 37721-75-8
Molecular weight: 420
Origin: NIST Mass Spectrometry Data Center, 1994
m/z	RELATIVE INTENSITY
14	155
15	212
18	89
25	128
26	205
27	277
28	378
29	353
32	112
36	274
37	1266
38	567
39	295
43	117
48	157
49	1070
50	2332
51	1503
52	268
53	679
55	213
60	524
61	826
62	274
63	139
67	129
72	229
73	1415
74	3729
75	3759
76	1277
77	1392
78	729
79	875
80	357
81	652
82	377
83	117
84	185
85	449
86	324
87	149
91	581
92	427
93	206
101	359
102	284
103	711
104	318
105	138
106	100
107	98
115	87
116	308
117	727
118	473
119	177
127	92
128	470
129	346
130	588
131	1312
132	422
133	909
139	320
140	153
141	334
142	145
152	248
153	688
154	946
155	1170
156	776
157	668
158	208
159	94
160	65
170	269
171	713
172	711
173	228
181	69
182	151
183	353
184	164
185	284
186	62
211	80
212	65
220	104
221	73
232	141
233	643
234	515
235	1167
236	784
237	589
238	366
261	645
262	294
263	1273
264	426
265	737
266	177
312	52
313	156
314	139
315	242
316	139
317	234
318	65
319	78
341	1754
342	604
343	5261
344	882
345	4957
346	583
347	1561
348	135
420	1684
421	135
422	6954
423	530
424	9999
425	790
426	6555
427	515
428	1630
429	129
