Mass Spectrum: Cyclopentane, 1-bromo-2-chloro-, cis-
Formula: C5 H8 Br Cl
CAS: 37722-39-7
Molecular weight: 182
Origin: J. M. PECHINE SOURCE NA4
m/z	RELATIVE INTENSITY
27	395
38	185
39	1175
40	205
41	2110
42	110
51	125
53	100
65	350
66	1150
67	9999
68	565
75	465
77	145
103	2500
104	140
105	795
106	175
108	120
182	440
183	565
184	105
