Mass Spectrum: 2-(tert-Butylamino)ethyl methacrylate
Formula: C10 H19 N O2
CAS: 3775-90-4
Molecular weight: 185
Origin: NIST Mass Spectrometry Data Center, 1992
m/z	RELATIVE INTENSITY
12	12
13	13
14	63
15	580
16	6
17	39
18	400
19	16
26	117
27	679
28	829
29	2023
30	9999
31	226
36	9
37	67
38	266
39	2566
40	732
41	6371
42	2865
43	1059
44	1223
45	139
46	5
50	12
51	25
52	31
53	114
54	112
55	347
56	685
57	2281
58	326
59	31
60	24
62	4
65	7
66	12
67	76
68	4
69	3645
70	755
71	489
72	88
73	9
74	5
78	6
79	3
80	10
81	17
82	103
83	3
84	2977
85	367
86	2678
87	152
88	11
96	9
97	10
99	1375
100	197
101	16
102	29
110	10
113	5978
114	383
115	31
125	4
126	3
128	33
129	3
130	6
142	5
170	3057
171	294
172	26
186	10
