Mass Spectrum: 2-n-Heptylfuran
Formula: C11 H18 O
CAS: 3777-71-7
Molecular weight: 166
Origin: Chuck Anderson, Aldrich Chemical Co.
m/z	RELATIVE INTENSITY
26	24
27	429
28	42
29	306
38	38
39	433
40	74
41	712
42	82
43	605
44	24
50	38
51	134
52	96
53	935
54	155
55	258
56	50
57	107
63	31
65	179
66	182
67	581
68	382
69	180
70	65
71	37
77	179
78	53
79	290
80	128
81	9999
82	2706
83	318
84	62
85	22
91	89
92	17
93	127
94	386
95	1862
96	306
97	76
98	38
105	64
106	33
107	148
108	52
109	804
110	274
111	26
119	110
120	20
122	199
123	672
124	147
125	16
133	28
135	7
137	201
138	22
151	23
166	991
167	109
