Mass Spectrum: Pentafluoropropanoic acid methyl ester
Formula: C4 H3 F5 O2
CAS: 378-75-6
Molecular weight: 178
Origin: NIST Mass Spectrometry Data Center
m/z	RELATIVE INTENSITY
12	30
13	50
15	9999
16	100
20	10
29	1231
30	230
31	1762
33	200
43	40
44	90
45	80
47	50
50	641
51	70
59	6426
60	140
61	30
62	20
65	70
69	3083
70	30
71	20
78	60
81	480
82	10
97	300
98	10
100	891
101	20
103	20
109	10
119	2542
120	50
128	40
129	10
131	300
132	10
147	160
149	70
177	10
