Mass Spectrum: Benz[a]acridine, 10-methyl-
Formula: C18 H13 N
CAS: 3781-67-7
Molecular weight: 243
Origin: N.P.BUU-HOI INSTITUT D'ULM 75-PARIS (VE) FRANCE
m/z	RELATIVE INTENSITY
108	250
113	120
114	200
120	190
121	420
126	750
214	320
215	450
216	290
227	340
228	180
240	750
241	1550
242	2600
243	9999
244	1970
