Mass Spectrum: Phenanthrene, 9-dodecyl-
Formula: C26 H34
CAS: 3788-61-2
Molecular weight: 346
Origin: GULF R. ' D. CO., PITTSBURGH, PA, USA
m/z	RELATIVE INTENSITY
17	13
18	46
20	4
25	2
26	17
27	337
28	371
29	770
30	17
37	1
38	3
39	98
40	7
41	655
42	85
43	667
44	23
50	3
51	7
52	2
53	24
54	9
55	274
56	29
57	95
58	5
62	2
63	8
64	1
65	5
66	1
67	17
68	4
69	82
70	10
71	14
74	12
75	19
76	14
77	25
78	6
79	13
80	4
81	21
82	9
83	61
84	9
85	15
86	6
87	15
88	16
89	20
90	2
91	10
92	3
93	5
94	9
95	24
96	12
97	20
98	7
99	7
100	10
101	35
102	14
103	4
104	1
105	2
106	1
107	5
108	10
109	6
110	3
111	8
112	4
113	11
114	7
115	33
116	5
117	2
119	1
120	1
121	2
122	3
123	3
124	1
125	5
126	15
127	15
128	12
129	4
131	1
135	2
136	1
137	6
138	6
139	44
140	7
141	11
142	1
149	7
150	32
151	67
152	92
153	15
154	3
158	4
159	3
161	5
162	11
163	78
164	54
165	947
166	141
167	15
168	3
174	15
175	30
176	162
177	128
178	600
179	377
180	59
181	10
186	17
187	43
188	103
189	943
190	514
191	9999
192	4677
193	643
194	54
195	5
197	7
198	5
199	9
200	39
201	57
202	383
203	536
204	621
205	435
206	75
207	8
208	1
213	19
214	10
215	147
216	64
217	216
218	89
219	59
220	13
221	3
224	2
225	2
226	8
227	5
228	19
229	25
230	12
231	17
232	13
233	13
234	3
239	4
240	2
241	4
242	1
243	2
244	1
245	2
246	11
247	4
248	1
252	2
253	1
259	1
260	18
261	6
262	1
265	1
267	1
274	22
275	6
276	2
288	7
289	5
290	5
302	6
303	4
304	5
305	1
316	4
317	3
318	4
319	1
330	2
331	2
332	2
336	1
340	2
341	2
342	5
343	5
344	99
345	69
346	5699
347	1649
348	231
349	24
350	3
352	3
