Mass Spectrum: 2,4,6(1H,3H,5H)-Pyrimidinetrione, 5-ethyl-5-(4-hydroxyphenyl)-
Formula: C12 H12 N2 O4
CAS: 379-34-0
Molecular weight: 248
Origin: Japan AIST/NIMC Database- Spectrum MS-NW-6632
m/z	RELATIVE INTENSITY
14	10
15	60
16	20
17	10
18	30
26	139
27	829
28	249
29	419
30	20
31	30
36	10
37	80
38	259
39	1249
40	149
41	199
42	99
43	349
44	479
45	169
46	20
49	40
50	519
51	1459
52	369
53	369
54	99
55	489
56	40
57	60
58	30
59	649
60	80
61	70
62	259
63	669
64	329
65	1459
66	519
67	149
68	80
69	90
70	339
71	20
72	10
73	189
74	219
75	279
76	309
77	1479
78	559
79	589
80	80
81	129
82	50
83	20
85	20
86	40
87	80
88	50
89	369
90	209
91	829
92	289
93	299
94	909
95	90
96	10
97	30
98	30
99	10
100	10
101	80
102	179
103	519
104	199
105	1299
106	359
107	939
108	239
109	60
110	60
111	10
112	30
113	20
114	30
115	379
116	159
117	229
118	359
119	859
120	3639
121	1629
122	179
123	20
127	10
128	20
129	20
130	80
131	609
132	429
133	2229
134	1709
135	209
136	20
140	10
141	40
142	10
143	10
144	60
145	40
146	60
147	99
148	4699
149	659
150	70
151	30
153	10
155	20
157	10
158	99
159	349
160	169
161	229
162	889
163	119
164	20
172	20
173	30
174	40
175	70
176	1199
177	1079
178	179
179	20
186	10
187	40
188	339
189	60
190	299
191	489
192	109
193	20
194	10
195	20
196	10
201	169
202	179
203	199
204	40
205	239
206	30
207	10
215	10
216	10
217	10
218	30
219	9999
220	4969
221	599
222	70
230	10
231	249
232	40
233	70
234	20
246	20
247	50
248	8619
249	1219
250	159
251	10
