Mass Spectrum: Fluorotriphenylsilane
Formula: C18 H15 F Si
CAS: 379-50-0
Molecular weight: 278
Origin: NIST Mass Spectrometry Data Center, 1994
m/z	RELATIVE INTENSITY
17	52
18	330
38	81
39	343
47	9652
48	510
49	368
50	789
51	2738
52	296
53	198
63	233
72	71
73	158
75	211
76	276
77	1270
78	315
79	208
86	69
87	66
89	107
97	244
98	76
99	304
100	235
101	94
102	190
103	118
105	103
115	211
121	69
123	957
124	663
125	370
126	251
127	192
128	215
129	256
139	118
147	68
149	687
150	204
151	432
152	1878
153	1148
154	8272
155	1467
156	127
173	275
175	120
179	69
180	295
181	1583
182	289
183	79
199	4772
200	2614
201	9999
202	1898
203	540
278	8780
279	2204
280	540
281	100
