Mass Spectrum: p-n-Butylacetophenone
Formula: C12 H16 O
CAS: 37920-25-5
Molecular weight: 176
Origin: Japan AIST/NIMC Database- Spectrum MS-NW-3962
m/z	RELATIVE INTENSITY
15	70
26	10
27	269
28	60
29	129
38	30
39	259
40	30
41	219
42	10
43	1159
44	30
50	99
51	229
52	50
53	50
55	129
57	10
58	20
62	50
63	189
64	70
65	239
66	20
67	10
71	10
72	10
74	40
75	50
76	70
77	379
78	149
79	149
86	10
87	10
88	10
89	299
90	599
91	1829
92	179
93	20
101	10
102	60
103	249
104	169
105	849
106	80
110	10
115	119
116	40
117	70
118	299
119	99
120	10
127	10
128	20
129	20
131	119
132	20
133	609
134	139
135	10
145	10
147	40
159	30
160	10
161	9999
162	1219
163	90
176	1749
177	239
178	20
