Mass Spectrum: Perfluidone
Formula: C14 H12 F3 N O4 S2
CAS: 37924-13-3
Molecular weight: 379
Origin: J. SHAW, BORRISTON RESEARCH, ROCKVILLE, MD, USA
m/z	RELATIVE INTENSITY
12	20
13	10
14	10
15	70
16	90
17	290
18	990
19	10
20	10
26	60
27	510
28	410
29	100
30	110
31	50
32	40
35	20
36	10
37	30
38	160
39	850
40	100
41	220
42	120
43	250
44	60
45	200
46	10
47	60
48	140
49	40
50	840
51	3153
52	1041
53	580
54	170
55	60
56	20
57	70
58	50
59	20
60	10
61	20
62	80
63	330
64	220
65	590
66	250
67	70
69	2102
70	60
71	40
72	10
73	20
74	120
75	180
76	480
77	3743
78	1491
79	340
80	120
81	270
82	40
83	120
84	20
85	90
86	10
87	30
88	20
89	50
90	40
91	50
92	90
93	520
94	180
95	40
97	2122
98	140
99	100
100	10
101	10
102	80
104	1891
105	1101
106	120
107	20
108	30
109	190
110	40
111	20
112	10
113	10
114	10
115	70
116	10
117	10
120	70
121	50
122	70
123	30
125	9999
126	1361
127	630
128	100
129	20
133	20
134	10
135	10
136	30
137	20
138	10
139	30
140	30
141	90
142	40
143	20
149	10
150	10
151	30
152	100
153	240
154	50
155	30
162	40
163	10
164	10
165	70
166	30
167	40
168	20
169	20
170	10
180	110
181	40
182	110
183	20
190	20
196	10
197	10
238	10
246	960
247	120
248	40
254	320
255	20
256	10
286	120
288	10
296	20
379	1271
380	260
381	130
382	10
