Mass Spectrum: Ethanol, 2,2,2-trichloro-, benzoate
Formula: C9 H7 Cl3 O2
CAS: 37934-99-9
Molecular weight: 252
Origin: V.G. Zaikin, R.S.Borisov, TIPS RAS, Moscow, Russia
m/z	RELATIVE INTENSITY
26	30
27	30
29	10
38	30
39	40
49	20
50	260
51	831
52	40
60	20
61	110
63	40
74	80
75	70
76	150
77	2442
78	180
82	70
91	40
95	100
96	80
97	60
98	60
104	20
105	9999
106	731
107	30
117	40
119	40
123	30
131	20
133	20
135	220
217	220
219	140
221	20
252	611
253	50
254	591
255	50
256	180
258	20
