Mass Spectrum: 5,9-Undecadien-2-one, 6,10-dimethyl-, (E)-
Formula: C13 H22 O
CAS: 3796-70-1
Molecular weight: 194
Origin: STC 0007
m/z	RELATIVE INTENSITY
15	330
16	70
26	70
27	540
29	561
30	20
38	50
39	1071
40	200
41	5415
42	440
43	9999
44	420
45	150
50	60
51	210
52	120
53	771
54	180
55	631
56	100
57	60
58	420
59	40
62	20
63	60
64	20
65	280
66	130
67	931
68	591
69	5925
70	470
71	340
72	20
75	20
77	310
78	90
79	420
80	170
81	540
82	330
83	571
84	90
85	70
86	20
89	20
91	350
92	120
93	781
94	160
95	360
96	80
97	60
98	30
103	30
104	20
105	160
106	60
107	1041
108	400
109	621
110	70
111	230
112	40
113	20
115	30
116	10
117	40
118	20
119	100
120	60
121	420
122	70
123	230
124	150
125	1051
126	160
127	20
128	20
129	10
131	10
133	130
134	50
135	60
136	1101
137	190
138	70
139	20
141	20
147	20
148	10
149	20
150	60
151	1151
152	180
153	20
155	20
157	20
159	10
161	110
162	20
176	170
177	30
179	40
194	260
195	30
