Mass Spectrum: Pyridine, 3-(trifluoromethyl)-
Formula: C6 H4 F3 N
CAS: 3796-23-4
Molecular weight: 147
Origin: Dennis Rohrbaugh, CBDCOM/ERDEC, Edgewood, MD
m/z	RELATIVE INTENSITY
50	2969
51	4519
52	1039
69	5119
70	1119
75	4939
76	1379
78	2509
93	389
94	259
97	869
99	1059
100	1599
101	729
107	319
119	709
120	1239
126	599
127	3439
128	2939
129	199
146	499
147	9999
148	1129
149	40
