Mass Spectrum: Pentanoic acid, 2-ethyl-2-methyl-, methyl ester
Formula: C9 H18 O2
CAS: 37974-23-5
Molecular weight: 158
Origin: D.HENNEBERG, MAX-PLANCK INSTITUTE, MULHEIM, WEST GERMANY
m/z	RELATIVE INTENSITY
26	180
27	2132
28	400
29	2242
30	160
39	1251
40	240
41	3433
42	380
43	2892
51	230
53	750
54	260
55	2082
56	480
57	9999
58	590
59	1691
67	240
69	1571
70	620
71	400
73	750
74	210
83	460
84	210
87	420
88	220
97	230
98	730
99	2722
100	270
101	1681
102	1071
115	480
116	2082
117	210
129	460
130	580
