Mass Spectrum: Androstane-3,16-diol, (3.beta.,5.alpha.,16.beta.)-, 2TMS derivative
Formula: C25 H48 O2 Si2
CAS: 37977-24-5
Molecular weight: 436
m/z	RELATIVE INTENSITY
41	842
43	337
45	555
47	253
53	219
55	943
57	135
59	454
61	758
65	101
67	1347
68	168
69	623
73	6178
74	640
75	9999
76	640
77	707
79	1347
81	2138
82	168
83	337
89	303
91	1313
92	253
93	2020
94	471
95	1683
96	135
97	135
101	505
103	219
105	1313
106	539
107	1852
108	387
109	791
110	101
111	101
113	101
114	202
115	202
116	387
117	135
118	673
119	202
120	842
121	842
122	303
129	976
130	370
131	791
132	168
133	673
134	168
135	539
136	168
137	135
141	84
142	960
143	640
144	4545
145	1178
146	370
147	1145
148	505
149	539
150	84
151	84
155	623
156	505
157	219
159	505
160	269
161	741
162	286
163	202
169	1616
170	337
171	168
173	370
174	118
175	269
177	101
181	84
182	84
183	84
185	168
187	370
188	168
189	118
191	168
199	219
200	84
201	303
202	84
203	673
213	168
215	724
216	202
217	1010
228	118
230	219
239	101
241	842
242	168
255	2070
256	1044
257	269
277	84
278	84
305	623
306	219
307	34
320	168
331	673
332	168
333	34
345	337
346	1818
347	555
348	118
379	84
421	2946
422	1094
423	337
436	774
437	286
438	84
