Mass Spectrum: 2,4,6(1H,3H,5H)-Pyrimidinetrione, 1,3,5-triethyl-5-phenyl-
Formula: C16 H20 N2 O3
CAS: 38024-60-1
Molecular weight: 288
Origin: BAY 0163
m/z	RELATIVE INTENSITY
41	200
43	150
44	300
45	50
50	150
51	350
52	150
53	100
54	100
55	50
56	651
57	50
58	100
62	100
63	450
64	50
65	300
66	50
68	100
69	50
70	1301
71	50
72	150
73	100
74	50
75	100
76	150
77	1401
78	400
79	300
81	150
82	50
83	100
84	50
87	50
88	50
89	901
90	450
91	1702
92	200
93	50
94	50
96	50
97	100
98	50
99	50
101	50
102	200
103	2602
104	901
105	500
106	50
107	50
109	100
110	50
111	100
112	100
113	150
114	100
115	1401
116	951
117	3403
118	3803
119	250
120	50
121	100
122	50
123	50
125	100
127	100
128	100
129	50
130	100
131	450
132	500
133	100
134	50
137	50
139	50
140	50
141	50
142	50
143	150
144	200
145	651
146	9999
147	751
148	100
149	150
150	50
151	50
155	50
156	50
158	50
159	100
160	350
161	550
162	100
163	50
165	50
166	50
170	50
171	300
172	100
173	100
174	250
175	200
176	50
177	50
183	50
185	50
186	50
187	100
188	350
189	1201
190	150
191	50
193	50
194	50
197	100
202	1001
203	200
204	300
205	50
206	50
208	50
209	50
211	150
213	50
214	50
215	50
216	100
217	701
218	150
231	300
232	1601
233	250
234	50
245	50
258	100
259	400
260	9999
261	2402
262	300
263	50
273	550
274	100
287	50
288	350
289	50
