Mass Spectrum: trans-2,7-Dimethyl-3,6-octadien-2-ol
Formula: C10 H18 O
CAS: 38092-33-0
Molecular weight: 154
Origin: W.Epstein ET AL.J.Chem.Eng.Data,21,500(1976)
m/z	RELATIVE INTENSITY
41	5735
42	440
43	9999
44	561
45	80
50	290
51	540
52	170
53	1241
54	350
55	2392
56	310
57	911
58	410
59	5335
60	190
61	150
62	60
63	190
65	621
66	330
67	3133
68	581
69	1391
70	350
71	851
72	981
73	561
75	120
77	2012
78	310
79	2342
80	911
81	3633
82	2472
83	2202
84	170
85	2933
86	2973
91	1782
92	460
93	3783
94	460
95	2682
96	1101
97	520
98	210
99	100
103	80
104	1001
105	981
106	270
107	440
108	150
109	150
110	330
111	951
117	210
119	290
121	2182
122	250
123	120
136	1561
137	410
139	460
154	230
