Mass Spectrum: Difluoroacetic acid
Formula: C2 H2 F2 O2
CAS: 381-73-7
Molecular weight: 96
Origin: NIST Mass Spectrometry Data Center, 1994
m/z	RELATIVE INTENSITY
12	306
13	527
14	48
16	157
17	404
18	62
19	77
20	28
21	11
24	52
25	65
28	948
29	2219
30	98
31	1988
32	2664
33	439
40	73
41	130
42	14
43	2
44	586
45	6526
46	151
47	245
48	275
49	2837
50	838
51	9999
52	615
60	472
61	15
67	1358
68	65
76	1081
77	259
78	155
79	720
80	22
96	1351
97	41
