Mass Spectrum: Pentane, 3-(bromomethyl)-
Formula: C6 H13 Br
CAS: 3814-34-4
Molecular weight: 164
Origin: CONTINENTAL OIL CO., PONCA CITY, OKLAHOMA, USA
m/z	RELATIVE INTENSITY
13	51
14	167
15	684
16	32
25	41
26	707
27	5114
28	1100
29	4129
30	105
36	25
37	104
38	276
39	2762
40	380
41	4419
42	836
43	9999
44	336
49	43
50	223
51	334
52	141
53	722
54	240
55	7572
56	1686
57	827
58	48
62	27
63	46
64	11
65	42
66	32
67	98
68	34
69	955
70	616
71	2524
72	145
79	30
80	29
81	32
82	30
83	46
84	151
85	8200
86	547
87	23
92	25
93	267
94	33
95	253
96	27
106	38
107	267
108	35
109	238
110	35
121	54
122	2
123	27
135	587
136	45
137	570
138	46
164	64
165	13
166	63
167	11
