Mass Spectrum: Malonic acid, dihydrazide
Formula: C3 H8 N4 O2
CAS: 3815-86-9
Molecular weight: 132
Origin: Japan AIST/NIMC Database- Spectrum MS-NW-6606
m/z	RELATIVE INTENSITY
13	20
14	109
15	239
16	109
17	189
18	199
26	20
27	70
28	419
29	489
30	399
31	2469
32	9999
33	819
38	20
39	30
40	90
41	149
42	549
43	2389
44	189
45	20
53	10
55	179
56	90
57	50
58	159
59	1019
60	20
66	40
68	30
69	309
70	10
71	30
73	119
74	199
75	10
83	20
84	20
86	30
99	20
100	449
101	2809
102	119
103	10
114	40
132	249
133	20
