Mass Spectrum: 1-Naphthalenecarboxamide, N,N-dimethyl-
Formula: C13 H13 N O
CAS: 3815-24-5
Molecular weight: 199
Origin: V.G. Zaikin, R.S.Borisov, TIPS RAS, Moscow, Russia
m/z	RELATIVE INTENSITY
42	50
50	30
51	90
62	20
63	70
64	20
72	20
74	80
75	150
76	80
77	360
78	30
85	20
87	40
98	30
99	230
100	460
101	270
102	40
125	50
126	721
127	5275
128	691
129	40
140	20
141	100
153	20
155	9999
156	1221
157	90
198	1291
199	4774
200	701
201	50
