Mass Spectrum: Arabino-hexaric acid, 3-deoxy-2,4,5-tris-O-(trimethylsilyl)-, bis(trimethylsilyl) ester
Formula: C21 H50 O7 Si5
CAS: 38165-99-0
Molecular weight: 554
m/z	RELATIVE INTENSITY
44	66
45	525
55	262
59	197
72	229
73	9999
74	885
75	787
83	197
101	229
102	98
117	66
129	262
131	262
133	459
143	66
147	3672
148	590
149	393
189	197
191	393
204	262
206	66
217	656
218	197
219	426
220	66
221	361
245	7409
246	1574
247	754
248	66
257	393
277	361
291	66
292	1705
293	393
294	262
303	229
305	197
331	328
332	66
335	459
336	66
347	885
348	295
349	66
375	105
376	49
377	66
378	20
379	20
394	20
395	13
405	20
421	220
422	85
423	43
424	16
437	7
449	170
450	66
451	49
452	3
464	20
465	7
539	426
540	184
541	115
542	39
543	20
