Mass Spectrum: Tartronic acid, 3TMS derivative
Formula: C12 H28 O5 Si3
CAS: 38165-93-4
Molecular weight: 336
Origin: O A MAMER, MCGILL UNIVERSITY, MONTRE
m/z	RELATIVE INTENSITY
28	151
29	180
42	51
43	481
45	1981
47	232
55	110
56	39
57	126
58	191
59	430
60	60
61	116
66	63
69	90
70	51
71	70
72	241
73	9999
74	884
75	715
76	64
77	43
99	66
101	55
102	1561
103	209
104	86
105	58
115	90
116	39
117	106
119	109
130	229
131	308
132	77
133	1054
134	168
135	110
147	2882
148	495
149	284
150	48
161	95
163	41
177	140
190	43
191	51
204	50
205	70
207	59
219	51
221	344
222	96
223	72
233	52
265	57
292	790
293	638
294	206
295	87
321	290
322	83
323	50
