Mass Spectrum: 2(3H)-Furanone, dihydro-3-[(trimethylsilyl)oxy]-3-[[(trimethylsilyl)oxy]methyl]-
Formula: C11 H24 O4 Si2
CAS: 38166-06-2
Molecular weight: 276
Origin: G. PETERSON
m/z	RELATIVE INTENSITY
31	200
45	100
59	200
73	2500
74	300
75	400
101	200
102	100
103	2400
104	200
105	100
117	300
127	100
128	100
129	200
143	2400
144	300
145	200
147	2900
148	500
149	400
171	200
190	600
191	100
203	200
204	200
217	100
218	200
219	100
233	500
234	100
246	9999
247	2100
248	900
249	200
261	1600
262	300
263	200
