Mass Spectrum: Galactaric acid, 6TMS derivative
Formula: C24 H58 O8 Si6
CAS: 38165-96-7
Molecular weight: 642
Origin: G. PETERSON
m/z	RELATIVE INTENSITY
44	100
45	300
59	200
72	200
73	9999
74	900
75	700
103	300
117	100
129	200
131	100
133	300
143	300
147	2500
148	400
149	300
189	400
190	100
191	200
204	300
217	500
219	400
220	100
221	300
277	500
278	200
291	200
292	1600
293	500
294	200
305	700
306	200
307	100
333	4400
334	1300
335	700
336	200
367	10
373	190
374	70
375	40
379	60
380	20
381	10
393	140
394	60
395	40
396	10
407	20
408	10
419	100
420	40
421	40
422	30
423	400
424	160
425	80
426	30
435	170
436	70
437	40
438	10
447	80
448	40
449	20
463	10
493	30
494	10
495	10
509	70
510	30
511	20
537	40
538	20
539	20
627	170
628	90
629	60
630	20
631	10
