Mass Spectrum: Arabinaric acid, 2,3,4-tris-O-(trimethylsilyl)-, bis(trimethylsilyl) ester
Formula: C20 H48 O7 Si5
CAS: 38165-95-6
Molecular weight: 540
m/z	RELATIVE INTENSITY
44	66
45	525
59	262
72	229
73	9999
74	918
75	656
102	98
103	98
116	197
129	98
131	197
133	393
143	197
147	2885
148	492
149	295
189	984
190	197
191	197
204	393
205	98
217	262
219	262
220	197
221	393
231	98
277	1246
278	426
279	197
291	66
292	3803
293	1246
294	590
295	66
305	203
306	59
307	39
317	7
319	46
320	20
321	813
322	203
323	105
324	26
333	590
334	174
335	105
336	23
361	89
362	26
363	26
364	7
365	10
379	79
380	26
381	20
391	7
393	26
394	7
406	7
407	597
408	229
409	125
410	39
411	7
423	20
435	108
436	39
437	39
438	7
467	30
468	23
469	10
525	531
526	262
527	131
528	49
529	20
