Mass Spectrum: 1,3-bis[(Trimethylsilyl)ethynyl]benzene
Formula: C16 H22 Si2
CAS: 38170-80-8
Molecular weight: 270
Origin: NIST Mass Spectrometry Data Center
m/z	RELATIVE INTENSITY
15	60
16	20
18	80
27	30
29	220
30	20
31	40
39	20
43	911
44	70
45	320
46	20
53	270
54	30
55	120
57	70
58	50
59	110
63	20
65	10
66	50
67	120
69	80
71	20
73	801
74	70
75	40
77	150
78	100
79	140
80	30
81	40
83	90
84	30
85	40
86	30
89	30
90	110
91	180
92	100
93	310
95	10
96	20
97	90
98	80
99	50
100	10
101	40
102	20
103	90
104	40
105	320
106	450
107	100
112	110
113	130
115	70
116	30
117	80
120	2052
127	40
128	50
129	160
130	30
131	100
133	10
139	20
140	30
141	70
142	50
143	170
144	30
145	90
152	40
153	150
154	40
155	250
156	50
157	70
158	20
159	50
165	60
166	100
167	230
168	70
169	200
170	30
171	50
172	20
173	30
175	10
179	80
180	100
181	140
182	80
183	290
184	50
185	50
193	50
194	50
195	210
196	160
197	250
198	40
199	60
201	20
207	30
208	10
209	60
210	110
211	60
212	20
213	20
221	20
223	20
225	360
226	100
227	50
239	100
240	50
241	100
242	10
255	9999
256	2512
257	951
258	190
259	30
270	1922
271	561
272	200
273	30
