Mass Spectrum: Methyl 8-(2-furyl)octanoate
Formula: C13 H20 O3
CAS: 38199-50-7
Molecular weight: 224
Origin: G. SPITELLER, LEHR. ORG. CHEM., UNIV. BAYREUTH, BAYREUTH, GER.
m/z	RELATIVE INTENSITY
41	1300
43	400
53	1400
55	1000
59	600
69	600
74	500
81	9999
82	2600
94	900
95	6700
193	600
224	1100
