Mass Spectrum: Propane, 1,1,1,3,3,3-hexafluoro-2-trifluoromethyl-
Formula: C4 H F9
CAS: 382-24-1
Molecular weight: 220
Origin: A.A.Kutin, Moscow, Russia
m/z	RELATIVE INTENSITY
31	530
50	290
51	380
63	280
69	9999
70	210
74	80
75	110
81	60
82	1161
93	731
100	100
112	160
113	5385
114	320
131	200
132	1932
133	70
150	70
181	330
200	110
201	4104
202	290
