Mass Spectrum: Thiazole, 5-ethyl-2,4-dimethyl-
Formula: C7 H11 N S
CAS: 38205-61-7
Molecular weight: 141
Origin: HB-4
m/z	RELATIVE INTENSITY
26	47
27	296
28	80
29	93
32	6
34	10
37	36
38	96
39	791
40	203
41	826
42	656
43	12
44	32
45	1425
46	61
47	159
49	9
50	78
51	193
52	101
53	269
54	44
55	172
56	59
57	72
58	501
59	1709
60	163
61	103
62	44
63	78
64	32
65	445
66	275
67	1032
68	222
69	430
70	184
71	854
72	199
73	116
74	4
81	20
82	75
83	64
84	110
85	4713
86	283
87	201
88	4
92	37
96	9
97	122
98	52
99	1018
100	1988
101	179
102	87
108	167
109	6
112	72
113	79
114	13
125	10
126	9999
127	786
128	484
129	24
139	13
140	265
141	7749
142	738
143	397
144	26
