Mass Spectrum: 5-Acetyl-4-methylthiazole
Formula: C6 H7 N O S
CAS: 38205-55-9
Molecular weight: 141
Origin: C. OFFEN, MAFF, FOOD SCI. LAB., NORWICH, U.K.
m/z	RELATIVE INTENSITY
41	900
42	600
43	5800
44	1100
45	2500
53	500
55	800
56	500
57	1300
69	800
71	2100
72	900
84	600
85	700
87	900
98	1600
126	9999
127	800
128	500
130	700
141	5700
142	500
