Mass Spectrum: Ethenamine, N-methylene-
Formula: C3 H5 N
CAS: 38239-27-9
Molecular weight: 55
Origin: D.HENNEBERG, MAX-PLANCK INSTITUTE, MULHEIM, WEST GERMANY
m/z	RELATIVE INTENSITY
24	50
25	260
26	1771
27	2592
28	9999
29	910
36	90
37	240
38	300
39	430
41	590
42	360
50	100
51	600
52	910
53	280
54	4184
55	6266
56	280
57	60
