Mass Spectrum: Piperidine, 1,1'-(1,2-phenylenedicarbonyl)bis-
Formula: C18 H24 N2 O2
CAS: 38256-33-6
Molecular weight: 300
Origin: A.A.Kutin, Moscow, Russia
m/z	RELATIVE INTENSITY
33	5
34	8
36	6
37	19
39	873
41	3582
42	1703
43	318
44	200
45	17
46	2
50	449
51	565
52	126
53	254
54	393
55	1223
56	1039
57	209
58	18
59	6
60	3
61	3
62	17
63	60
64	39
65	126
66	75
67	175
68	122
69	402
70	104
71	18
72	11
74	89
75	269
76	1367
77	2167
78	239
79	55
80	59
82	273
84	9999
85	496
86	122
88	31
89	82
90	100
91	152
92	56
93	60
94	45
95	1
96	7
97	8
98	17
99	7
102	426
103	224
104	1351
105	2916
106	273
107	31
108	22
109	2
110	5
111	5
112	15
113	5
114	11
115	52
116	41
117	114
118	74
119	38
120	28
121	10
122	32
123	3
125	2
127	19
128	63
130	1719
131	227
132	319
133	1549
134	185
135	24
136	1
137	1
139	2
140	4
141	8
142	13
143	27
144	60
145	70
146	158
147	116
148	332
149	59
150	10
152	1
153	5
154	7
155	8
156	18
158	410
159	590
160	3961
161	469
162	65
163	8
165	2
166	1
167	5
168	10
169	19
170	60
171	33
172	176
173	78
174	400
175	167
176	20
177	2
182	6
183	4
184	25
186	474
188	3310
189	542
190	54
191	6
196	4
197	1
198	13
199	9
200	66
201	12
202	43
203	10
204	1
211	13
214	613
215	3827
216	3459
217	1283
218	171
219	17
220	1
243	1
295	10
297	31
299	1102
300	1407
301	288
302	34
303	1
