Mass Spectrum: Phosphorothioic acid, O-(6-ethoxy-2-ethyl-4-pyrimidinyl) O,O-dimethyl ester
Formula: C10 H17 N2 O4 P S
CAS: 38260-54-7
Molecular weight: 292
Origin: NIST Mass Spectrometry Data Center, 1995
m/z	RELATIVE INTENSITY
12	58
13	50
14	93
15	1440
18	92
26	254
27	1814
28	1457
29	3965
30	362
31	463
32	50
33	71
38	74
39	404
40	545
41	556
42	481
43	248
44	50
45	633
46	50
47	2594
48	137
49	146
50	147
51	106
52	287
53	156
54	979
55	739
56	5448
57	315
58	59
59	44
61	56
62	535
63	1417
64	264
65	250
66	149
67	1045
68	3119
69	1292
70	335
71	147
72	95
73	169
74	61
77	299
79	3680
80	512
81	176
82	241
83	320
84	338
85	81
86	76
89	55
91	75
93	3069
94	777
95	419
96	632
97	224
98	169
99	392
100	176
101	62
102	63
104	79
106	532
107	341
109	2094
110	1541
111	1210
112	1672
113	185
114	105
120	69
121	204
122	205
123	205
124	69
125	5405
126	358
127	505
128	181
129	51
132	173
135	200
136	185
137	177
138	218
139	769
140	2241
141	1014
142	620
143	550
144	60
145	47
149	136
150	366
151	320
152	47
153	6939
154	758
155	435
156	299
157	41
161	40
162	119
163	142
164	341
165	135
166	248
167	526
168	4595
169	758
170	862
171	120
172	46
176	68
177	41
178	138
179	104
180	41
181	8500
182	1409
183	890
184	279
185	84
187	56
192	70
193	68
194	130
197	467
198	145
199	101
201	158
202	36
203	68
204	43
205	82
208	214
209	48
215	166
216	40
217	85
220	128
221	49
229	912
230	122
231	257
232	124
233	124
234	50
236	57
245	365
246	77
247	76
248	145
249	191
259	57
260	110
261	353
262	185
263	1267
264	644
265	169
266	50
277	3495
278	420
279	205
291	1327
292	9999
293	1295
294	615
295	58
