Mass Spectrum: Acetic acid, trifluoro-, ethyl ester
Formula: C4 H5 F3 O2
CAS: 383-63-1
Molecular weight: 142
m/z	RELATIVE INTENSITY
12	10
13	20
14	90
15	240
16	10
17	10
18	10
19	10
25	20
26	310
27	2102
28	1571
29	9999
30	280
31	170
32	10
33	160
39	10
40	10
41	20
42	70
43	240
44	80
45	150
46	20
47	140
48	10
50	310
51	320
52	10
59	130
69	5205
70	60
71	10
73	220
74	10
75	10
77	20
78	180
79	10
80	10
95	50
96	10
97	300
98	10
99	1571
100	40
101	10
112	10
113	10
114	140
115	10
116	40
124	30
127	490
128	20
129	10
142	170
143	10
