Mass Spectrum: Ethanethioic acid, trifluoro-, S-ethyl ester
Formula: C4 H5 F3 O S
CAS: 383-64-2
Molecular weight: 158
Origin: Japan AIST/NIMC Database- Spectrum MS-NW-4636
m/z	RELATIVE INTENSITY
12	10
14	20
15	50
18	10
20	10
25	30
26	369
27	2969
28	439
29	9999
30	229
31	109
32	109
33	70
34	40
35	519
37	20
43	20
44	80
45	629
46	259
47	99
48	10
50	189
51	40
55	10
56	20
57	129
58	289
59	429
60	339
61	799
62	80
63	169
65	10
69	2669
70	30
75	10
76	50
78	20
82	50
83	30
87	20
88	10
89	4519
90	199
91	219
94	20
97	299
111	30
113	109
115	149
130	129
131	10
132	10
143	249
144	10
145	10
158	1229
159	70
160	70
