Mass Spectrum: Sulfone, bis(p-fluorophenyl)
Formula: C12 H8 F2 O2 S
CAS: 383-29-9
Molecular weight: 254
Origin: Japan AIST/NIMC Database- Spectrum MS-NW-7102
m/z	RELATIVE INTENSITY
26	10
27	60
28	60
31	99
33	20
37	40
38	80
39	179
44	20
45	189
48	10
49	40
50	649
51	479
52	20
56	30
57	519
58	20
59	10
61	50
62	80
63	169
64	20
65	10
68	249
69	599
70	90
71	179
72	10
73	50
74	379
75	2459
76	209
77	10
80	10
81	99
82	99
83	1069
84	70
85	70
86	10
87	20
88	20
89	10
92	40
93	99
94	309
95	4689
96	419
97	20
98	10
99	199
100	20
101	10
105	10
107	20
108	10
110	20
111	499
112	40
113	20
114	10
115	1179
116	70
117	50
120	20
123	20
125	10
126	70
127	249
128	20
129	10
131	10
133	20
138	10
139	10
143	9999
144	749
145	509
146	40
149	10
150	10
151	40
157	30
159	349
160	20
161	20
162	10
163	10
164	40
167	10
168	40
169	90
170	80
171	20
175	20
177	30
186	10
187	30
188	299
189	209
190	169
191	20
204	40
205	20
207	20
220	40
221	20
222	10
253	90
254	3459
255	539
256	209
257	20
