Mass Spectrum: Glycine, N-(trifluoroacetyl)-, methyl ester
Formula: C5 H6 F3 N O3
CAS: 383-72-2
Molecular weight: 185
Origin: NIST Mass Spectrometry Data Center, 2010
m/z	RELATIVE INTENSITY
15	110
27	30
28	340
29	240
30	30
31	60
33	60
40	10
41	10
42	150
43	40
44	120
45	80
46	50
50	90
51	20
54	10
55	20
56	500
57	40
58	60
59	460
60	20
61	10
64	20
67	10
69	1762
70	20
72	40
73	10
76	20
78	1251
79	120
81	20
84	10
86	10
88	751
89	30
90	10
94	20
96	80
97	310
98	90
99	10
106	270
107	40
109	10
110	10
111	250
112	40
114	10
116	130
117	10
118	50
121	10
123	280
124	20
126	9999
127	400
128	30
129	10
138	20
141	340
142	20
153	20
154	410
155	20
185	110
186	10
