Mass Spectrum: Tricyclo[3.2.1.0(2,4)]octane, 8-methylene-, (1.alpha.,2.alpha.,4.alpha.,5.alpha.)-
Formula: C9 H12
CAS: 38310-48-4
Molecular weight: 120
Origin: CHBEAM, 111(4)1264(1978); R. W. HOFFMANN ET AL.
m/z	RELATIVE INTENSITY
39	1800
41	1300
65	1400
77	3100
78	1700
79	5500
91	9999
92	6700
105	3500
119	900
120	400
