Mass Spectrum: Bromodifluoroacetylchloride
Formula: C2 Br Cl F2 O
CAS: 3832-48-2
Molecular weight: 192
Origin: A.Pleshkova, Nesmeyanov Inst.Org.Elem.Cpds, Moscow
m/z	RELATIVE INTENSITY
47	130
50	1672
51	30
63	7757
64	270
65	2692
66	80
78	611
79	751
80	30
81	751
85	2552
86	120
87	771
88	40
91	80
93	70
110	200
112	240
113	571
114	20
115	70
116	350
129	9999
130	140
131	9969
132	140
145	320
147	400
149	80
157	30
166	30
192	150
194	200
196	50
