Mass Spectrum: cis-3,5-Diethyl-1,2,4-trithiolane
Formula: C6 H12 S3
CAS: 38348-25-3
Molecular weight: 180
Origin: H. KAMEOKA,DEP. APPL. CHEM.,KINKI UNIV.,HIGASHIOSAKA-SHI,JAPAN
m/z	RELATIVE INTENSITY
36	100
37	600
38	900
39	4840
40	960
41	7200
45	7400
46	2820
47	1740
57	960
58	2200
59	3400
69	1600
70	220
71	2200
72	1100
73	6500
74	9999
75	1020
76	820
97	640
99	400
106	700
112	800
115	500
116	560
125	240
137	100
142	100
180	1000
182	160
