Mass Spectrum: 1,2,4-Trithiolane, 3,3,5,5-tetramethyl-
Formula: C6 H12 S3
CAS: 38348-31-1
Molecular weight: 180
m/z	RELATIVE INTENSITY
41	5499
42	500
43	300
44	200
45	2200
46	400
47	600
55	100
57	500
58	1700
59	9999
60	700
61	800
64	400
66	400
68	200
69	400
71	400
72	100
73	600
74	8199
75	4300
76	700
77	200
78	100
83	200
97	100
101	100
106	1300
107	400
108	400
111	200
112	100
113	100
116	600
180	2200
182	300
