Mass Spectrum: Carbamodithioic acid, dibutyl-, methyl ester
Formula: C10 H21 N S2
CAS: 38351-44-9
Molecular weight: 219
Origin: F.I.ONUSKA CANADA CENTRE FOR INLAND WATERS, ONTARIO, CANADA
m/z	RELATIVE INTENSITY
29	3222
39	842
41	4354
42	1364
43	5167
44	4194
55	3716
56	2424
57	9999
58	1771
60	1930
69	1930
71	3062
76	1306
83	1771
85	1611
91	2424
97	1190
109	435
111	682
115	203
116	3222
117	334
119	189
121	203
128	450
172	1771
204	232
219	1582
