Mass Spectrum: 1,1'-Biphenyl, 2,3,3',4',6-pentachloro-
Formula: C12 H5 Cl5
CAS: 38380-03-9
Molecular weight: 324
Origin: Organic Synthesis Lab, MSU, Moscow.TRC 1276
m/z	RELATIVE INTENSITY
41	22
43	24
44	93
45	13
47	56
48	19
49	99
50	195
51	51
55	29
57	21
59	17
60	52
61	300
62	148
63	57
66	13
67	47
68	11
71	15
72	116
73	386
74	579
75	191
79	64
83	25
84	193
85	270
86	231
87	106
92	424
93	120
94	28
95	20
96	107
97	216
98	376
99	252
100	25
107	73
108	179
109	833
110	582
111	210
112	25
114	57
115	55
119	20
120	88
121	101
122	213
123	176
124	42
127	794
128	828
129	268
131	21
132	96
133	155
134	80
135	78
136	17
137	19
143	34
144	232
145	306
146	248
147	218
148	201
149	220
150	25
155	12
156	26
157	39
158	74
159	51
160	29
162	166
163	270
164	179
165	64
167	13
168	26
169	68
170	30
171	50
172	24
180	15
181	46
182	119
183	226
184	889
185	184
186	297
193	32
194	55
196	33
204	68
206	78
207	29
208	35
217	40
218	399
219	375
220	290
221	227
222	65
223	33
228	42
230	39
231	15
252	20
254	3020
255	421
256	2754
257	411
258	906
259	113
260	108
288	92
289	91
290	150
291	121
292	65
293	60
294	21
324	5928
325	835
326	9999
327	1221
328	6535
329	861
330	1942
331	297
332	322
333	38
334	14
