Mass Spectrum: 1,1'-Biphenyl, 2,2',3,4,5'-pentachloro-
Formula: C12 H5 Cl5
CAS: 38380-02-8
Molecular weight: 324
Origin: T.L.Hayes, Battelle Columbus Laboratories, Columbus, OH 43221
m/z	RELATIVE INTENSITY
33	13
34	21
35	204
36	411
37	344
38	336
39	470
40	313
41	7
43	16
44	49
46	13
47	170
48	36
49	339
50	828
51	724
55	84
56	13
57	13
60	288
61	1245
62	492
63	272
67	93
68	32
71	128
72	389
73	1421
74	1812
75	1144
79	713
80	113
81	7
82	13
83	146
84	680
85	966
86	712
87	201
90	60
91	191
92	3241
93	951
96	507
97	1051
98	1494
99	751
101	168
103	25
106	106
107	306
108	1140
109	4107
110	3261
111	808
115	335
116	159
117	35
118	167
119	160
120	551
121	509
122	1009
123	806
124	92
125	117
127	7489
128	6431
129	2248
130	104
132	592
133	539
134	345
135	239
136	209
137	109
138	61
141	34
142	105
143	256
144	1676
145	2568
146	1784
147	1089
148	563
149	958
155	23
157	212
158	221
159	199
160	148
161	35
162	892
163	1300
164	891
165	285
166	63
167	100
168	103
169	127
170	193
171	95
172	97
173	17
177	13
178	31
179	70
180	82
181	142
182	243
183	852
184	4440
185	818
186	1439
187	174
188	11
192	175
193	47
194	238
195	80
196	90
197	13
203	79
204	58
205	98
206	66
207	121
208	29
209	21
214	5
215	61
216	60
217	129
218	1197
219	1000
220	852
221	585
222	189
223	92
231	7
232	27
238	30
239	16
240	40
241	20
242	24
243	10
249	21
251	23
252	58
253	129
254	7892
255	1149
256	7398
257	1022
258	2432
259	286
260	269
262	17
264	41
265	12
266	24
275	4
277	4
281	15
282	15
283	10
284	9
288	187
289	2621
290	597
291	3311
292	549
293	1633
294	242
295	219
324	6431
325	867
326	9999
327	1346
328	6522
329	834
330	2074
331	273
332	343
333	36
334	20
