Mass Spectrum: 1,1'-Biphenyl, 2,2',4,4',5-pentachloro-
Formula: C12 H5 Cl5
CAS: 38380-01-7
Molecular weight: 324
Origin: Organic Synthesis Lab, MSU, Moscow.TRC 1288
m/z	RELATIVE INTENSITY
51	121
60	131
61	585
62	276
63	142
66	38
67	33
71	55
72	212
73	791
74	1059
75	392
76	42
77	21
79	134
80	68
83	76
84	365
85	410
86	355
87	167
88	21
92	781
93	269
94	33
95	53
96	244
97	396
98	708
99	494
100	57
107	113
108	330
109	1694
110	1059
111	395
112	36
114	113
115	137
116	30
117	28
118	51
119	64
120	157
121	216
122	432
123	304
124	85
125	42
127	2296
128	2043
129	572
130	124
131	96
132	149
133	253
134	124
135	118
136	25
137	43
144	478
145	646
146	564
147	456
148	344
149	383
150	52
156	36
157	79
158	118
159	165
160	41
162	440
163	585
164	396
165	169
166	67
168	38
169	115
170	92
171	88
172	75
180	15
181	101
182	181
183	408
184	1717
185	330
186	516
187	81
192	42
193	51
194	102
195	64
196	75
203	18
204	141
205	64
206	105
207	36
208	55
216	33
217	38
218	613
219	491
220	519
221	313
222	145
223	52
228	58
229	25
230	48
241	16
252	37
254	4863
255	706
256	4329
257	651
258	1393
259	163
260	232
288	100
289	750
290	262
291	1103
292	220
293	555
294	103
295	138
296	22
324	6123
326	9999
327	1085
328	5203
329	779
330	1967
331	215
332	297
333	39
334	36
