Mass Spectrum: 1,1'-Biphenyl, 2,2',3,3',4,6'-hexachloro-
Formula: C12 H4 Cl6
CAS: 38380-05-1
Molecular weight: 358
Origin: Organic Synthesis Lab, MSU, Moscow.TRC 1255
m/z	RELATIVE INTENSITY
44	475
47	236
49	372
50	517
51	107
60	276
61	1092
62	566
67	172
72	547
73	2072
74	1838
75	298
78	456
83	233
84	1062
85	1042
86	798
87	309
94	88
96	778
97	785
98	1246
99	517
106	151
107	477
108	1352
109	3497
110	2488
111	748
114	228
115	183
116	107
119	258
120	466
121	487
122	854
123	344
126	1983
127	2414
131	255
132	711
133	679
134	351
135	187
144	4601
145	5342
146	2993
147	1186
148	621
156	290
157	219
158	185
159	191
168	155
169	251
170	135
171	207
179	779
180	1550
181	1401
182	1170
183	1126
184	258
185	228
192	162
193	144
194	143
204	183
205	111
216	160
217	545
218	2796
219	598
220	1620
221	356
222	247
228	173
230	147
240	93
252	583
253	762
254	824
255	632
256	262
257	213
288	5580
289	902
290	6802
291	1025
292	3239
293	441
294	800
323	2261
324	485
325	3412
326	569
327	1995
328	279
329	748
330	134
358	4754
359	867
360	9999
361	1371
362	7791
363	1192
364	3448
365	460
366	611
367	147
