Mass Spectrum: 1,1'-Biphenyl, 2,3,3',4,4',5-hexachloro-
Formula: C12 H4 Cl6
CAS: 38380-08-4
Molecular weight: 358
Origin: Organic Synthesis Lab, MSU, Moscow.TRC 1231
m/z	RELATIVE INTENSITY
41	18
44	112
47	50
49	73
50	156
51	26
55	16
60	63
61	210
62	108
63	43
71	33
72	112
73	396
74	281
75	106
78	59
80	26
83	41
84	214
85	230
86	162
87	73
91	262
94	29
96	124
97	189
98	287
99	134
106	26
107	83
108	295
109	628
110	470
111	106
112	13
114	32
115	28
116	14
118	67
119	42
120	141
121	100
122	176
123	83
124	19
126	343
127	334
130	11
131	58
132	147
133	176
134	82
135	67
136	15
142	34
143	99
144	826
145	956
146	598
147	270
148	126
155	33
156	58
157	59
158	66
159	31
160	19
162	158
163	124
165	46
166	17
167	43
168	34
169	61
170	63
171	28
172	26
178	23
179	137
180	272
181	247
182	259
183	223
184	78
185	54
192	42
193	32
194	45
195	16
203	42
204	37
205	56
206	41
207	28
215	15
216	92
217	159
218	818
219	192
220	595
221	85
222	100
223	16
227	16
228	31
230	42
238	41
240	81
241	24
242	25
251	16
252	297
253	255
254	355
255	295
256	117
257	82
258	30
262	18
264	31
288	2404
289	367
290	2930
291	401
292	1395
293	225
294	312
295	27
296	31
322	69
323	48
324	133
325	72
326	101
327	45
328	33
329	23
358	5024
359	654
360	9999
361	1218
362	8115
363	1049
364	3476
365	439
366	856
367	106
368	95
