Mass Spectrum: 1H-Inden-1-ol, 2,3-dihydro-3,3-dimethyl-
Formula: C11 H14 O
CAS: 38393-92-9
Molecular weight: 162
Origin: W. M. HARMS - E. J. EISENBRAUN
m/z	RELATIVE INTENSITY
25	4
26	101
27	857
28	109
29	517
30	24
31	72
37	39
38	149
39	1365
40	152
41	1064
42	85
43	1088
44	53
45	58
49	22
50	507
51	1383
52	317
53	288
54	27
55	206
56	51
57	124
58	141
59	68
60	65
61	42
62	192
63	670
64	437
65	647
66	462
67	81
68	17
69	457
70	77
71	151
72	229
73	253
74	251
75	287
76	254
77	1615
78	476
79	411
80	47
81	22
83	35
85	30
86	49
87	84
88	44
89	288
90	107
91	1554
92	198
93	61
94	15
95	15
97	13
98	37
99	20
100	13
101	107
102	345
103	640
104	215
105	559
106	57
107	126
108	13
109	7
110	8
111	9
114	174
115	1284
116	365
117	520
118	174
119	419
120	159
121	41
125	46
126	110
127	670
128	1565
129	4714
130	680
131	475
132	317
133	132
134	61
139	41
141	122
142	74
143	281
144	253
145	429
146	177
147	9999
148	1327
149	106
159	11
160	61
161	538
162	2565
163	381
164	34
