Mass Spectrum: 2-Nitro-.alpha.,.alpha.,.alpha.-trifluorotoluene
Formula: C7 H4 F3 N O2
CAS: 384-22-5
Molecular weight: 191
Origin: RADIAN CORP
m/z	RELATIVE INTENSITY
26	30
27	90
28	140
30	2990
31	190
32	50
37	200
38	300
39	380
40	20
44	40
46	230
49	80
50	1670
51	840
52	80
53	10
56	70
57	590
58	10
61	140
62	240
63	470
64	140
68	170
69	1180
70	40
73	160
74	1020
75	3050
76	680
77	90
78	140
79	40
80	80
81	230
82	30
83	500
85	10
87	100
88	130
92	50
93	170
94	300
95	3860
96	240
99	590
100	140
101	60
105	20
106	30
107	130
109	10
112	20
113	890
114	270
118	40
119	430
123	120
125	2180
126	350
132	140
133	2140
134	130
141	20
142	150
143	230
145	9999
146	760
147	10
161	1020
162	70
172	250
175	80
191	2900
192	230
