Mass Spectrum: 1,1'-Biphenyl, 2,2',3,3',6,6'-hexachloro-
Formula: C12 H4 Cl6
CAS: 38411-22-2
Molecular weight: 358
Origin: N. Todua, WGM, MMES
m/z	RELATIVE INTENSITY
40	134
41	134
43	196
44	259
47	196
48	134
49	331
50	331
55	196
57	134
60	331
61	455
62	331
63	134
65	134
66	134
67	134
71	196
72	259
73	589
74	527
75	196
78	259
79	196
83	196
84	393
85	393
86	331
87	196
90	331
91	331
93	134
94	259
95	331
96	331
97	393
98	331
99	134
106	134
107	259
108	455
109	848
110	589
111	331
112	134
115	196
117	134
118	196
119	196
120	259
121	259
122	393
123	259
126	589
127	527
131	196
132	331
133	259
134	196
135	196
136	134
142	196
143	259
144	1044
145	1179
146	786
147	393
148	331
149	134
155	134
156	196
157	259
158	259
159	196
160	196
161	196
162	259
163	259
164	196
167	196
168	196
169	196
170	196
171	196
179	393
180	651
181	589
182	589
183	527
184	196
185	196
192	196
193	196
195	196
196	196
202	134
203	196
204	196
205	196
206	196
207	134
215	196
216	196
217	331
218	982
219	393
220	786
221	259
222	259
227	196
228	196
230	196
232	134
238	134
240	196
242	134
251	134
252	331
253	455
254	455
255	455
256	259
257	259
258	196
262	196
264	196
287	134
288	2875
289	455
290	3598
291	527
292	1696
293	331
294	527
295	196
296	196
321	196
322	331
323	259
324	527
325	259
326	393
327	196
328	259
329	134
331	134
358	4839
359	786
360	9999
361	1375
362	8045
363	1241
364	3464
365	589
366	982
367	259
368	259
