Mass Spectrum: 5-Decen-1-ol, acetate, (E)-
Formula: C12 H22 O2
CAS: 38421-90-8
Molecular weight: 198
Origin: Vladimir Zaikin, TIPS RAS, Moscow, Russia
m/z	RELATIVE INTENSITY
30	250
31	280
36	130
37	330
38	470
39	3333
40	810
41	4824
42	1531
43	9999
44	640
45	770
50	300
51	460
52	330
53	1090
54	4243
55	3553
56	700
57	390
60	330
61	360
63	180
65	410
66	660
67	4173
68	3102
69	1121
70	280
71	230
77	380
78	210
79	820
80	430
81	3533
82	2242
83	690
84	150
91	210
92	120
93	240
94	210
95	2131
96	930
97	330
109	420
110	1671
111	250
138	880
139	210
