Mass Spectrum: 2,2',3-Trichloro-1,1'-biphenyl
Formula: C12 H7 Cl3
CAS: 38444-78-9
Molecular weight: 256
Origin: Organic Synthesis Lab, MSU, Moscow.TRC 1371
m/z	RELATIVE INTENSITY
44	29
47	34
48	11
49	91
50	328
51	309
52	31
55	20
60	44
61	284
62	384
63	253
64	20
67	21
68	18
72	45
73	313
74	751
75	1628
77	66
79	66
80	201
81	58
84	123
85	215
86	252
87	184
88	31
89	13
92	512
93	1357
94	431
96	50
97	254
98	508
99	475
100	105
101	103
102	18
103	18
107	15
108	63
109	175
110	1087
111	870
112	181
113	79
114	19
115	28
116	20
117	16
120	60
121	70
122	141
123	306
124	155
125	227
126	70
128	306
129	292
130	110
131	28
132	29
133	42
134	38
135	78
136	68
137	55
138	31
144	13
145	30
146	41
147	81
148	90
149	402
150	1946
151	1597
152	190
153	15
157	25
158	14
159	84
160	165
161	62
162	72
163	12
169	13
170	48
171	27
172	47
173	19
182	21
183	51
184	192
185	425
186	8568
187	1221
188	2883
189	338
190	19
194	43
195	23
196	53
198	15
207	22
217	16
218	16
219	29
220	419
221	5945
222	1087
223	4013
224	500
225	562
226	74
256	9999
257	1496
258	9732
259	1465
260	3611
261	477
262	373
263	52
268	12
269	14
