Mass Spectrum: 1,1'-Biphenyl, 2,3,4'-Trichloro-
Formula: C12 H7 Cl3
CAS: 38444-85-8
Molecular weight: 256
Origin: Organic Synthesis Lab, MSU, Moscow.TRC 1365
m/z	RELATIVE INTENSITY
42	20
44	143
47	66
49	217
50	729
51	567
52	38
55	66
56	31
57	35
60	87
61	353
62	614
63	437
64	30
67	43
72	91
73	461
74	1258
75	2157
77	78
79	110
80	227
81	77
84	170
85	323
86	380
87	223
88	57
89	24
92	552
93	1440
94	441
96	49
97	330
98	586
99	614
100	165
101	145
102	24
107	47
108	109
109	200
110	1175
111	851
112	184
113	154
114	41
115	34
120	55
121	86
122	194
123	346
124	130
125	246
126	121
128	413
129	356
130	133
132	50
133	53
134	60
135	128
136	126
137	96
138	63
145	40
146	76
147	92
148	94
149	444
150	2049
151	1558
152	206
158	32
159	86
160	200
161	46
162	81
170	77
171	42
172	64
183	44
184	207
185	409
186	5864
187	972
188	2066
189	273
194	43
196	63
209	17
219	30
220	435
221	195
222	262
223	124
224	48
253	34
254	38
256	9999
257	1480
258	9972
259	1310
260	3019
261	383
262	320
263	32
