Mass Spectrum: 1,1'-Biphenyl, 2,2',3,3'-tetrachloro-
Formula: C12 H6 Cl4
CAS: 38444-93-8
Molecular weight: 290
Origin: T.L.Hayes, Battelle Columbus Laboratories, Columbus, OH 43221
m/z	RELATIVE INTENSITY
34	22
35	209
36	431
37	379
38	386
39	355
40	442
41	15
43	33
44	119
47	129
48	35
49	501
50	949
51	517
52	39
55	119
56	48
59	15
60	227
61	1387
62	1242
63	508
64	29
66	45
67	168
68	57
69	12
71	45
72	304
73	1757
74	3480
75	2780
76	293
77	15
78	154
79	497
80	306
81	71
83	49
84	754
85	1157
86	969
87	616
88	81
90	112
92	4920
93	2011
94	69
95	67
96	311
97	1139
98	1912
99	1613
100	287
101	73
102	46
103	13
104	29
107	206
108	490
109	2146
110	7199
111	4465
112	821
113	207
114	133
115	182
116	96
117	23
118	40
119	75
120	310
121	338
122	842
123	1174
124	445
125	172
126	16
127	2183
128	2348
129	1055
130	73
131	67
132	243
133	351
134	273
135	455
136	137
137	161
138	33
143	18
144	129
145	1207
146	1536
147	1204
148	687
149	1777
150	4920
151	663
152	56
153	20
154	14
156	41
157	156
158	154
159	374
160	264
161	162
162	84
164	14
168	33
169	78
170	263
171	114
172	149
173	56
174	27
179	35
180	41
181	92
182	86
183	309
184	1968
185	1806
186	850
187	563
188	87
189	37
193	20
194	302
195	63
196	196
197	38
198	63
204	39
205	55
206	32
207	66
208	11
209	16
217	25
218	135
219	154
220	9999
221	1486
222	6386
223	836
224	1006
225	147
230	32
232	12
233	25
241	41
243	10
244	12
249	14
254	305
255	5099
256	964
257	4927
258	754
259	1592
260	215
261	204
262	18
290	6552
291	943
292	8255
293	1114
294	3798
295	491
296	821
297	140
298	80
