Mass Spectrum: 4-Quinolinol,1,4-diethyldecahydro-2-methyl-(2.alpha.,4.alpha.,4a.beta.,8a.alpha.)
Formula: C14 H27 N O
CAS: 38463-62-6
Molecular weight: 225
Origin: V.G.Zaikin, TIPS, Russian Acad. Sci.
m/z	RELATIVE INTENSITY
51	140
52	170
53	560
54	500
55	1131
56	2652
57	2812
58	530
65	220
67	820
68	430
69	660
70	800
71	530
72	4123
73	220
74	170
77	290
78	220
79	500
80	210
81	730
82	390
83	170
84	590
85	210
86	300
91	220
93	180
94	210
95	330
96	290
97	130
98	250
99	200
107	200
108	210
109	190
110	410
111	200
112	100
124	330
125	190
126	340
138	240
139	210
140	730
141	150
142	160
152	540
153	190
154	220
178	350
179	130
180	360
182	1751
183	330
192	880
193	150
196	8147
197	1161
198	150
206	180
208	390
210	9999
211	1441
212	220
224	320
225	1611
226	250
227	20
