Mass Spectrum: 4-Quinolinol,4-ethenyl-1-ethyldecahydro-2-methyl-(2.alpha.,4.alpha.,4a.beta.,8a.alpha.
Formula: C14 H25 N O
CAS: 38463-59-1
Molecular weight: 223
Origin: V.G.Zaikin, TIPS, Russian Acad. Sci.
m/z	RELATIVE INTENSITY
53	1271
54	1060
55	4203
56	3793
57	720
58	540
65	430
66	260
67	1881
68	780
69	810
70	1471
71	740
72	3883
73	270
74	310
77	740
78	250
79	1291
80	460
81	1291
82	800
83	550
84	780
85	220
86	600
91	680
92	220
93	500
94	380
95	540
96	810
97	400
98	690
105	290
106	210
107	350
108	520
109	430
110	920
111	280
112	560
120	180
121	230
122	260
124	660
125	260
126	550
127	180
136	330
137	350
138	750
140	400
148	230
150	720
151	270
152	1331
153	310
154	180
162	270
163	240
164	260
166	630
167	230
178	600
180	5414
181	810
182	550
190	1351
191	350
194	210
196	920
204	270
206	1521
207	280
208	9999
209	1821
210	400
222	410
223	1901
224	291
225	20
