Mass Spectrum: 4-Quinolinol,1-ethyl-4-ethynyldecahydro-2-methyl-(2.alpha.,4.alpha.,4a.beta.,8a.alpha.)
Formula: C14 H23 N O
CAS: 38463-56-8
Molecular weight: 221
Origin: V.G.Zaikin, TIPS, Russian Acad. Sci.
m/z	RELATIVE INTENSITY
51	1261
52	460
53	3743
54	2322
55	2892
56	9999
57	940
65	300
66	1281
67	640
68	1421
69	1141
70	2462
71	1461
72	5284
73	430
74	940
77	1781
78	320
79	2672
80	660
81	2262
82	1551
83	390
84	990
85	340
86	620
91	1621
92	340
93	480
94	550
95	340
96	800
97	230
98	620
105	730
106	290
107	430
108	680
109	460
110	870
111	270
112	210
120	270
121	200
122	290
123	210
124	550
125	230
135	290
136	450
137	270
138	600
146	230
148	780
149	160
150	300
152	610
160	270
162	270
164	450
176	210
178	6375
179	1030
180	150
186	290
189	240
204	1090
205	300
206	6826
207	1070
220	230
221	1421
222	221
223	20
