Mass Spectrum: 2,3-Hexanedione
Formula: C6 H10 O2
CAS: 3848-24-6
Molecular weight: 114
Origin: NIST Mass Spectrometry Data Center, 1998.
m/z	RELATIVE INTENSITY
14	40
15	180
26	100
27	920
29	150
37	50
38	100
39	610
40	100
41	2140
42	600
43	9999
44	410
45	30
50	30
51	20
53	80
54	10
55	120
56	20
57	20
58	20
69	20
70	20
71	1990
72	160
114	670
115	50
