Mass Spectrum: Peroxide, dibutyl
Formula: C8 H18 O2
CAS: 3849-34-1
Molecular weight: 146
m/z	RELATIVE INTENSITY
15	200
19	100
26	300
27	3100
28	900
29	4900
30	400
31	1900
33	100
37	100
38	100
39	1100
40	200
41	5499
42	1500
43	3800
44	700
45	400
53	100
54	100
55	900
56	9999
57	8299
59	100
71	100
72	300
73	800
132	100
146	900
147	100
