Mass Spectrum: Propane, 1,1,1,2,3,3,3-heptachloro-
Formula: C3 H Cl7
CAS: 3849-33-0
Molecular weight: 282
Origin: Japan AIST/NIMC Database- Spectrum MS-IW-5641
m/z	RELATIVE INTENSITY
25	20
35	90
36	299
37	129
38	80
47	179
48	10
49	60
59	30
60	159
61	10
62	50
63	20
68	20
70	10
71	319
72	289
73	109
74	60
82	219
83	199
84	139
85	129
86	20
87	30
88	50
89	70
90	30
94	60
95	159
96	50
97	99
98	10
99	10
105	10
106	409
107	669
108	379
109	259
110	30
111	30
117	9999
118	109
119	9559
120	99
121	3089
122	30
123	339
129	70
130	499
131	80
132	479
133	30
134	149
136	10
141	149
142	10
143	159
144	10
145	50
147	20
157	20
159	20
161	10
165	319
166	10
167	409
168	10
169	189
171	40
176	10
177	589
178	40
179	769
180	30
181	379
182	10
183	80
211	169
213	279
214	10
215	179
216	10
217	60
219	10
246	10
247	539
248	40
249	1039
250	50
251	829
252	30
253	359
254	10
255	80
257	10
284	10
286	20
288	20
290	10
