Mass Spectrum: 2-Butanamine, 3,3-dimethyl-
Formula: C6 H15 N
CAS: 3850-30-4
Molecular weight: 101
Origin: Japan AIST/NIMC Database- Spectrum MS-NW-3081
m/z	RELATIVE INTENSITY
15	70
26	10
27	149
28	129
29	159
30	129
31	10
38	10
39	169
40	30
41	549
42	299
43	229
44	9999
45	259
50	10
51	10
53	30
54	20
55	50
56	99
57	99
58	20
67	10
68	10
69	399
70	169
71	169
83	10
84	30
85	20
86	779
87	50
100	20
101	10
