Mass Spectrum: 2,3,4-Trimethylpyrrole
Formula: C7 H11 N
CAS: 3855-78-5
Molecular weight: 109
Origin: Philip Morris R&D
m/z	RELATIVE INTENSITY
36	55
38	67
39	470
40	153
41	526
42	329
47	227
50	84
51	214
52	256
53	497
54	393
55	68
62	24
63	76
64	25
65	363
66	181
67	820
68	79
77	302
78	100
79	332
80	102
81	222
82	20
91	82
92	223
93	773
94	2544
95	168
106	490
107	499
108	9999
109	6387
110	501
