Mass Spectrum: 1,4-Dichlorobenzene-D4
Formula: C6 D4 Cl2
CAS: 3855-82-1
Molecular weight: 150
Origin: NIST Mass Spectrometry Data Center, 1990.
m/z	RELATIVE INTENSITY
12	26
14	22
16	16
18	14
26	73
28	329
29	19
30	71
32	22
35	119
36	120
37	74
38	651
39	191
40	653
41	34
42	107
44	19
47	111
48	86
49	99
50	521
51	19
52	2782
53	203
54	683
55	19
56	404
57	136
59	11
60	53
61	123
62	181
63	172
64	135
65	59
66	102
71	15
72	37
73	102
74	376
75	729
76	1670
77	373
78	3024
79	221
80	215
81	25
85	223
87	507
88	39
89	207
90	19
91	24
98	21
99	50
101	18
108	24
109	22
110	19
111	85
113	231
115	4607
116	305
117	1491
118	99
122	23
124	14
150	9999
151	697
152	6445
153	457
154	1045
155	65
