Mass Spectrum: 2-Propyltetrahydropyran
Formula: C8 H16 O
CAS: 3857-17-8
Molecular weight: 128
Origin: NIST Mass Spectrometry Data Center, 1990.
m/z	RELATIVE INTENSITY
26	109
27	810
28	134
29	910
30	45
31	169
39	1054
40	302
41	2731
42	503
43	2229
44	682
45	119
50	45
51	81
52	46
53	280
54	275
55	1765
56	857
57	1951
58	93
65	80
67	1936
68	170
69	113
70	130
71	531
72	133
73	52
77	38
79	47
81	69
82	42
85	9999
86	538
87	47
127	83
128	279
