Mass Spectrum: 1-Chloromethyl-3-(1,1-dimethylethyl)benzene
Formula: C11 H15 Cl
CAS: 38580-79-9
Molecular weight: 182
Origin: V.A.KOPTYUG, ATLAS OF MASS SPECTRA OF ORGANIC COMPOUNDS
m/z	RELATIVE INTENSITY
39	1600
41	2800
51	710
53	300
63	510
64	580
65	1400
66	530
77	480
89	340
91	3600
103	310
104	340
105	390
115	770
116	350
117	580
131	2000
132	420
139	950
141	270
147	470
167	9999
168	650
169	2500
182	1300
184	370
