Mass Spectrum: 2,3,4-Trifluoroaniline
Formula: C6 H4 F3 N
CAS: 3862-73-5
Molecular weight: 147
Origin: Japan AIST/NIMC Database- Spectrum MS-IW-4070
m/z	RELATIVE INTENSITY
20	10
26	10
27	10
28	419
31	329
32	20
33	10
36	10
37	60
38	60
39	70
40	20
41	40
44	10
45	10
46	70
48	20
49	20
50	239
51	419
52	209
53	20
54	10
55	40
56	139
57	179
58	20
59	30
60	10
61	90
62	60
63	80
64	40
65	40
66	10
68	139
69	399
70	669
71	40
72	40
73	619
74	139
75	419
76	249
77	119
78	40
79	60
80	169
81	279
82	80
83	40
85	10
86	10
87	20
88	50
89	70
90	60
91	159
92	109
93	229
94	149
95	50
96	99
97	30
98	20
99	579
100	1229
101	609
102	70
103	60
106	60
107	299
108	149
109	10
114	10
116	269
117	30
118	80
119	2039
120	2599
121	189
125	10
126	349
127	749
128	139
129	20
130	109
131	20
144	10
145	60
146	569
147	9999
148	699
149	20
