Mass Spectrum: 3,4-Difluoroaniline
Formula: C6 H5 F2 N
CAS: 3863-11-4
Molecular weight: 129
Origin: Chuck Anderson, Aldrich Chemical Co.
m/z	RELATIVE INTENSITY
27	45
28	415
31	371
33	17
37	112
38	149
39	137
40	64
41	144
44	55
45	19
49	28
50	203
51	475
52	428
53	48
54	66
55	77
56	245
57	475
58	61
59	18
61	190
62	329
63	454
64	271
65	614
68	98
69	64
70	157
71	74
72	81
73	8
74	77
75	690
76	256
77	66
78	113
79	60
80	85
81	478
82	847
83	418
84	47
85	84
88	86
89	295
90	108
98	196
99	193
100	177
101	3514
102	3556
103	298
107	37
108	248
109	368
110	99
112	153
113	53
126	17
127	69
128	499
129	9999
130	645
