Mass Spectrum: Bicyclo[3.1.1]heptan-2-one, 6,6-dimethyl-, (1R)-
Formula: C9 H14 O
CAS: 38651-65-9
Molecular weight: 138
Origin: Chuck Anderson, Aldrich Chemical Co.
m/z	RELATIVE INTENSITY
15	63
18	1
26	161
27	2580
28	436
29	1236
30	14
31	6
37	37
38	154
39	2177
40	413
41	3144
42	391
43	806
44	30
45	44
50	126
51	295
52	147
53	846
54	470
55	4085
56	391
57	67
62	35
63	95
64	5
65	342
66	216
67	2338
68	1068
69	1458
70	1229
71	86
77	557
78	127
79	940
80	210
81	3601
82	1444
83	9999
84	557
85	39
91	221
92	112
93	258
94	396
95	3467
96	2096
97	1223
98	82
105	347
106	31
107	70
108	70
109	2392
110	853
111	90
120	304
121	51
123	1491
124	120
137	36
138	792
139	86
