Mass Spectrum: 3,3,5,5-Tetramethylcyclopentene
Formula: C9 H16
CAS: 38667-10-6
Molecular weight: 124
Origin: NIST Mass Spectrometry Data Center, 1990.
m/z	RELATIVE INTENSITY
15	134
27	411
28	362
29	244
39	1086
40	219
41	1228
42	116
43	494
50	148
51	422
52	168
53	687
55	816
63	142
65	533
67	4223
68	267
69	293
77	943
78	219
79	866
81	1465
82	128
91	684
92	101
93	269
94	202
95	117
107	223
109	9999
110	900
124	376
