Mass Spectrum: Pentalene, octahydro-2-methyl-
Formula: C9 H16
CAS: 3868-64-2
Molecular weight: 124
Origin: KONINKLIJKE SHELL LABORATORIUM AMSTERDAM
m/z	RELATIVE INTENSITY
36	11
37	112
38	355
39	4366
40	701
41	5079
42	1005
43	690
44	26
45	12
46	17
47	7
48	4
49	22
50	288
51	645
52	340
53	1538
54	2063
55	2400
56	344
57	304
58	22
59	5
60	3
61	20
62	61
63	169
64	40
65	425
66	519
67	6866
68	1743
69	434
70	99
71	50
72	25
73	12
74	30
75	35
76	21
77	533
78	172
79	771
80	536
81	9999
82	4505
83	527
84	32
85	11
86	13
87	6
88	2
89	17
90	10
91	180
92	32
93	155
94	73
95	956
96	4079
97	305
98	14
99	2
102	2
103	11
104	4
105	16
106	2
107	24
108	8
109	817
110	71
111	3
112	1
115	5
116	2
117	2
118	1
119	2
120	2
121	3
122	20
123	44
124	1284
125	124
126	4
