Mass Spectrum: Benzoic acid, 4-butyl-, 4-cyanophenyl ester
Formula: C18 H17 N O2
CAS: 38690-77-6
Molecular weight: 279
Origin: MASS SPECTROMETRY CENTER, UNIV. OF UTAH ALDRICH 18032-7
m/z	RELATIVE INTENSITY
29	22
37	69
39	331
41	244
50	46
51	97
53	31
55	122
62	84
63	339
64	332
65	580
75	6
76	5
77	296
79	6
89	713
90	1825
91	3542
92	336
93	37
102	85
103	271
104	102
105	140
115	105
116	5
118	1013
119	325
128	38
134	44
159	97
161	9999
162	2203
163	160
236	38
