Mass Spectrum: Oxazole, 2-(3-methoxyphenyl)-5-phenyl-
Formula: C16 H13 N O2
CAS: 38705-20-3
Molecular weight: 251
Origin: NIST Mass Spectrometry Data Center, 1994
m/z	RELATIVE INTENSITY
15	809
17	40
18	95
26	7
27	101
28	289
37	129
38	479
39	1095
40	102
41	93
44	33
50	1632
51	1962
52	217
53	165
61	147
62	821
63	1869
64	1128
65	791
66	115
73	38
74	293
75	686
76	2211
77	5025
78	419
79	74
82	44
83	40
85	38
86	155
87	244
88	324
89	3085
90	1402
91	416
92	626
93	40
96	63
97	53
98	121
99	32
101	35
102	222
103	338
104	311
105	1542
106	131
107	148
111	27
112	60
114	110
115	133
116	297
117	75
118	115
119	1092
120	273
126	810
127	84
133	181
135	72
139	44
141	34
146	1147
147	109
150	46
151	202
152	1040
153	1258
154	139
163	78
165	1606
166	791
167	357
168	71
174	42
178	118
179	145
180	1069
181	1394
182	183
190	80
191	124
192	175
193	152
194	85
195	769
196	293
207	151
208	1244
209	252
219	48
220	171
221	352
222	317
223	347
224	87
235	53
236	42
251	9999
252	1775
253	198
