Mass Spectrum: Dimethylaminoacetaldehyde dimethyl acetal
Formula: C6 H15 N O2
CAS: 38711-20-5
Molecular weight: 133
Origin: Japan AIST/NIMC Database- Spectrum MS-IW- 71
m/z	RELATIVE INTENSITY
15	229
18	20
26	10
27	60
28	149
29	189
30	499
31	219
32	10
40	20
41	60
42	579
43	309
44	299
45	179
47	309
54	10
55	30
56	179
57	219
58	9999
59	1039
60	30
70	139
71	509
72	489
73	30
74	20
75	1409
76	40
84	10
85	10
86	129
87	70
88	40
89	10
100	40
101	60
102	1979
103	369
104	20
116	10
132	10
133	739
134	60
