Mass Spectrum: Glycine, N-(chloroacetyl)-N-(2,6-diethylphenyl)-, ethyl ester
Formula: C16 H22 Cl N O3
CAS: 38727-55-8
Molecular weight: 311
Origin: Organic Synthesis Lab, MSU, Moscow.TRC 781
m/z	RELATIVE INTENSITY
26	69
27	919
29	2519
30	169
31	139
36	39
38	29
39	539
40	49
41	519
42	219
43	318
44	49
45	39
49	619
50	59
51	529
52	109
53	299
54	79
55	108
56	38
57	9
58	9
59	168
60	19
62	29
63	199
64	69
65	469
66	59
67	39
68	9
74	19
75	59
76	69
77	2048
78	328
79	848
80	69
87	29
88	9
89	209
90	319
91	1589
92	159
93	168
94	9
95	9
99	9
101	39
102	169
103	589
104	319
105	1059
106	369
107	19
108	109
114	9
115	659
116	309
117	1709
118	1839
119	399
120	99
121	29
127	139
128	219
129	139
130	1549
131	1369
132	1959
133	689
134	759
135	39
136	239
137	9
141	29
142	99
143	269
144	679
145	349
146	3029
147	1869
148	309
149	109
150	39
154	29
156	69
157	39
158	329
159	129
160	4209
161	829
162	6689
163	808
164	169
165	9
168	9
170	39
171	29
172	119
173	169
174	569
175	119
176	49
178	38
179	28
180	19
182	9
184	49
185	29
186	79
187	49
188	9999
189	1779
190	299
191	19
194	19
196	9
201	9
202	619
203	89
204	19
206	79
207	9
208	129
209	39
210	79
211	9
212	19
215	19
216	1569
217	219
218	39
220	169
221	29
222	69
223	9
224	79
225	9
226	19
230	19
232	9
234	1039
235	159
236	79
237	9
238	5899
239	859
240	1919
241	269
242	9
246	29
247	29
248	19
254	149
255	9
256	39
257	9
258	139
259	19
260	9
261	19
262	4349
263	739
264	79
266	1059
267	159
268	349
269	49
282	529
283	79
284	169
285	19
293	69
294	9
295	19
296	9
311	3267
312	589
313	1099
314	189
315	9
