Mass Spectrum: 1-Butanone, 4-chloro-1-(4-fluorophenyl)-
Formula: C10 H10 Cl F O
CAS: 3874-54-2
Molecular weight: 200
Origin: Japan AIST/NIMC Database- Spectrum MS-IW-4773
m/z	RELATIVE INTENSITY
26	10
27	70
28	40
31	10
35	10
36	169
37	10
38	50
39	149
40	20
41	149
42	30
43	10
45	10
49	40
50	119
51	99
53	10
55	50
56	10
57	80
59	10
61	10
62	30
63	60
66	10
67	30
68	70
69	159
70	30
73	30
74	90
75	689
76	70
77	40
81	40
82	50
83	60
86	10
87	10
89	10
92	10
93	30
94	149
95	2939
96	279
97	10
101	20
105	30
107	60
108	10
109	119
110	20
115	60
116	10
119	10
120	30
121	20
122	30
123	9999
124	769
125	50
131	10
132	10
133	339
134	99
135	139
136	20
138	3329
139	289
140	30
145	90
146	40
147	10
149	20
151	20
162	30
163	279
164	769
165	99
166	10
200	99
201	10
202	30
