Mass Spectrum: Acetamide, N-methyl-2-(methylamino)-2-thioxo-
Formula: C4 H8 N2 O S
CAS: 38762-37-7
Molecular weight: 132
Origin: CARL DJERASSI DEPT OF CHEM STANFORD UNIV STANFORD CALIF 94305
m/z	RELATIVE INTENSITY
41	2400
42	9999
43	500
44	2700
45	5700
46	1400
47	4600
48	200
49	200
51	100
55	100
56	100
57	100
58	900
59	400
60	700
61	100
62	100
71	100
72	100
73	300
74	3100
75	1400
76	200
90	100
103	100
117	100
132	1000
133	100
134	100
