Mass Spectrum: 1-Hexadecanesulfonyl chloride
Formula: C16 H33 Cl O2 S
CAS: 38775-38-1
Molecular weight: 324
Origin: Japan AIST/NIMC Database- Spectrum MS-NW-9995
m/z	RELATIVE INTENSITY
26	30
27	479
28	219
29	1609
30	40
32	20
34	10
35	20
36	229
37	10
38	80
39	429
40	99
41	4219
42	1119
43	7669
44	269
45	10
47	10
48	129
50	10
51	20
52	10
53	239
54	509
55	5599
56	2779
57	9999
58	479
59	10
60	10
61	10
63	70
64	409
65	50
66	90
67	759
68	1409
69	6089
70	2949
71	6119
72	349
73	10
75	10
76	10
77	60
78	10
79	80
80	30
81	619
82	2149
83	6819
84	2219
85	3609
86	239
87	30
89	20
91	199
92	10
93	80
94	20
95	389
96	1129
97	6379
98	1669
99	989
100	60
101	20
103	10
104	10
105	99
106	10
107	40
108	10
109	199
110	589
111	4019
112	1299
113	549
114	40
115	10
117	20
118	10
119	60
121	30
122	10
123	129
124	379
125	2079
126	889
127	359
128	30
129	10
131	20
133	60
135	30
137	80
138	269
139	1009
140	639
141	269
142	20
143	10
145	20
147	50
149	30
151	30
152	189
153	619
154	499
155	189
156	20
157	10
159	20
161	30
163	20
165	10
166	119
167	439
168	369
169	119
170	10
171	20
173	20
175	30
177	20
179	10
180	80
181	319
182	229
183	80
184	10
185	20
187	20
189	20
191	20
194	50
195	249
196	539
197	99
198	10
199	20
201	20
203	20
205	20
209	30
210	10
211	50
213	20
215	20
217	10
219	20
221	10
222	30
223	40
224	839
225	189
226	30
227	20
229	10
233	10
239	30
241	20
252	20
253	169
254	30
255	20
256	10
257	30
258	10
260	20
267	10
271	489
272	90
273	40
274	10
281	10
289	129
290	30
291	10
307	149
308	30
309	60
310	10
323	10
325	10
