Mass Spectrum: Fuberidazole
Formula: C11 H8 N2 O
CAS: 3878-19-1
Molecular weight: 184
Origin: NIST Mass Spectrometry Data Center, 1998.
m/z	RELATIVE INTENSITY
26	40
27	80
28	60
29	140
37	200
38	500
39	1040
40	90
41	70
42	20
49	50
50	470
51	820
52	750
53	140
54	30
55	20
61	80
62	290
63	1020
64	960
65	490
66	100
67	10
74	70
75	320
76	450
77	520
78	380
79	60
80	10
87	30
88	60
89	90
90	890
91	270
92	730
93	170
94	70
99	20
100	70
101	320
102	850
103	660
104	250
105	140
106	20
114	10
115	30
116	40
117	40
118	50
126	10
127	70
128	480
129	1510
130	300
131	10
142	10
143	10
153	20
155	2770
156	2770
157	290
158	20
183	1590
184	9999
185	1320
186	80
