Mass Spectrum: Carbonic acid, ethyl phenyl ester
Formula: C9 H10 O3
CAS: 3878-46-4
Molecular weight: 166
Origin: Zaikin V.G., TIPS RAS, Moscow, Russia
m/z	RELATIVE INTENSITY
26	90
27	290
28	20
29	661
36	40
37	30
38	100
39	540
40	110
41	20
43	30
44	190
50	140
51	310
52	50
53	30
55	110
61	20
62	60
63	180
64	70
65	821
66	921
67	50
68	10
74	40
75	20
76	40
77	931
78	110
79	170
91	20
93	130
94	9999
95	631
96	30
105	20
107	30
121	140
122	210
166	561
167	50
