Mass Spectrum: 2,2'-Difluorobiphenyl
Formula: C12 H8 F2
CAS: 388-82-9
Molecular weight: 190
Origin: NIST Mass Spectrometry Data Center
m/z	RELATIVE INTENSITY
26	30
27	40
31	80
33	40
37	20
38	60
39	200
44	10
45	20
46	10
49	20
50	340
51	280
52	30
55	10
56	40
57	300
58	10
59	10
60	10
61	100
62	200
63	270
64	20
68	130
69	210
70	190
71	20
72	160
73	50
74	450
75	540
76	80
77	20
79	10
80	60
81	340
82	540
83	110
84	140
85	751
86	180
87	210
88	80
89	20
92	100
93	160
94	1001
95	761
96	200
97	30
98	220
99	260
100	90
101	110
102	10
104	30
105	160
106	60
107	170
108	10
109	50
110	70
111	100
112	70
113	50
114	60
115	10
116	30
117	80
118	110
119	50
120	410
121	50
122	60
123	190
124	50
125	180
126	40
127	40
128	10
129	30
130	10
131	180
132	40
133	320
134	40
135	10
136	10
137	30
138	210
139	130
140	20
141	20
142	30
143	220
144	460
145	80
146	130
147	30
149	190
150	210
151	450
152	50
155	30
156	20
157	300
158	30
162	160
163	90
164	771
165	80
167	80
168	540
169	911
170	1531
171	480
172	40
175	100
176	10
186	90
187	230
188	2012
189	2652
190	9999
191	1371
192	70
