Mass Spectrum: 4-Chloro-3-nitrobenzoyl chloride
Formula: C7 H3 Cl2 N O3
CAS: 38818-50-7
Molecular weight: 219
Origin: NIST Mass Spectrometry Data Center
m/z	RELATIVE INTENSITY
30	140
35	20
36	40
37	140
38	100
39	10
46	70
47	20
48	20
49	120
50	330
51	50
52	10
53	90
55	40
56	10
60	70
61	160
62	160
63	380
64	30
65	20
71	10
72	70
73	400
74	1541
75	2002
76	140
77	20
83	20
84	420
85	100
86	180
87	80
88	30
89	10
91	10
92	10
96	10
97	30
98	130
99	20
100	40
101	20
103	100
107	20
108	80
109	981
110	2502
111	480
112	831
113	50
119	10
121	10
124	20
126	340
127	20
128	110
133	60
135	40
137	180
138	3873
139	340
140	1301
141	90
144	10
145	150
146	20
147	100
149	20
154	40
156	20
168	180
169	10
170	60
171	10
173	30
175	20
184	9999
185	811
186	3483
187	260
188	20
203	10
205	10
219	370
220	20
221	240
222	10
223	40
