Mass Spectrum: 1,3-Cyclopentanedione, 2,2-dimethyl-
Formula: C7 H10 O2
CAS: 3883-58-7
Molecular weight: 126
Origin: M. VANDEWALLE
m/z	RELATIVE INTENSITY
41	5100
42	9999
43	2100
53	400
55	2400
56	3100
67	400
68	300
69	1600
70	7800
71	1100
83	1600
84	800
97	400
98	300
111	200
125	200
126	7800
127	600
