Mass Spectrum: cis-1-Butyl-2-methylcyclopropane
Formula: C8 H16
CAS: 38851-69-3
Molecular weight: 112
Origin: Y. INOUE, DEP. APPL. CHEM., HIMEJI INST. TECHNOL., HYOGO, JPN.
m/z	RELATIVE INTENSITY
41	5070
42	7260
43	1500
54	470
55	9999
56	7850
57	2530
67	340
68	640
69	3920
70	8860
71	950
82	920
83	3680
84	2220
97	500
112	3510
113	320
