Mass Spectrum: trans-1-Butyl-2-methylcyclopropane
Formula: C8 H16
CAS: 38851-70-6
Molecular weight: 112
Origin: Y. INOUE, DEP. APPL. CHEM., HIMEJI INST. TECHNOL., HYOGO, JPN.
m/z	RELATIVE INTENSITY
41	5260
42	7170
43	1570
54	530
55	9999
56	7450
57	2430
67	420
68	700
69	4000
70	8980
71	970
82	880
83	3630
84	2250
97	490
112	3490
113	420
