Mass Spectrum: Methoxyacetyl chloride
Formula: C3 H5 Cl O2
CAS: 38870-89-2
Molecular weight: 108
Origin: NIST Mass Spectrometry Data Center
m/z	RELATIVE INTENSITY
12	60
13	190
14	671
15	2973
16	70
17	70
24	10
25	30
26	70
28	170
29	3353
30	280
31	70
35	130
36	80
37	40
38	20
40	20
41	110
42	781
43	110
45	9999
46	200
47	50
48	40
49	440
50	20
51	150
56	20
61	10
63	170
65	60
72	140
73	20
78	20
79	10
80	30
82	10
108	30
110	10
