Mass Spectrum: Acetamide, N-[2,4-bis(1,1-dimethylethyl)phenyl]-
Formula: C16 H25 N O
CAS: 38896-23-0
Molecular weight: 247
Origin: A.RIEKER CHEMISCHES INSTUTE DER UNIV. TUBINGEN, F.R.G.
m/z	RELATIVE INTENSITY
41	2600
43	2800
57	2900
77	700
91	1000
93	500
94	700
106	1000
115	800
117	800
118	700
132	800
133	700
134	1800
144	500
146	500
148	600
158	700
160	700
174	1700
190	9999
191	2800
192	500
232	8000
233	1500
247	3200
248	700
