Mass Spectrum: Benzene, pentafluoromethoxy-
Formula: C7 H3 F5 O
CAS: 389-40-2
Molecular weight: 198
Origin: Japan AIST/NIMC Database- Spectrum MS-IW-2372
m/z	RELATIVE INTENSITY
13	10
14	50
15	549
20	20
28	329
29	489
30	30
31	1409
32	60
33	20
36	30
37	20
39	10
43	40
44	10
45	10
48	10
50	10
51	70
55	309
56	30
57	20
60	20
61	20
62	50
63	10
67	60
68	40
69	2079
70	40
71	80
74	459
75	149
77	40
79	449
80	70
81	99
82	10
85	10
86	619
87	40
91	10
93	1309
94	40
95	20
98	619
99	589
100	40
101	509
102	30
105	1039
106	70
109	169
110	50
117	2839
118	189
119	419
120	269
121	10
124	219
125	10
129	20
130	20
131	99
132	20
133	20
136	499
137	139
143	10
148	139
149	239
150	109
151	70
155	9429
156	529
157	10
164	169
165	40
167	909
168	229
169	189
170	10
177	10
179	149
180	40
183	8059
184	549
185	30
195	189
196	10
197	179
198	9999
199	769
200	40
