Mass Spectrum: D-Glucose, 2,3,4,5,6-pentaacetate
Formula: C16 H22 O11
CAS: 3891-59-6
Molecular weight: 390
Origin: O A MAMER, MCGILL UNIVERSITY, MONTREAL,
m/z	RELATIVE INTENSITY
14	15
15	158
27	26
29	44
31	16
39	24
41	42
42	97
43	9999
44	252
45	39
53	23
54	16
55	44
56	23
57	54
60	64
61	107
68	26
69	173
70	112
71	76
73	401
74	29
80	82
81	254
82	40
83	18
84	40
85	259
86	147
87	20
89	14
96	31
97	337
98	1378
99	189
100	22
101	44
102	141
103	630
104	35
109	264
110	32
111	22
112	93
113	122
114	193
115	1980
116	195
117	24
122	14
125	37
126	214
127	179
128	35
129	21
131	72
138	12
139	164
140	514
141	90
142	15
143	99
144	62
145	420
146	33
155	139
156	35
157	1133
158	351
159	36
168	118
169	314
170	33
171	18
173	21
182	77
183	12
185	20
186	46
187	42
197	70
199	164
200	491
201	54
203	40
210	25
211	73
215	134
216	16
217	12
228	61
229	31
242	438
243	67
244	12
245	59
271	12
317	20
331	42
