Mass Spectrum: Cyclohexylphenylacetonitrile
Formula: C14 H17 N
CAS: 3893-23-0
Molecular weight: 199
Origin: NIST Mass Spectrometry Data Center
m/z	RELATIVE INTENSITY
15	50
18	10
27	691
28	220
29	631
30	10
37	10
39	1161
41	2232
42	110
43	140
50	170
51	400
52	130
53	310
55	3063
56	150
61	10
62	80
63	340
64	110
65	220
66	50
67	190
69	10
74	20
75	50
76	70
77	240
78	100
79	110
81	120
83	891
84	60
86	10
87	30
89	801
90	540
91	250
92	20
101	20
102	60
103	50
104	10
113	10
114	50
115	300
117	9999
118	921
119	30
126	10
127	40
128	90
129	20
140	20
141	10
142	20
199	270
200	50
