Mass Spectrum: p-di-n-Propoxybenzene
Formula: C12 H18 O2
CAS: 3898-41-7
Molecular weight: 194
Origin: Japan AIST/NIMC Database- Spectrum MS-NW-4334
m/z	RELATIVE INTENSITY
15	20
17	10
18	30
26	60
27	629
28	20
29	60
37	10
38	60
39	379
40	40
41	739
42	90
43	1069
44	40
50	60
51	50
52	60
53	139
54	99
55	99
62	30
63	139
64	179
65	309
66	50
67	20
68	10
74	10
75	10
76	40
77	40
78	10
79	30
80	20
81	399
82	139
91	30
92	20
93	119
94	50
95	60
105	10
107	30
108	20
109	1039
110	9999
111	669
112	60
121	10
123	109
124	10
135	10
136	10
137	20
151	60
152	899
153	90
154	10
165	40
193	10
194	2189
195	299
196	20
