Mass Spectrum: 2-Fluorophenyl isothiocyanate
Formula: C7 H4 F N S
CAS: 38985-64-7
Molecular weight: 153
Origin: NIST Mass Spectrometry Data Center, 1994
m/z	RELATIVE INTENSITY
25	36
26	169
27	174
31	574
32	344
33	108
36	72
37	500
38	524
39	456
44	451
45	475
46	89
48	36
49	250
50	1290
51	753
52	143
55	47
56	289
57	885
58	366
59	64
60	66
61	369
62	398
63	729
64	275
65	31
67	27
68	734
69	1182
70	859
71	105
72	61
73	181
74	846
75	3603
76	853
79	19
80	78
81	422
82	607
83	478
84	52
86	34
87	82
88	103
89	117
90	43
92	125
93	225
94	807
95	4020
96	294
99	48
100	115
101	59
102	123
106	75
107	57
108	337
109	1204
110	83
114	41
120	61
121	774
122	60
126	726
127	149
128	44
133	381
134	80
135	34
151	33
153	9999
154	826
155	464
156	37
