Mass Spectrum: 2,3-Dimethyl-para-anisaldehyde
Formula: C10 H12 O2
CAS: 38998-17-3
Molecular weight: 164
Origin: Chuck Anderson, Aldrich Chemical Co.
m/z	RELATIVE INTENSITY
15	21
26	45
27	422
28	64
29	209
30	14
31	23
32	2
37	62
38	254
39	1549
40	234
41	541
42	46
43	229
44	22
45	58
46	24
47	7
49	29
50	501
51	1320
52	431
53	638
54	58
55	233
56	16
57	17
59	30
60	40
61	66
62	286
63	867
64	226
65	1373
66	281
67	210
68	56
69	27
73	44
74	338
75	245
76	268
77	2587
78	752
79	1126
80	96
81	114
82	10
85	22
86	54
87	51
88	27
89	303
90	95
91	3820
92	492
93	303
94	51
95	23
96	7
97	7
98	28
99	9
101	32
102	193
103	889
104	409
105	3520
106	387
107	734
108	71
109	12
114	11
115	125
116	37
117	118
118	115
119	488
120	734
121	651
122	60
131	55
132	60
133	404
134	382
135	466
136	118
137	13
145	31
146	97
147	36
148	53
149	409
150	44
161	29
163	9999
164	7323
165	778
166	74
