Mass Spectrum: 3-Hexene, 3-methyl-, (E)-
Formula: C7 H14
CAS: 3899-36-3
Molecular weight: 98
m/z	RELATIVE INTENSITY
12	20
13	30
14	140
15	1171
16	40
24	10
25	20
26	380
27	3513
28	671
29	1732
30	40
31	10
32	20
36	10
37	120
38	360
39	3603
40	601
41	8918
42	691
43	781
44	30
45	10
46	10
47	10
48	10
49	30
50	320
51	581
52	230
53	1171
54	290
55	6476
56	1882
57	150
58	10
60	10
61	40
62	80
63	150
64	30
65	240
66	110
67	811
68	330
69	9999
70	1201
71	40
73	10
74	20
75	10
76	10
77	130
78	30
79	130
80	20
81	200
82	60
83	1421
84	90
85	10
91	10
93	10
95	10
96	10
97	20
98	2903
99	220
100	10
