Mass Spectrum: Fludiazepam
Formula: C16 H12 Cl F N2 O
CAS: 3900-31-0
Molecular weight: 302
Origin: Drug Lab
m/z	RELATIVE INTENSITY
42	270
50	230
51	330
52	100
57	220
61	80
62	220
63	490
64	130
65	110
66	90
68	110
69	120
70	90
72	60
73	230
74	380
75	1241
76	370
77	360
78	110
80	60
81	470
82	230
83	350
84	180
85	330
86	200
87	250
88	250
89	861
90	380
91	440
92	140
94	320
95	721
97	170
98	430
99	460
100	290
101	220
102	721
103	190
105	841
107	641
108	280
109	1952
111	941
112	470
113	350
114	220
115	150
116	290
117	991
118	420
119	1041
121	310
122	320
123	651
124	450
125	1451
126	581
127	841
128	210
129	190
130	90
131	230
132	170
133	460
134	561
135	250
136	530
137	641
138	561
139	230
140	170
141	80
142	120
143	220
144	601
145	250
146	160
147	70
148	50
149	310
150	691
151	490
152	550
153	140
154	160
155	180
156	180
157	360
158	160
161	80
162	160
163	971
164	370
165	480
166	280
167	180
168	611
169	851
170	971
171	220
174	70
175	180
176	460
177	1031
178	300
179	400
180	240
181	1001
182	741
183	2542
184	601
185	130
186	50
188	80
189	70
190	350
191	220
192	130
193	140
194	150
195	821
196	550
197	250
198	110
199	120
201	60
202	100
203	160
204	190
205	160
206	100
207	60
208	290
209	270
210	400
211	1181
212	260
213	120
216	50
217	300
218	150
219	250
220	100
221	100
222	150
223	691
224	270
225	80
226	60
227	50
228	50
230	50
231	450
232	170
233	220
234	60
236	60
237	370
238	330
239	1932
240	480
241	160
242	50
244	90
245	200
246	510
247	190
248	300
249	60
251	70
252	50
253	130
254	60
255	80
256	330
257	661
258	270
259	1321
260	290
261	380
262	70
266	410
267	370
268	160
271	90
273	4764
274	9999
275	4774
276	3703
277	1081
278	130
282	260
283	3343
284	721
285	1141
286	410
287	80
288	70
301	8388
302	7287
303	3934
304	2462
305	400
