Mass Spectrum: Cyclotrisiloxane, 2,4,6-triethenyl-2,4,6-trimethyl-
Formula: C9 H18 O3 Si3
CAS: 3901-77-7
Molecular weight: 258
Origin: RADIAN CORP
m/z	RELATIVE INTENSITY
14	30
15	90
26	70
27	1070
29	50
39	330
40	50
41	270
42	70
43	70
45	310
47	40
52	10
53	250
54	420
55	120
59	170
60	20
61	280
65	10
66	50
67	60
69	90
71	120
72	40
73	140
74	120
75	760
76	60
77	70
79	140
80	80
81	260
82	550
83	30
85	240
86	60
87	440
88	280
89	780
90	20
91	70
93	50
94	200
95	580
97	70
99	110
100	200
101	380
102	220
103	1170
104	170
105	620
106	70
107	80
108	150
109	10
113	180
114	90
115	340
116	50
117	160
118	30
119	1950
120	250
121	250
125	20
127	50
129	270
130	40
131	450
132	150
133	1330
134	200
135	350
136	30
137	20
139	20
141	40
143	390
144	70
145	540
146	160
147	1350
148	280
149	1060
150	170
151	160
153	30
155	40
157	210
158	30
159	290
160	60
161	180
162	120
163	2930
164	570
165	1840
166	280
167	170
173	220
174	70
175	660
176	180
177	1700
178	360
179	2430
180	420
181	270
182	20
187	250
188	150
189	3270
190	650
191	950
192	170
193	130
194	10
199	50
201	340
202	150
203	4470
204	1270
205	1410
206	270
207	110
213	60
214	30
215	5110
216	1350
217	2710
218	570
219	300
220	30
227	140
228	30
229	460
230	1240
231	2320
232	640
233	290
234	40
239	200
240	50
241	1160
242	300
243	9999
244	2270
245	1300
246	220
247	50
257	40
258	40
