Mass Spectrum: 2-Propenoic acid, 3-(4-methoxyphenyl)-, methyl ester, (E)-
Formula: C11 H12 O3
CAS: 3901-07-3
Molecular weight: 192
Origin: NIST Mass Spectrometry Data Center
m/z	RELATIVE INTENSITY
15	180
17	10
26	30
27	70
29	100
30	30
31	30
37	30
38	140
39	360
40	40
41	30
43	20
44	20
45	50
46	10
49	20
50	410
51	711
52	150
53	200
54	20
55	90
57	10
59	180
60	10
61	90
62	410
63	1291
64	631
65	220
66	100
67	10
68	10
69	60
73	40
74	230
75	280
76	300
77	1131
78	280
79	490
80	240
82	110
83	10
85	50
86	40
87	90
88	70
89	2022
90	1381
91	410
92	540
93	60
94	30
95	10
96	50
97	10
98	50
99	10
100	10
101	200
102	510
103	681
104	100
105	150
106	60
107	60
108	50
109	30
115	90
116	60
117	450
118	1611
119	420
120	50
121	370
122	30
129	20
130	20
131	160
132	871
133	3343
134	1481
135	210
136	20
137	10
138	10
144	20
145	80
146	350
147	190
148	70
149	240
150	30
151	80
152	10
159	50
161	9999
162	1091
163	100
164	40
174	20
175	20
176	30
177	120
178	10
191	300
192	6336
193	731
194	80
195	10
