Mass Spectrum: Naphthalene, 2,6-bis(1,1-dimethylethyl)-
Formula: C18 H24
CAS: 3905-64-4
Molecular weight: 240
Origin: Japan AIST/NIMC Database- Spectrum MS-NW-9498
m/z	RELATIVE INTENSITY
27	20
28	50
29	259
39	80
40	10
41	719
42	20
43	20
44	10
51	30
53	20
55	80
57	4909
58	219
63	40
64	90
65	10
69	30
70	30
71	10
75	20
76	309
77	1259
78	20
81	30
82	209
83	299
84	60
87	10
88	40
89	279
90	219
91	909
92	10
94	30
95	10
96	20
97	10
98	20
101	10
102	20
103	10
104	50
105	459
112	50
113	10
115	109
116	10
126	30
127	70
128	209
129	179
130	20
139	60
140	20
141	649
142	90
143	10
150	20
151	80
152	329
153	329
154	169
155	129
156	20
163	20
164	30
165	399
166	159
167	389
168	139
169	559
170	80
176	30
177	20
178	119
179	139
180	80
181	139
182	99
183	50
184	10
189	30
190	10
191	30
192	10
193	30
194	30
195	419
196	70
197	219
198	30
209	149
210	349
211	70
223	20
224	10
225	9999
226	1889
227	169
240	2949
241	579
242	50
