Mass Spectrum: 1-Butanamine, N-(1-methylethyl)-
Formula: C7 H17 N
CAS: 39099-23-5
Molecular weight: 115
Origin: CARL DJERASSI DEPT OF CHEM STANFORD UNIV STANFORD CALIF 94305
m/z	RELATIVE INTENSITY
27	784
28	9999
29	784
30	4117
31	98
32	882
39	392
40	294
41	1176
42	392
43	1274
44	2450
45	196
53	98
54	98
55	392
56	1372
57	1764
58	2254
59	98
69	98
70	490
71	196
72	9803
73	686
84	98
85	98
98	98
100	3529
101	294
114	196
115	392
116	98
