Mass Spectrum: 3-Bromobenzoic acid hydrazide
Formula: C7 H7 Br N2 O
CAS: 39115-96-3
Molecular weight: 214
Origin: NIST Mass Spectrometry Data Center, 1994
m/z	RELATIVE INTENSITY
16	227
17	105
18	150
26	121
27	131
28	204
29	851
30	493
31	1987
32	62
37	393
38	712
39	253
43	108
44	157
49	563
50	4621
51	1096
52	192
53	169
61	135
62	185
63	204
64	108
72	81
73	414
74	2397
75	4696
76	4799
77	673
78	126
79	131
81	157
90	95
102	103
103	91
104	437
105	147
129	170
131	141
155	5541
157	5466
158	370
181	92
183	9999
184	745
185	9656
186	734
214	2168
215	185
216	2132
217	180
