Mass Spectrum: 2-Decenal, (E)-
Formula: C10 H18 O
CAS: 3913-81-3
Molecular weight: 154
Origin: MASS SPECTRA OF ORGANIC COMPOUNDS, V. 6, B. H. KENNETT ET AL, DIV. OF FOOD RESEARCH, CSIRO, AUSTRALIA
m/z	RELATIVE INTENSITY
27	5000
29	6700
39	4500
41	8800
42	2400
43	9999
53	1600
54	1600
55	7000
56	3000
57	4600
67	1800
68	1900
69	3200
70	7000
71	1000
72	800
77	300
79	800
80	500
81	2200
82	1000
83	5100
84	2000
85	500
86	1200
93	700
94	600
95	900
97	1900
98	2200
107	800
108	400
110	1500
111	900
112	500
121	500
123	400
125	300
136	700
154	200
