Mass Spectrum: Furan, tetrahydro-2,4-dimethyl-, trans-
Formula: C6 H12 O
CAS: 39168-02-0
Molecular weight: 100
Origin: SHELL RESEARCH LIMITED THORNTON RESEARCH CENTRE
m/z	RELATIVE INTENSITY
26	196
27	1071
28	710
29	1475
31	196
38	150
39	2571
40	414
41	7142
42	3071
43	3964
44	746
53	389
54	235
55	7000
56	7107
57	2857
58	339
59	128
67	664
69	160
70	2535
71	135
85	9999
86	414
99	321
100	1082
