Mass Spectrum: Furan, tetrahydro-2,4-dimethyl-, cis-
Formula: C6 H12 O
CAS: 39168-01-9
Molecular weight: 100
Origin: SHELL RESEARCH LIMITED THORNTON RESEARCH CENTRE
m/z	RELATIVE INTENSITY
26	401
27	1035
28	625
29	1401
39	1482
40	526
41	8035
42	2053
43	2991
45	723
53	491
55	7589
56	7142
57	1660
58	491
67	758
70	1580
85	9999
86	437
99	517
100	1330
