Mass Spectrum: 4-Hydroxy-4'-nitrobiphenyl
Formula: C12 H9 N O3
CAS: 3916-44-7
Molecular weight: 215
Origin: NIST Mass Spectrometry Data Center, 1994
m/z	RELATIVE INTENSITY
16	22
17	14
18	138
26	112
27	369
28	306
29	14
30	2876
37	113
38	431
39	1664
40	129
41	2
42	64
44	16
46	325
50	1024
51	1307
52	204
53	444
54	39
55	269
56	59
58	194
61	196
62	921
63	1869
64	451
65	610
66	123
67	45
68	48
69	39
70	412
71	154
73	60
74	611
75	991
76	504
77	749
78	122
79	63
81	26
84	849
86	465
87	669
88	544
89	1238
90	203
91	265
92	74
94	29
97	34
98	201
99	190
100	90
101	216
102	412
103	191
104	23
107	23
109	40
110	103
111	115
112	23
113	647
114	582
115	4670
116	500
117	46
118	441
119	57
122	27
123	18
125	74
126	175
127	543
128	1154
129	193
130	57
131	386
132	55
134	17
137	147
139	4226
140	1231
141	3044
142	540
143	92
150	353
151	754
152	672
153	104
154	48
155	87
156	48
157	3171
158	388
159	30
168	1686
169	1589
170	222
171	23
185	4461
186	565
187	61
197	21
199	119
215	9999
216	1358
217	85
