Mass Spectrum: 1-Propene, 3-(ethenyloxy)-
Formula: C5 H8 O
CAS: 3917-15-5
Molecular weight: 84
m/z	RELATIVE INTENSITY
13	30
14	160
15	550
16	10
17	10
18	30
19	20
24	10
25	50
26	430
27	1341
28	641
29	1021
30	80
31	430
32	20
36	20
37	180
38	330
39	4004
40	420
41	9999
42	1051
43	1081
44	681
45	140
50	20
51	20
52	10
53	100
54	80
55	2282
56	1401
57	430
58	70
59	20
65	20
66	50
67	20
68	10
69	340
70	20
81	10
82	60
83	500
84	1081
85	70
