Mass Spectrum: N-sec-Butyl-n-propylamine
Formula: C7 H17 N
CAS: 39190-67-5
Molecular weight: 115
Origin: Japan AIST/NIMC Database- Spectrum MS-NW-4687
m/z	RELATIVE INTENSITY
15	129
26	70
27	769
28	519
29	849
30	3899
31	60
37	10
38	30
39	379
40	70
41	1349
42	549
43	1049
44	4849
45	139
50	10
51	20
52	20
53	50
54	80
55	259
56	509
57	679
58	1579
59	60
60	10
67	10
68	40
69	10
70	219
71	30
72	239
73	10
82	20
84	199
85	30
86	9999
87	589
88	20
98	40
100	1269
101	90
113	20
114	169
115	109
116	10
