Mass Spectrum: Benzene, hexafluoro-
Formula: C6 F6
CAS: 392-56-3
Molecular weight: 186
Origin: Japan AIST/NIMC Database- Spectrum MS-NW-3049
m/z	RELATIVE INTENSITY
12	10
24	10
31	1199
32	10
36	50
43	10
44	20
48	20
55	159
60	30
62	20
67	30
69	359
74	269
75	10
79	409
80	20
83	10
85	20
86	319
87	10
93	1589
94	50
98	529
99	30
105	179
110	40
117	4959
118	269
124	149
129	10
131	10
136	939
137	50
148	80
155	1539
156	80
167	1339
168	90
186	9999
187	639
188	20
