Mass Spectrum: 2,6-Dichloro-4-fluorophenol
Formula: C6 H3 Cl2 F O
CAS: 392-71-2
Molecular weight: 180
Origin: Japan AIST/NIMC Database- Spectrum MS-IW-4869
m/z	RELATIVE INTENSITY
25	20
26	10
28	30
29	30
31	309
35	20
36	80
37	99
38	50
39	10
40	139
41	20
42	10
43	10
44	10
45	10
47	30
48	159
49	109
50	90
51	20
53	229
54	60
55	90
56	139
57	189
58	489
59	159
60	90
61	299
62	199
63	99
64	10
65	20
66	129
67	249
68	30
69	60
71	30
72	379
73	199
74	60
75	30
76	30
77	30
79	50
80	209
81	3429
82	349
83	40
84	50
85	30
86	10
87	30
89	10
90	549
91	729
92	109
93	169
94	10
95	30
96	40
97	80
98	20
99	20
101	30
103	20
107	20
108	20
109	99
110	50
114	20
115	169
116	4219
117	719
118	1399
119	209
120	10
125	20
127	20
128	20
130	10
131	10
133	10
143	10
144	2339
145	169
146	899
147	60
148	50
151	289
152	20
153	179
154	10
155	30
179	90
180	9999
181	719
182	6439
183	429
184	1039
185	60
