Mass Spectrum: Benzaldehyde, 4-((4-(dimethylamino)phenyl)azo)-
Formula: C15 H15 N3 O
CAS: 39208-00-9
Molecular weight: 253
Origin: MUS203 A. Mujsce, AT&T Bell Labs., Murray Hill, N.J., USA
m/z	RELATIVE INTENSITY
27	75
29	83
30	48
36	89
37	37
38	121
39	209
42	1525
43	134
44	164
50	314
51	884
52	174
53	81
55	63
57	54
62	51
63	343
64	186
65	316
66	138
67	48
73	31
74	95
75	132
76	443
77	2027
78	815
79	1048
80	218
84	22
88	33
89	49
90	365
91	873
92	517
93	363
94	95
102	48
103	251
104	1326
105	1935
106	237
107	57
113	51
115	43
116	48
117	133
118	645
119	677
120	6448
121	662
126	118
127	94
128	27
129	27
133	95
134	56
139	64
140	51
141	51
145	28
148	1387
149	192
150	51
151	87
152	284
153	94
154	45
155	37
160	24
164	46
165	34
166	55
167	52
168	32
170	34
180	52
181	99
183	28
196	48
197	43
208	91
209	134
210	119
211	47
212	35
222	31
224	180
225	199
226	92
237	28
238	40
239	106
241	25
250	32
253	9999
254	1712
255	184
