Mass Spectrum: 2-Amino-5-tert-butyl-1,3,4-thiadiazole
Formula: C6 H11 N3 S
CAS: 39222-73-6
Molecular weight: 157
Origin: NIST Mass Spectrometry Data Center, 1994
m/z	RELATIVE INTENSITY
13	100
15	300
26	215
27	1044
28	48
29	797
30	117
37	124
38	272
39	1975
40	374
41	2706
42	737
43	634
44	105
45	870
46	153
47	494
50	226
51	284
52	220
53	567
54	105
55	498
56	144
57	1289
58	313
59	627
60	2343
61	165
62	183
65	88
67	406
68	211
69	379
70	188
71	473
72	138
73	233
74	1688
75	1162
76	134
77	86
81	140
82	142
83	262
84	171
85	293
86	117
87	763
100	587
101	250
114	153
115	613
125	253
142	9999
143	705
144	545
153	99
156	371
157	2160
158	236
159	103
160	7
