Mass Spectrum: 2-Isobutoxyethyl acetate
Formula: C8 H16 O3
CAS: 39220-44-5
Molecular weight: 160
Origin: Japan AIST/NIMC Database- Spectrum MS-IW-3547
m/z	RELATIVE INTENSITY
14	70
15	729
16	20
17	10
18	30
26	99
27	1139
28	749
29	3109
30	119
31	389
32	10
37	10
38	40
39	899
40	159
41	4699
42	719
43	9219
44	1379
45	2079
46	50
47	10
50	10
51	20
52	10
53	80
54	30
55	499
56	7349
57	9999
58	1319
59	159
60	129
61	1329
62	30
63	20
67	20
69	30
70	349
71	349
72	309
73	789
74	1259
75	489
76	20
77	10
82	30
85	80
86	109
87	9879
88	2079
89	149
90	10
100	1879
101	139
102	10
103	40
105	60
115	20
116	20
117	289
118	10
160	10
161	30
