Mass Spectrum: Isothiazole, trimethyl-
Formula: C6 H9 N S
CAS: 39228-36-9
Molecular weight: 127
m/z	RELATIVE INTENSITY
39	700
42	800
45	1100
53	860
59	1300
71	3170
73	650
85	1850
86	2000
94	1000
112	4000
126	2060
127	9999
