Mass Spectrum: 1,2,3,4,7,8-Hexachlorodibenzodioxin
Formula: C12 H2 Cl6 O2
CAS: 39227-28-6
Molecular weight: 388
Origin: USEPA, J EICHELBERGER CINCINNATI
m/z	RELATIVE INTENSITY
36	1057
37	291
38	451
41	65
42	75
44	511
47	105
49	406
50	2064
53	671
56	55
57	997
60	586
61	797
62	1778
63	1668
65	316
66	155
67	140
69	5
70	115
71	1498
72	706
73	1242
74	4158
75	441
76	225
77	957
78	646
79	336
81	341
83	837
84	1368
85	3467
86	927
87	2209
88	150
89	1032
90	105
91	140
94	531
95	1713
96	1458
97	4709
98	616
99	1728
101	311
102	306
103	50
104	125
105	391
106	266
107	1783
108	2385
109	3927
111	3822
112	180
113	4589
114	771
115	1182
116	376
118	1974
119	1428
120	2059
122	1608
123	235
127	706
130	2901
131	2645
132	5360
133	2109
134	1478
136	271
137	496
138	30
139	170
140	250
141	301
142	4839
143	1057
144	3953
145	551
146	1162
147	1082
148	1127
149	2209
150	992
151	195
153	1713
154	225
155	1854
156	1032
157	1222
159	2239
160	1994
161	972
162	1478
163	2314
165	3597
166	616
167	2445
168	907
169	641
170	250
172	240
174	311
175	55
177	1578
179	1698
181	2054
182	130
183	932
185	421
186	160
187	60
188	541
190	1102
191	701
192	2199
194	5020
195	5000
196	4769
197	1463
198	837
202	556
205	50
207	897
209	581
210	60
211	586
212	716
213	85
214	721
215	546
216	441
217	245
218	200
219	636
220	85
221	726
222	411
223	195
225	160
226	471
227	1267
228	817
229	1292
230	606
231	792
233	215
235	225
237	225
238	125
239	556
241	356
247	100
249	20
251	110
253	271
255	1122
256	140
257	761
258	135
259	416
260	301
262	5240
263	266
264	7294
265	596
266	3557
268	776
281	215
283	481
290	276
291	245
292	461
293	356
294	331
297	556
298	160
299	701
301	346
311	341
313	120
314	135
317	115
318	466
320	556
321	100
322	155
325	3316
326	576
327	5551
328	225
329	3862
330	606
331	1177
332	130
333	135
353	661
354	321
355	972
356	481
357	591
359	115
372	341
374	666
376	546
388	4974
389	516
390	9999
391	731
392	7915
393	591
394	3422
395	481
396	776
