Mass Spectrum: 3,5-Bis(trifluoromethyl)benzenesulfonyl chloride
Formula: C8 H3 Cl F6 O2 S
CAS: 39234-86-1
Molecular weight: 312
Origin: NIST Mass Spectrometry Data Center, 1994
m/z	RELATIVE INTENSITY
12	9
15	15
16	18
19	34
20	26
31	256
33	8
35	208
36	52
37	171
38	156
39	46
43	6
44	7
45	95
46	6
47	6
48	548
49	93
50	452
51	184
52	9
53	21
55	17
56	77
57	213
58	16
61	115
62	202
63	331
64	283
65	51
66	17
69	1347
70	34
71	9
73	159
74	783
75	1477
76	89
77	10
79	41
80	98
81	179
82	49
83	64
84	17
85	77
86	51
87	98
88	60
89	7
92	95
93	291
94	304
95	93
97	39
99	482
100	64
101	120
102	8
103	37
104	63
105	113
106	90
107	45
108	5
109	8
111	39
112	82
113	214
114	21
117	57
118	72
119	78
120	10
121	7
123	240
124	144
125	594
126	55
127	9
129	77
130	27
131	69
132	245
133	23
135	7
136	18
137	48
139	22
141	19
143	1426
144	1396
145	127
146	9
148	9
149	10
150	30
151	31
154	7
155	28
156	20
157	40
158	8
159	13
163	2553
164	265
165	13
166	8
167	10
168	8
169	26
173	30
174	66
175	58
176	35
177	10
179	133
181	162
182	127
183	81
184	6
185	7
187	8
189	21
190	4
193	415
194	624
195	76
197	20
198	36
199	13
200	40
201	30
202	5
205	5
207	5
208	11
209	12
210	24
213	9999
214	885
215	46
217	9
221	5
225	80
226	16
227	15
229	151
230	23
231	39
233	72
234	6
235	6
242	7
243	7
245	28
246	18
248	68
249	19
250	22
261	190
262	23
263	10
274	5
277	6310
278	669
279	343
280	33
281	6
293	1835
294	273
295	697
296	61
297	34
298	4
312	235
313	40
314	85
315	12
316	5
