Mass Spectrum: Pentanoic acid, 2-methyl-, ethyl ester
Formula: C8 H16 O2
CAS: 39255-32-8
Molecular weight: 144
Origin: NIST Mass Spectrometry Data Center, 2010
m/z	RELATIVE INTENSITY
14	10
15	60
19	10
25	10
26	160
27	1481
28	450
29	2562
30	160
31	110
37	20
38	70
39	1161
40	210
41	2442
42	1051
43	6876
44	310
45	851
46	30
47	50
50	40
51	70
52	40
53	250
54	80
55	1661
56	941
57	330
58	60
59	220
60	40
61	10
62	10
63	20
64	10
65	40
66	10
67	70
68	60
69	571
70	520
71	5785
72	330
73	1471
74	8037
75	671
76	60
77	10
79	10
80	10
81	20
82	10
83	110
84	110
85	20
86	10
87	1782
88	130
89	20
96	10
97	50
98	70
99	2722
100	190
101	761
102	9999
103	591
104	60
114	10
115	1381
116	150
117	190
118	10
129	150
130	10
144	20
