Mass Spectrum: Furfuryl hexanoate
Formula: C11 H16 O3
CAS: 39252-02-3
Molecular weight: 196
Origin: Chuck Anderson, Aldrich Chemical Co.
m/z	RELATIVE INTENSITY
15	19
18	2
26	45
27	548
28	78
29	345
30	2
31	7
37	15
38	49
39	385
40	57
41	563
42	254
43	1177
44	67
45	24
50	74
51	188
52	839
53	973
54	66
55	265
56	32
57	26
60	15
66	2
67	22
68	38
69	396
70	167
71	792
72	40
73	114
75	5
79	30
80	864
81	9999
82	1162
83	86
89	20
94	22
95	172
96	40
97	723
98	3226
99	1002
100	64
107	25
109	109
110	8
115	86
117	14
121	2
123	144
124	8
136	58
137	5
167	113
168	5
196	715
197	84
198	4
