Mass Spectrum: Benzo[f]quinoline, 2-methyl-
Formula: C14 H11 N
CAS: 39258-30-5
Molecular weight: 193
Origin: Organic Synthesis Lab, MSU, Moscow.TRC 190q
m/z	RELATIVE INTENSITY
40	10
41	10
42	40
50	120
51	130
52	40
61	30
62	130
63	270
64	30
65	30
73	10
74	270
75	320
76	260
77	100
78	10
82	160
85	30
86	130
87	190
88	70
89	90
98	140
99	140
100	80
101	60
102	50
103	10
109	10
110	40
111	60
112	30
113	110
114	40
115	80
116	10
122	30
123	30
124	30
125	110
126	240
127	90
128	10
135	10
137	50
138	40
139	300
140	180
141	30
149	90
150	691
151	941
152	510
153	110
154	10
161	10
162	40
163	240
164	320
165	1121
166	240
167	120
175	30
176	80
177	430
178	380
179	40
188	30
189	30
190	300
191	691
192	1411
193	9999
194	1441
195	100
