Mass Spectrum: Benzenamine, 4-fluoro-2-(trifluoromethyl)-
Formula: C7 H5 F4 N
CAS: 393-39-5
Molecular weight: 179
Origin: Japan AIST/NIMC Database- Spectrum MS-IW-2189
m/z	RELATIVE INTENSITY
20	30
26	20
27	30
28	289
29	10
31	289
32	30
33	40
36	10
37	99
38	119
39	129
40	40
41	90
42	10
44	40
45	20
46	119
48	10
49	20
50	159
51	169
52	319
53	40
54	219
55	80
56	209
57	549
58	50
59	20
60	20
61	159
62	219
63	729
64	129
65	90
66	149
68	80
69	269
70	119
71	10
72	30
73	20
74	80
75	399
76	70
77	20
78	20
79	569
80	369
81	599
82	399
83	509
84	60
85	20
86	20
87	70
88	239
89	189
90	139
91	20
92	30
93	90
94	279
95	139
96	70
99	119
100	80
101	629
102	90
103	10
105	20
106	129
107	40
108	239
109	529
110	99
111	30
112	149
113	289
114	70
115	40
117	10
118	10
119	40
120	299
121	30
123	10
124	10
125	30
126	20
127	10
128	80
129	229
130	40
131	189
132	9999
133	709
134	20
137	10
138	209
139	179
140	539
141	50
143	30
144	10
150	50
151	419
152	40
157	80
158	389
159	6329
160	2079
161	149
163	50
177	10
178	479
179	8699
180	699
181	20
