Mass Spectrum: Benzoyl chloride, 2-fluoro-
Formula: C7 H4 Cl F O
CAS: 393-52-2
Molecular weight: 158
Origin: NIST Mass Spectrometry Data Center, 1998.
m/z	RELATIVE INTENSITY
25	10
26	30
27	20
29	10
31	100
32	10
33	10
35	50
36	40
37	220
38	170
39	110
43	10
44	20
45	50
47	190
49	190
50	850
51	360
52	20
53	40
55	20
56	100
57	140
60	40
61	530
63	230
64	20
65	40
66	10
67	10
68	510
69	560
70	40
71	30
72	20
73	140
74	620
75	2200
76	190
77	30
79	10
80	30
81	30
84	20
85	30
86	20
87	10
90	20
91	10
92	110
93	160
94	430
95	4000
96	280
97	20
103	10
104	10
105	10
107	30
109	20
111	10
121	20
123	9999
124	820
125	50
129	20
130	20
132	10
158	360
159	30
160	120
161	10
