Mass Spectrum: 5-Amino-2-nitrobenzotrifluoride
Formula: C7 H5 F3 N2 O2
CAS: 393-11-3
Molecular weight: 206
Origin: NIST Mass Spectrometry Data Center, 1994
m/z	RELATIVE INTENSITY
16	91
26	85
27	36
28	1222
29	36
30	3467
31	126
33	45
37	399
38	714
39	803
40	367
41	1692
42	129
44	106
45	70
46	695
49	74
50	410
51	689
52	1685
53	418
54	351
55	61
56	181
57	500
58	50
60	77
61	564
62	1065
63	2970
64	1299
65	781
66	646
67	81
68	126
69	874
70	195
71	90
72	139
73	73
74	214
75	830
76	250
77	193
78	356
79	541
80	124
81	391
82	198
83	1456
84	147
85	37
86	63
87	273
88	404
89	404
90	622
91	827
92	107
93	256
94	180
95	492
96	150
97	37
98	814
99	271
100	318
101	1042
102	216
103	71
105	268
106	132
107	159
108	249
109	198
110	535
111	85
112	302
113	3485
114	686
115	107
120	2372
121	328
122	117
126	72
127	118
128	1062
129	175
131	119
132	612
133	1649
134	155
138	72
139	289
140	2615
141	212
142	72
143	570
144	66
148	2071
149	140
158	130
160	5799
161	451
176	9999
177	809
178	66
187	195
190	481
206	6394
207	602
208	51
