Mass Spectrum: 5-Amino-2-bromobenzotrifluoride
Formula: C7 H5 Br F3 N
CAS: 393-36-2
Molecular weight: 239
Origin: Chuck Anderson, Aldrich Chemical Co.
m/z	RELATIVE INTENSITY
26	19
27	58
28	504
31	158
37	255
38	404
39	422
40	203
41	813
42	37
44	168
45	186
46	69
49	51
50	259
51	189
52	610
53	87
54	150
55	92
56	93
57	262
60	63
61	490
62	880
63	2045
64	806
65	514
66	159
68	84
69	589
70	355
71	100
72	55
73	75
74	287
75	454
76	94
79	221
80	2869
81	450
82	110
83	685
84	67
86	19
87	178
88	305
89	294
90	592
91	578
92	78
93	131
94	131
95	284
96	89
99	173
100	119
101	9
106	102
107	56
108	78
109	133
110	401
111	154
112	230
113	1647
114	458
115	53
116	9
117	63
118	34
119	177
120	1349
121	183
122	64
131	116
132	1079
133	937
134	75
138	87
139	379
140	2229
141	326
143	429
144	54
145	118
158	117
159	369
160	2996
161	248
189	411
191	422
192	610
194	603
218	55
219	259
220	880
221	294
222	859
223	58
238	117
239	9999
240	706
241	9885
242	653
