Mass Spectrum: 4,6-di-t-Butylpyrogallol
Formula: C14 H22 O3
CAS: 3934-77-8
Molecular weight: 238
Origin: NIST Mass Spectrometry Data Center, 1994
m/z	RELATIVE INTENSITY
14	35
15	360
16	45
17	53
18	93
19	328
27	478
28	140
29	1127
30	61
31	44
39	695
40	91
41	1618
42	135
43	667
44	44
45	89
50	60
51	273
52	115
53	356
54	69
55	566
56	44
57	4202
58	254
59	62
60	39
62	53
63	133
64	70
65	383
66	198
67	303
68	57
69	201
70	10
71	85
72	47
73	42
74	26
75	72
76	699
77	729
78	146
79	338
80	89
81	156
82	112
83	91
87	46
89	224
90	891
91	735
92	122
93	122
94	42
95	4
96	51
97	18
101	35
102	96
103	282
104	359
105	349
106	85
107	171
108	30
109	46
110	14
111	67
112	26
115	294
116	77
117	161
118	67
119	187
120	85
121	192
122	22
123	103
124	52
125	60
126	60
127	81
128	172
129	80
130	62
131	185
132	74
133	229
134	83
135	175
136	36
139	477
140	91
141	67
143	79
144	51
145	82
146	60
147	183
148	67
149	157
150	17
151	132
153	153
154	37
157	38
158	28
159	78
160	42
161	135
162	57
163	117
164	57
166	33
167	272
168	50
171	31
173	52
174	39
175	36
177	72
179	435
181	256
182	36
189	36
190	23
191	50
193	185
195	451
196	68
205	31
207	445
208	64
209	57
219	30
221	26
223	9999
224	1685
225	178
238	1493
239	236
240	16
