Mass Spectrum: 5-Fluoro-2-hydroxyacetophenone
Formula: C8 H7 F O2
CAS: 394-32-1
Molecular weight: 154
Origin: Japan AIST/NIMC Database- Spectrum MS-NW-9900
m/z	RELATIVE INTENSITY
14	10
15	109
18	20
26	20
27	40
28	109
29	40
31	129
32	10
33	20
37	40
38	70
39	149
40	10
41	10
42	60
43	1739
44	50
45	20
48	10
49	20
50	129
51	179
52	30
53	139
54	20
55	70
56	99
57	909
58	40
61	90
62	119
63	379
64	70
65	10
66	10
67	10
68	50
69	159
70	70
71	30
73	30
74	60
75	90
76	10
77	189
78	10
79	10
80	30
81	259
82	289
83	1999
84	209
85	20
86	10
87	10
89	10
92	20
93	20
94	50
95	99
96	50
97	99
98	10
105	20
107	149
108	199
109	30
110	139
111	2559
112	379
113	20
123	10
125	60
136	159
137	20
138	30
139	9999
140	769
141	70
154	6239
155	569
156	40
