Mass Spectrum: 11-Eicosenoic acid, methyl ester
Formula: C21 H40 O2
CAS: 3946-08-5
Molecular weight: 324
Origin: R.T.HOLMAN,UNIVERSITY OF MINNESOTA
m/z	RELATIVE INTENSITY
39	1100
40	200
41	7200
42	1400
43	6300
44	300
45	300
53	800
54	2400
55	9999
56	2700
57	3900
58	300
59	1500
65	200
66	200
67	3200
68	2100
69	7300
70	2100
71	1500
72	100
73	500
74	5700
75	1000
77	200
78	100
79	700
80	400
81	2800
82	2100
83	5600
84	3900
85	1000
86	100
87	3800
88	400
91	300
92	100
93	400
94	500
95	2300
96	3700
97	4600
98	3200
99	500
100	100
101	700
102	100
105	200
107	300
108	400
109	1300
110	2000
111	2200
112	800
113	300
114	400
115	700
116	100
119	300
120	100
121	500
122	200
123	1300
124	1100
125	1200
126	300
127	300
128	600
129	600
130	200
133	200
134	300
135	400
136	200
137	800
138	900
139	900
140	200
141	700
142	200
143	700
144	100
147	200
148	200
149	300
150	100
151	600
152	800
153	500
154	100
155	100
157	200
161	200
163	200
165	400
166	400
167	300
168	100
169	100
171	200
175	100
177	100
179	300
180	300
181	200
183	100
185	200
189	100
192	100
193	200
194	500
195	200
197	200
199	200
207	200
208	1100
209	300
211	100
213	100
221	200
222	300
223	100
227	100
235	200
236	200
241	100
242	100
248	400
249	300
250	1400
251	300
263	200
264	200
274	300
275	100
281	100
292	5200
293	2300
294	400
324	900
325	200
