Mass Spectrum: Hexabutylthiophosphoramide
Formula: C24 H54 N3 P S
CAS: 3949-47-1
Molecular weight: 447
Origin: NIST Mass Spectrometry Data Center, 1994
m/z	RELATIVE INTENSITY
4	23
14	21
15	42
17	42
18	222
27	469
28	313
29	2247
30	1318
32	15
38	18
39	192
41	2341
42	904
43	646
44	1084
45	28
46	430
47	25
48	29
53	34
54	68
55	412
56	398
57	1593
58	106
59	1
60	258
61	44
62	285
63	273
65	32
68	49
70	528
72	584
73	158
74	89
75	1
76	669
77	28
78	21
80	78
82	35
84	740
85	125
86	1668
87	129
88	39
90	27
91	18
92	133
94	94
95	599
96	24
97	33
98	61
99	80
100	104
101	18
102	426
103	42
104	67
105	37
106	210
107	115
108	85
109	82
112	77
114	27
116	248
118	1785
119	139
120	43
121	52
126	408
128	9999
129	1019
130	205
131	36
132	60
134	89
135	30
136	74
142	14
144	23
146	19
148	153
149	20
150	88
151	167
152	18
156	61
158	322
160	1120
161	134
162	32
163	31
175	21
176	16
177	57
187	14
188	40
189	34
190	156
191	55
192	210
193	31
199	29
207	67
219	130
220	21
229	19
231	72
232	30
233	26
261	106
262	21
263	126
275	32
277	32
285	32
287	4424
288	849
289	78
319	2254
320	498
321	148
322	19
404	16
447	405
448	139
450	42
