Mass Spectrum: 2-Trifluoromethylbenzyl bromide
Formula: C8 H6 Br F3
CAS: 395-44-8
Molecular weight: 238
Origin: NIST Mass Spectrometry Data Center
m/z	RELATIVE INTENSITY
12	20
17	20
19	20
26	90
27	120
28	120
31	110
32	90
33	90
37	90
38	210
39	390
40	20
43	20
44	50
45	30
49	70
50	370
51	370
52	60
56	40
57	140
59	40
61	130
62	420
63	751
64	160
69	450
70	140
73	30
74	90
75	210
76	40
77	30
79	260
80	70
81	270
82	60
83	260
84	20
85	60
86	110
87	150
88	180
89	661
90	220
93	30
94	30
95	60
97	20
99	180
101	30
107	220
109	2422
110	200
111	30
112	40
113	80
114	130
119	661
120	100
121	20
125	60
126	30
127	40
132	90
133	40
137	90
138	210
139	320
140	410
141	30
157	80
159	9999
160	891
161	50
169	30
171	30
194	40
205	20
219	160
220	20
221	140
238	360
239	50
240	310
241	30
