Mass Spectrum: 4-Aminobutanoic acid, 3TMS derivative
Formula: C13 H33 N O2 Si3
CAS: 39508-23-1
Molecular weight: 319
Origin: NIST Mass Spectrometry Data Center, 2009
m/z	RELATIVE INTENSITY
15	10
27	10
28	10
29	20
31	20
39	10
41	70
42	20
43	100
44	80
45	611
46	40
47	90
53	10
54	10
55	50
56	30
57	40
58	100
59	711
60	70
61	80
66	10
67	10
68	120
69	110
70	40
71	40
72	120
73	4214
74	410
75	811
76	60
77	40
82	10
83	10
84	40
85	70
86	821
87	100
88	40
89	30
97	10
98	50
99	70
100	510
101	100
102	90
103	50
104	10
105	20
110	10
112	60
113	50
114	150
115	100
116	110
117	190
118	30
119	50
120	10
121	10
124	10
126	20
127	10
128	70
129	90
130	390
131	280
132	100
133	460
134	60
135	40
137	10
140	120
141	20
142	370
143	601
144	170
146	170
147	2913
148	450
149	250
150	30
151	10
154	10
155	10
156	160
157	60
158	110
159	30
160	40
161	20
170	30
171	10
172	370
173	330
174	9999
175	1842
176	791
177	90
178	20
186	40
187	30
188	20
189	10
190	10
191	10
198	10
200	20
201	10
204	20
205	10
214	70
215	20
216	320
217	60
218	30
219	20
220	10
221	10
230	40
231	10
232	10
246	300
247	60
248	30
288	20
303	60
304	1902
305	540
306	270
307	50
308	10
