Mass Spectrum: 1,2-Nonadecanediol
Formula: C19 H40 O2
CAS: 39516-65-9
Molecular weight: 300
m/z	RELATIVE INTENSITY
30	587
31	816
32	434
34	179
35	306
36	255
37	179
38	306
39	2041
40	510
41	7652
42	2092
43	9846
44	3010
45	1199
49	255
51	383
52	255
53	893
54	1530
55	8673
56	3826
57	9999
58	1581
59	1479
60	1097
61	1148
62	204
63	179
64	204
65	408
66	816
67	3775
68	3010
69	7652
70	3163
71	5790
72	612
73	867
74	306
75	179
76	204
77	459
78	408
79	1020
80	612
81	3826
82	5102
83	8009
84	2296
85	4285
86	510
87	434
90	587
91	179
92	510
93	510
94	3137
95	3877
96	7907
97	1786
98	1658
99	306
100	179
101	204
102	510
103	179
104	459
105	179
106	434
107	306
108	1709
109	1581
110	4897
111	1888
112	1122
113	306
114	816
115	434
116	332
117	179
118	434
119	204
120	510
121	663
122	1709
123	1786
124	3826
125	1097
126	944
127	332
128	510
129	179
130	179
132	179
134	587
135	306
136	969
137	1097
138	2041
139	689
140	714
141	204
142	179
143	179
144	510
146	204
149	714
150	204
151	612
152	714
153	1224
154	612
155	510
157	408
158	204
160	204
162	255
163	306
164	255
165	459
166	765
167	459
168	510
169	179
170	255
176	179
177	179
178	255
179	434
180	638
181	408
182	306
184	204
193	179
194	408
195	612
196	306
197	204
199	204
200	204
206	204
207	306
208	204
209	204
210	204
211	204
212	204
220	204
221	408
222	204
223	306
224	204
234	179
235	306
236	179
237	306
238	179
239	179
240	510
247	102
248	102
249	102
250	510
251	255
252	102
253	179
254	102
255	306
256	128
257	102
258	102
259	102
260	102
261	102
262	102
263	102
264	102
265	459
266	128
267	357
268	867
269	4591
270	1020
271	153
272	153
273	102
274	102
275	128
278	102
280	102
282	255
283	102
284	204
285	102
286	128
287	128
288	102
293	102
294	102
295	102
298	179
299	128
300	128
