Mass Spectrum: Fenpropathrin
Formula: C22 H23 N O3
CAS: 39515-41-8
Molecular weight: 349
Origin: ACCUSTANDARD Chemicals / NIST MS Data Center.
m/z	RELATIVE INTENSITY
15	77
17	5
27	1490
29	1750
30	59
36	23
39	2234
40	567
41	3780
42	23
43	4465
44	202
45	79
50	596
51	1959
52	272
53	888
54	79
55	7850
56	491
57	1634
58	123
59	391
60	21
61	60
62	269
63	459
64	297
65	553
66	218
67	915
68	204
69	1514
70	190
71	85
73	38
74	131
75	270
76	658
77	2099
78	240
79	369
80	130
81	566
82	38
83	2477
84	918
85	187
86	34
87	105
88	358
89	230
91	139
92	100
93	84
94	168
95	803
96	34
97	9999
98	809
99	104
101	49
102	91
103	223
104	71
105	61
109	141
110	50
111	102
112	49
113	420
114	580
115	875
116	277
117	36
119	18
123	449
125	3154
126	327
127	292
128	112
129	23
130	28
131	42
132	37
139	252
140	326
141	1719
142	216
143	32
144	27
150	77
151	356
152	1053
153	676
154	175
155	43
156	27
163	46
164	51
165	30
166	52
167	157
168	343
169	262
170	64
176	23
177	111
178	206
179	23
180	1579
181	5500
182	802
183	79
190	132
191	42
192	27
193	40
194	32
195	46
197	197
198	169
199	37
206	385
207	472
208	1758
209	1422
210	455
211	78
212	19
219	105
220	44
221	39
222	27
223	81
224	31
225	64
247	43
248	31
249	38
261	33
262	35
263	46
265	1976
266	372
267	73
279	24
288	32
289	23
290	25
291	26
303	78
304	129
305	72
306	32
307	19
331	15
334	204
335	40
349	670
350	165
351	19
