Mass Spectrum: Butanoic acid, 2-oxo-, methyl ester
Formula: C5 H8 O3
CAS: 3952-66-7
Molecular weight: 116
Origin: James Little,Eastman Chem.Co.,Kingsport,TN
m/z	RELATIVE INTENSITY
14	20
15	611
16	10
26	130
27	801
28	430
29	5485
30	140
31	70
41	20
42	80
43	40
44	10
45	220
55	130
56	540
57	9999
58	310
59	1081
60	100
87	10
88	10
101	10
116	1371
117	70
118	10
