Mass Spectrum: 2-Ethylbutyl acrylate
Formula: C9 H16 O2
CAS: 3953-10-4
Molecular weight: 156
Origin: NIST Mass Spectrometry Data Center, 1994
m/z	RELATIVE INTENSITY
4	39
14	12
15	82
26	427
27	3014
28	489
29	1377
30	53
31	176
32	14
37	14
39	801
40	166
41	1841
42	1002
43	2683
44	145
45	71
50	33
51	61
53	285
55	9999
56	2092
57	89
58	310
59	120
65	25
67	83
69	2933
70	521
71	341
72	25
73	575
74	26
79	30
81	40
82	52
84	4712
85	1173
86	267
87	103
93	20
95	16
96	99
97	181
98	169
99	11
101	21
109	24
110	27
111	16
127	67
