Mass Spectrum: n-Amyl-n-butyl amine
Formula: C9 H21 N
CAS: 39536-61-3
Molecular weight: 143
Origin: NIST Mass Spectrometry Data Center, 1990.
m/z	RELATIVE INTENSITY
14	50
15	84
17	35
18	151
26	80
27	950
28	1024
29	1652
30	2960
31	96
32	21
39	465
40	199
41	1851
42	754
43	2217
44	9999
45	259
53	103
54	110
55	343
56	648
57	727
58	109
67	67
68	97
69	119
70	382
71	143
72	122
73	46
84	429
86	3633
87	273
98	332
100	2236
101	167
112	82
114	43
126	51
142	119
143	527
144	70
