Mass Spectrum: Neopentylidenecyclohexane
Formula: C11 H20
CAS: 39546-80-0
Molecular weight: 152
Origin: NIST Mass Spectrometry Data Center, 1990.
m/z	RELATIVE INTENSITY
15	204
27	1472
28	797
29	1529
39	2350
40	521
41	5079
42	562
43	737
50	155
51	580
52	326
53	1489
54	408
55	3134
56	339
57	1310
63	181
64	83
65	763
66	83
67	4111
68	83
69	9999
70	2214
71	288
77	1421
78	330
79	1602
80	83
81	6625
82	944
83	554
91	987
92	235
93	889
94	235
95	3862
96	1368
97	199
105	143
107	244
108	569
109	4850
110	717
121	124
123	320
137	4545
138	503
152	2670
153	334
