Mass Spectrum: p-Bromobenzylamine
Formula: C7 H8 Br N
CAS: 3959-07-7
Molecular weight: 185
Origin: NIST Mass Spectrometry Data Center
m/z	RELATIVE INTENSITY
27	70
28	250
29	230
30	1101
37	70
38	160
39	230
40	30
41	40
49	110
50	1111
51	1031
52	1001
54	120
61	120
62	260
63	611
64	110
65	50
73	130
74	571
75	691
76	641
77	2392
78	1231
79	1291
80	120
81	40
85	40
86	60
87	60
88	30
89	871
90	571
91	70
92	30
93	30
102	60
103	110
104	731
105	360
106	9999
107	791
108	30
117	40
119	40
129	30
131	30
155	130
156	110
157	530
158	150
159	350
169	410
170	40
171	360
172	30
182	120
183	60
184	2152
185	731
186	2012
187	631
188	30
