Mass Spectrum: 1,1'-Biphenyl,3,3'-difluoro-
Formula: C12 H8 F2
CAS: 396-64-5
Molecular weight: 190
Origin: Japan AIST/NIMC Database- Spectrum MS-IW-5093
m/z	RELATIVE INTENSITY
27	10
31	20
38	10
39	70
40	10
42	10
44	10
45	10
50	109
51	90
52	10
56	10
57	149
59	10
60	10
61	30
62	70
63	99
68	50
69	129
70	119
71	10
72	119
73	30
74	179
75	289
76	30
77	10
80	20
81	169
82	469
83	60
84	109
85	559
86	50
87	70
88	10
92	30
93	80
94	809
95	669
96	139
97	20
98	80
99	90
100	40
101	40
104	10
105	60
106	20
107	70
109	30
110	20
111	30
112	20
113	10
114	10
116	10
117	30
118	40
119	20
120	169
121	20
122	20
123	60
124	70
125	80
126	10
127	10
129	10
131	50
132	10
133	139
134	10
137	10
138	60
139	30
140	10
141	10
142	10
143	80
144	149
145	30
146	70
147	10
149	90
150	60
151	209
152	30
153	40
155	10
156	10
157	139
158	10
162	80
163	50
164	349
165	40
167	60
168	279
169	539
170	719
171	319
172	40
175	60
176	10
186	90
187	229
188	2019
189	2459
190	9999
191	1259
192	70
