Mass Spectrum: Benzoic acid, 3-chloro-4-nitro-
Formula: C7 H4 Cl N O4
CAS: 39608-47-4
Molecular weight: 201
Origin: ASES Database, Dalian Institute, P.R. China
m/z	RELATIVE INTENSITY
44	400
45	790
49	390
50	2372
51	1171
53	790
61	390
62	610
63	2682
64	490
73	3272
74	3012
75	5254
76	1010
84	580
85	390
87	410
91	300
99	7396
100	490
101	2422
109	300
110	1181
111	1281
112	500
113	390
115	1311
117	400
126	390
127	6065
128	510
129	1891
143	1080
145	490
155	790
157	1191
159	290
171	2772
173	890
185	290
201	9999
202	900
203	3192
204	290
