Mass Spectrum: .beta.-Naphthoylhydrazine
Formula: C11 H10 N2 O
CAS: 39627-84-4
Molecular weight: 186
Origin: NIST Mass Spectrometry Data Center, 1994
m/z	RELATIVE INTENSITY
4	2
16	45
27	61
28	70
29	178
30	93
31	396
32	11
38	70
39	157
44	60
50	401
51	605
52	94
61	65
62	248
63	630
65	35
74	604
75	762
76	433
77	1300
78	139
85	41
86	140
87	226
88	63
89	53
98	171
99	143
100	194
101	662
102	126
114	42
115	59
122	40
126	1694
127	9595
128	1102
129	55
135	51
137	36
140	47
153	108
155	9999
156	1170
157	120
171	173
186	1985
187	273
