Mass Spectrum: 1,1'-Biphenyl, 2,3,3',4,4',5,5'-heptachloro-
Formula: C12 H3 Cl7
CAS: 39635-31-9
Molecular weight: 392
Origin: Organic Synthesis Lab, MSU, Moscow.TRC 1198
m/z	RELATIVE INTENSITY
60	247
61	492
62	226
71	176
72	388
73	963
74	657
75	64
78	126
79	133
82	104
83	150
84	706
85	506
86	400
94	148
96	329
97	489
98	574
99	267
101	85
103	91
106	198
107	414
108	1253
109	922
110	563
111	212
113	207
114	139
118	281
119	268
120	454
121	481
122	425
126	1504
127	1402
129	84
131	250
132	690
133	537
134	252
142	165
143	953
144	1253
145	1096
146	885
147	421
149	107
154	151
155	87
156	263
157	122
158	222
161	2009
162	2932
163	2378
164	626
165	133
167	159
168	188
170	135
178	299
179	586
180	531
181	524
182	644
183	187
184	186
191	99
192	212
196	390
197	973
198	810
199	327
200	276
202	126
203	151
204	100
205	242
206	76
207	113
216	354
217	579
218	293
219	213
220	116
228	135
230	129
240	203
251	237
252	1782
253	364
254	2003
255	226
256	742
264	204
286	315
287	449
288	289
289	470
290	307
291	299
292	104
322	2917
323	437
324	4603
325	738
326	2892
327	337
328	969
330	128
358	179
360	85
392	3585
393	637
394	9999
395	1212
396	9293
397	1202
398	5581
399	786
400	1504
401	215
402	399
