Mass Spectrum: Cyclohexene,1-hexyl-
Formula: C12 H22
CAS: 3964-66-7
Molecular weight: 166
Origin: S.A. Rang et al., IR & MS of Unsatd. Hydrocarbons, 1977
m/z	RELATIVE INTENSITY
15	26
16	5
25	18
26	82
27	1261
28	490
29	1385
30	36
31	48
37	10
38	20
39	1049
40	211
41	3668
42	369
43	1259
44	160
45	61
50	31
51	25
52	120
53	1007
54	1007
55	2469
56	256
57	546
58	61
59	33
62	5
63	28
64	13
65	391
66	406
67	5758
68	1637
69	546
70	87
71	84
72	38
73	28
74	5
75	28
76	10
77	672
78	173
79	1469
80	756
81	9999
82	3030
83	546
84	87
85	64
86	8
87	5
88	5
89	13
90	8
91	384
92	64
93	504
94	218
95	2711
96	6000
97	1343
98	94
99	33
100	28
102	5
103	15
104	13
105	33
106	8
107	64
108	90
109	1805
110	271
111	36
112	10
113	15
114	10
115	13
116	5
117	10
119	5
121	10
122	8
123	112
124	102
125	15
126	5
127	10
135	8
136	5
137	61
138	89
139	13
151	10
164	13
166	1847
167	218
168	15
