Mass Spectrum: N-(2-Aminophenyl)piperidine
Formula: C11 H16 N2
CAS: 39643-31-7
Molecular weight: 176
Origin: NIST Mass Spectrometry Data Center, 1994
m/z	RELATIVE INTENSITY
15	263
17	43
18	80
26	248
27	1495
28	1949
29	809
30	309
37	47
38	285
39	2100
40	358
41	1677
42	551
43	93
44	87
50	254
51	729
52	884
53	585
54	346
55	368
56	302
57	62
60	87
61	31
62	87
63	412
64	408
65	2437
66	698
67	284
69	47
70	162
73	65
74	59
75	83
76	211
77	582
78	459
79	265
80	587
81	139
82	87
83	47
84	1024
85	71
88	79
89	69
90	114
91	560
92	1805
93	667
94	479
95	31
102	44
103	95
104	236
105	186
106	515
107	952
108	1602
109	126
115	29
116	100
117	181
118	29
119	9999
120	1111
121	683
122	66
128	31
130	1425
131	444
132	610
133	618
134	110
135	203
143	70
144	153
145	169
146	70
147	1905
148	224
156	18
158	185
159	84
160	31
161	70
171	42
172	39
173	43
175	2398
176	4436
177	603
178	33
