Mass Spectrum: (R)-(-)-.alpha.-Methoxyphenylacetic acid
Formula: C9 H10 O3
CAS: 3966-32-3
Molecular weight: 166
Origin: NIST Mass Spectrometry Data Center, 1994
m/z	RELATIVE INTENSITY
12	20
13	23
14	69
15	729
16	40
17	40
18	41
19	8
26	69
27	215
28	128
29	661
30	82
31	17
32	15
33	39
37	79
38	295
39	805
40	89
41	84
42	14
43	35
44	125
45	655
46	15
49	57
50	736
51	1660
52	384
53	162
55	20
61	108
62	327
63	694
64	206
65	293
66	33
67	13
73	35
74	155
75	117
76	13
77	5096
78	718
79	627
80	39
85	23
86	55
87	45
88	23
89	696
90	493
91	2770
92	241
93	152
94	22
103	23
105	1351
106	149
107	358
108	23
118	65
119	35
121	9999
122	843
123	68
133	12
135	41
166	22
