Mass Spectrum: 4-Chloro-1,3-dioxolan-2-one
Formula: C3 H3 Cl O3
CAS: 3967-54-2
Molecular weight: 122
Origin: Japan AIST/NIMC Database- Spectrum MS-IW-3679
m/z	RELATIVE INTENSITY
12	50
13	159
14	859
15	4919
16	119
24	10
25	99
26	459
27	659
28	1149
29	7119
30	1899
31	599
32	80
35	469
36	469
37	159
38	179
39	30
40	40
41	209
42	1569
43	9349
44	1849
45	339
46	20
47	249
48	2699
49	3709
50	9099
51	1309
52	3509
53	40
55	30
56	80
57	50
58	3309
59	179
60	80
61	159
62	229
63	1069
64	80
65	389
66	10
67	20
68	10
69	50
71	20
73	329
75	10
76	289
77	199
78	1929
79	139
80	599
81	30
82	10
83	70
84	10
85	50
86	149
87	9999
88	959
89	109
91	20
92	40
93	129
94	169
95	80
96	80
97	10
105	10
107	30
109	10
120	10
121	40
122	369
123	60
124	119
125	20
