Mass Spectrum: 3-Pentanol, 2,2-dimethyl-
Formula: C7 H16 O
CAS: 3970-62-5
Molecular weight: 116
Origin: CHEMICAL SAMPLES COMPANY
m/z	RELATIVE INTENSITY
12	5
13	43
14	120
15	824
16	39
17	29
18	77
19	63
25	14
26	242
27	2354
28	633
29	3347
30	168
31	2825
32	71
33	16
36	5
37	53
38	137
39	1746
40	281
41	5361
42	395
43	1753
44	146
45	2680
46	67
47	17
50	68
51	115
52	43
53	22
54	53
55	869
56	2020
57	6495
58	2945
59	9999
60	363
61	59
63	23
65	41
66	22
67	103
68	37
69	1519
70	167
71	211
72	77
73	27
77	16
79	14
81	21
83	254
84	30
85	65
86	25
87	3103
88	176
89	8
98	12
99	12
101	261
102	20
115	11
116	4
