Mass Spectrum: .beta.-Methoxyethoxymethyl chloride
Formula: C4 H9 Cl O2
CAS: 3970-21-6
Molecular weight: 124
Origin: NIST Mass Spectrometry Data Center
m/z	RELATIVE INTENSITY
11	40
12	40
13	60
14	260
15	1401
17	50
18	20
19	60
25	30
26	510
27	1101
28	1171
29	5185
30	390
31	2192
33	140
35	110
36	90
37	60
39	40
41	80
42	360
43	1561
44	1031
45	9999
46	240
47	100
49	1702
50	60
51	691
57	220
58	2162
59	3693
60	1391
61	100
63	150
73	60
79	450
81	120
88	761
89	1131
90	60
93	100
95	70
