Mass Spectrum: Octanedioic acid, 2-ethyl-
Formula: C10 H18 O4
CAS: 3971-33-3
Molecular weight: 202
Origin: F.M.TRENT RES. DIV., U.S. IND. CHEM. CO., CINCINNATI, USA
m/z	RELATIVE INTENSITY
27	1600
28	500
29	1930
30	110
31	320
37	100
39	1750
40	360
41	5200
42	1530
43	3220
44	430
45	2420
46	110
51	100
52	170
53	110
54	720
55	9999
56	1870
57	1730
58	320
59	890
60	210
65	150
66	100
67	1080
68	910
69	5280
70	3550
71	1140
72	320
73	9430
74	530
75	110
77	170
79	370
80	110
81	1130
82	720
83	2700
84	1760
85	490
86	210
87	1020
88	7160
89	380
91	110
94	260
95	320
96	790
98	5990
99	2680
100	720
101	1260
102	1420
103	150
107	150
109	550
110	660
111	720
112	1060
113	460
114	300
115	400
116	170
120	210
121	130
122	240
123	280
124	1020
125	170
126	280
127	1440
128	530
136	1250
137	2760
138	640
139	150
140	130
141	190
142	860
143	110
151	110
155	110
156	830
157	260
158	140
166	2230
167	280
