Mass Spectrum: 1-Chloro-4-(1,1-dimethylethyl)benzene
Formula: C10 H13 Cl
CAS: 3972-56-3
Molecular weight: 168
Origin: ASES Database, Dalian Institute, P.R. China
m/z	RELATIVE INTENSITY
29	1171
39	3302
41	8817
42	600
50	1080
51	2001
57	390
63	890
65	390
74	380
75	1281
76	400
77	1581
89	480
91	690
101	600
102	690
103	690
113	400
115	1080
116	290
117	500
125	4514
127	1301
138	1000
153	9999
154	1101
155	3413
156	300
168	1781
170	600
