Mass Spectrum: Benzeneacetic acid, heptyl ester
Formula: C15 H22 O2
CAS: 39736-25-9
Molecular weight: 234
Origin: V.Zaikin,Topchiev Inst.Petrochem.Synth.,Moscow
m/z	RELATIVE INTENSITY
27	380
28	420
29	1081
31	30
36	40
37	60
38	110
39	1521
40	210
41	3183
42	681
43	3203
44	250
45	70
49	50
50	250
51	450
52	140
53	230
54	50
55	1371
56	561
57	6776
58	330
59	20
61	30
62	200
63	641
64	200
65	1952
66	130
67	130
68	90
69	300
70	290
71	170
74	30
75	50
76	30
77	130
78	40
79	60
81	50
82	30
83	100
85	40
86	50
87	30
89	651
90	621
91	9999
92	2222
93	140
94	40
95	30
96	30
97	70
98	360
99	30
104	20
105	60
106	20
107	30
113	30
115	20
118	220
119	230
121	30
135	40
136	2332
137	931
138	60
139	30
143	651
144	90
164	20
234	90
235	30
