Mass Spectrum: 2-Hexene, 5,5-dimethyl-, (Z)-
Formula: C8 H16
CAS: 39761-61-0
Molecular weight: 112
Origin: NIST Mass Spectrometry Data Center, 1990.
m/z	RELATIVE INTENSITY
14	423
15	456
16	174
26	229
27	1821
28	138
29	1991
38	280
39	2876
40	510
41	5781
42	428
43	252
50	295
51	505
52	226
53	968
54	334
55	3654
56	1642
57	9999
58	424
65	230
67	394
69	851
70	372
77	261
79	349
81	262
97	1593
112	1619
