Mass Spectrum: Z-3,4,4-Trimethyl-2-pentene
Formula: C8 H16
CAS: 39761-64-3
Molecular weight: 112
Origin: NIST Mass Spectrometry Data Center, 1990.
m/z	RELATIVE INTENSITY
15	275
26	123
27	956
28	464
29	837
39	2069
40	374
41	3419
42	274
43	732
44	92
50	254
51	536
52	240
53	1132
54	92
55	9119
56	794
57	2294
58	123
63	111
65	301
66	137
67	662
68	111
69	3084
70	280
77	344
78	95
79	589
80	112
81	485
83	112
95	118
97	9999
98	794
112	2621
113	250
