Mass Spectrum: p-Butoxybenzylidene p-heptylaniline
Formula: C24 H33 N O
CAS: 39777-19-0
Molecular weight: 351
Origin: NIST Mass Spectrometry Data Center, 1994
m/z	RELATIVE INTENSITY
17	52
18	137
27	818
29	3935
30	100
38	35
39	571
41	2952
42	148
43	1455
44	21
50	47
51	187
52	48
53	100
54	21
55	407
56	21
57	1135
58	52
63	80
64	69
65	552
66	65
69	32
75	37
76	80
77	563
78	219
79	90
84	48
89	515
90	1040
91	824
92	75
93	105
94	42
95	26
96	31
102	90
103	287
104	196
105	217
106	157
107	101
112	40
114	25
115	235
116	222
117	150
118	44
119	37
120	49
127	71
128	108
129	59
130	165
131	62
132	83
139	51
140	64
141	56
142	64
144	47
151	64
152	173
153	133
154	110
155	50
156	24
158	32
163	41
164	30
165	208
166	161
167	263
168	261
169	55
177	31
178	65
179	94
180	833
181	430
182	100
183	203
191	71
192	101
193	173
194	147
195	67
196	374
197	87
200	47
202	38
206	34
208	128
210	6207
211	1046
212	113
222	295
223	122
224	138
236	86
237	27
264	40
266	9999
267	2106
268	256
279	23
280	88
294	131
295	251
296	57
308	41
351	8947
352	2418
353	350
354	35
