Mass Spectrum: p-Ethoxybenzylidene p-heptylaniline
Formula: C22 H29 N O
CAS: 39777-17-8
Molecular weight: 323
Origin: NIST Mass Spectrometry Data Center, 1994
m/z	RELATIVE INTENSITY
17	24
18	46
27	827
28	11
29	1939
30	44
39	352
41	1097
42	116
43	1296
44	42
50	51
51	207
52	49
53	67
54	22
55	255
56	37
57	257
63	123
64	77
65	457
66	59
67	19
69	20
75	30
76	92
77	535
78	195
79	81
84	22
89	515
90	904
91	576
92	64
93	55
94	58
96	35
102	75
103	235
104	203
105	248
106	93
107	57
115	265
116	169
117	96
118	45
119	36
120	50
127	77
128	77
129	54
130	133
131	39
132	80
135	27
139	49
140	42
141	38
142	43
143	20
144	35
150	13
151	57
152	156
153	126
154	83
155	40
158	30
165	140
166	112
167	151
168	116
169	26
178	62
180	607
181	325
182	72
183	147
184	28
191	48
192	60
193	115
194	75
195	39
196	150
197	38
200	22
204	18
206	25
207	23
208	103
209	18
210	2366
211	400
212	37
222	201
223	76
224	63
225	44
236	76
238	9999
239	1864
240	175
250	48
251	62
252	72
266	26
280	19
294	55
323	4571
324	1192
325	165
