Mass Spectrum: p-Heptyloxybenzylidene p-heptylaniline
Formula: C27 H39 N O
CAS: 39777-22-5
Molecular weight: 393
Origin: NIST Mass Spectrometry Data Center, 1994
m/z	RELATIVE INTENSITY
16	41
17	49
18	83
27	583
28	169
29	1657
32	2
39	370
41	2960
42	248
43	3031
44	107
51	90
53	98
55	872
56	133
57	2334
58	107
63	56
64	32
65	366
66	41
67	34
69	97
71	34
76	58
77	297
78	138
79	72
84	44
89	285
90	636
91	593
92	69
93	125
96	37
97	35
102	48
103	193
104	155
105	128
106	159
107	128
115	175
116	147
117	122
118	60
119	28
120	44
127	56
128	68
129	48
130	152
131	63
132	69
139	54
141	43
142	57
144	62
151	37
152	133
153	91
154	103
155	45
165	167
166	146
167	206
168	264
169	48
177	26
178	58
179	71
180	686
181	341
182	85
183	151
184	32
191	67
192	91
193	171
194	133
195	52
196	399
197	117
200	62
202	88
205	40
206	49
207	41
208	119
209	40
210	7031
211	1191
212	127
220	25
222	246
223	133
224	143
225	35
236	109
237	34
264	37
294	149
295	529
296	225
297	43
306	38
308	7402
309	1869
310	228
322	71
336	33
350	48
393	9999
394	2938
395	473
396	46
