Mass Spectrum: p-Pentyloxybenzylidene p-heptylaniline
Formula: C25 H35 N O
CAS: 39777-20-3
Molecular weight: 365
Origin: NIST Mass Spectrometry Data Center, 1994
m/z	RELATIVE INTENSITY
12	24
17	39
18	1
27	577
28	165
29	1287
39	419
41	1897
42	185
43	3691
44	87
51	118
52	43
53	92
54	43
55	431
56	56
57	670
63	97
64	43
65	411
66	52
69	89
71	65
76	75
77	383
78	174
79	77
89	333
90	860
91	684
92	72
93	90
94	46
96	33
102	66
103	257
104	160
105	168
106	139
107	96
115	228
116	142
117	143
118	53
120	50
127	58
128	80
129	52
130	125
131	66
132	89
139	42
140	39
141	49
142	57
151	47
152	146
153	103
154	86
155	57
158	28
164	33
165	180
166	152
167	230
168	252
177	41
178	79
180	769
181	397
182	95
183	195
184	33
190	28
191	67
192	110
193	158
194	144
195	28
196	368
197	95
200	58
202	54
206	56
207	36
208	135
209	36
210	7302
211	1144
212	133
222	300
223	122
224	144
225	33
236	111
237	37
278	45
280	9917
281	2169
282	264
293	30
294	194
295	415
296	134
308	57
322	36
365	9999
366	2769
367	424
368	58
