Mass Spectrum: Butane, 1-(ethenyloxy)-3-methyl-
Formula: C7 H14 O
CAS: 39782-38-2
Molecular weight: 114
Origin: CARL DJERASSI DEPT OF CHEM STANFORD UNIV STANFORD CALIF 94305
m/z	RELATIVE INTENSITY
41	2079
42	890
43	9999
44	1088
45	296
51	98
52	98
53	296
54	98
55	2177
56	198
57	494
58	98
69	198
70	2771
71	1979
72	98
81	98
99	296
114	494
