Mass Spectrum: Pyridine, 4-(1,1-dimethylethyl)-
Formula: C9 H13 N
CAS: 3978-81-2
Molecular weight: 135
Origin: Japan AIST/NIMC Database- Spectrum MS-NW-4730
m/z	RELATIVE INTENSITY
15	60
26	90
27	299
28	50
29	259
30	10
37	40
38	80
39	669
40	99
41	839
42	60
43	10
44	20
45	40
46	10
49	20
50	299
51	839
52	349
53	229
54	99
55	60
56	50
57	319
58	80
59	249
60	70
61	20
62	50
63	149
64	70
65	579
66	90
67	60
68	20
74	30
75	50
76	80
77	459
78	349
79	399
80	349
81	30
86	10
87	10
88	10
89	60
90	50
91	369
92	3769
93	519
94	119
102	20
103	50
104	329
105	189
106	139
107	60
108	10
116	20
117	139
118	479
119	219
120	9999
121	969
122	50
130	10
132	20
133	10
134	209
135	3939
136	429
137	20
