Mass Spectrum: 17-Methyl-5.alpha.-androstane-3.beta.,17.beta.-diol, 2TMS derivative
Formula: C26 H50 O2 Si2
CAS: 39780-71-7
Molecular weight: 450
Origin: B.S.MIDDLEDITCH BAYLOR COLL. OF MED., HOUSTON, TEXAS, USA
m/z	RELATIVE INTENSITY
75	200
130	2000
131	500
143	9999
144	1800
145	500
163	200
255	200
318	200
319	200
360	400
435	1300
436	400
437	200
450	300
