Mass Spectrum: 1,1'-Biphenyl, 4,4'-difluoro-
Formula: C12 H8 F2
CAS: 398-23-2
Molecular weight: 190
Origin: Japan AIST/NIMC Database- Spectrum MS-IW-4906
m/z	RELATIVE INTENSITY
27	10
31	30
33	10
38	10
39	50
50	99
51	70
56	10
57	139
61	30
62	70
63	90
68	40
69	80
70	90
71	10
72	70
73	20
74	149
75	199
76	20
77	10
80	10
81	129
82	299
83	50
84	70
85	329
86	60
87	60
88	10
92	30
93	60
94	529
95	559
96	109
97	10
98	60
99	70
100	20
101	20
104	10
105	50
106	20
107	70
109	20
110	20
111	30
112	10
113	10
114	10
116	10
117	20
118	30
119	10
120	169
121	20
122	20
123	40
124	10
125	60
126	10
127	10
129	10
131	50
132	20
133	149
134	10
138	40
139	20
140	10
141	10
142	10
143	70
144	149
145	30
146	70
147	10
149	60
150	40
151	149
152	20
155	10
156	10
157	139
158	20
162	70
163	50
164	369
165	40
167	40
168	229
169	449
170	629
171	259
172	30
175	60
186	80
187	209
188	1849
189	2399
190	9999
191	1289
192	80
