Mass Spectrum: 4-Fluoroveratrole
Formula: C8 H9 F O2
CAS: 398-62-9
Molecular weight: 156
Origin: NIST Mass Spectrometry Data Center
m/z	RELATIVE INTENSITY
14	70
15	641
16	10
18	10
25	10
26	60
27	40
28	80
29	280
30	40
31	340
32	10
33	30
35	40
36	10
37	80
38	140
39	470
40	20
41	20
42	20
43	40
44	190
45	50
47	10
48	10
49	100
50	520
51	450
52	30
53	180
54	20
55	100
56	230
57	561
58	30
59	801
60	40
61	190
62	230
63	530
64	70
65	2282
66	150
67	20
68	240
69	631
70	2783
71	260
72	280
73	150
74	180
75	711
76	70
77	190
78	40
79	180
80	80
81	871
82	961
83	1692
84	160
85	791
86	40
87	10
91	10
92	50
93	951
94	270
95	3773
96	380
97	500
98	1331
99	130
100	10
105	10
107	20
108	10
109	20
110	621
111	310
112	120
113	4394
114	290
115	20
121	60
122	20
123	30
124	10
125	150
126	80
127	30
128	10
137	10
139	430
140	460
141	5895
142	460
143	40
153	10
156	9999
157	911
158	80
