Mass Spectrum: 5-Phenyl-o-anisidine
Formula: C13 H13 N O
CAS: 39811-17-1
Molecular weight: 199
Origin: Japan AIST/NIMC Database- Spectrum MS-IW- 886
m/z	RELATIVE INTENSITY
15	10
27	20
28	80
30	10
39	40
41	10
42	10
50	30
51	129
52	60
53	20
54	90
55	10
62	20
63	99
64	90
65	279
66	10
69	20
70	30
71	10
74	20
75	40
76	80
77	299
78	309
79	30
82	10
83	90
84	20
86	10
87	20
88	10
89	70
90	20
91	60
92	30
93	10
99	429
100	70
101	40
102	109
103	80
104	30
113	20
114	20
115	349
116	99
117	30
126	50
127	359
128	659
129	269
130	70
138	10
139	169
140	99
141	179
142	20
143	20
150	10
151	50
152	90
153	129
154	299
155	90
156	3389
157	479
158	30
166	90
167	329
168	139
169	90
170	169
171	40
180	10
181	10
182	30
183	70
184	9999
185	1339
186	99
196	20
198	90
199	9699
200	1409
201	119
