Mass Spectrum: 4-Styrylpyridazine
Formula: C12 H10 N2
CAS: 39816-19-8
Molecular weight: 182
Origin: NIST Mass Spectrometry Data Center, 1994
m/z	RELATIVE INTENSITY
17	487
18	1366
26	463
27	642
37	304
38	769
39	2345
40	160
44	65
49	267
50	3391
51	5554
52	1205
53	213
61	326
62	1157
63	3447
64	1552
65	524
69	95
73	169
74	1207
75	1643
76	4078
77	2678
78	1679
79	119
85	136
86	348
87	587
88	244
89	864
90	96
91	405
98	394
99	265
100	243
101	765
102	3437
103	398
104	88
113	136
114	136
115	1582
116	145
125	209
126	1438
127	3126
128	9999
129	1192
139	501
140	89
150	332
151	1688
152	7463
153	9999
154	3327
155	469
182	9267
183	1351
184	88
