Mass Spectrum: Thianaphthene-2-carbonyl chloride
Formula: C9 H5 Cl O S
CAS: 39827-11-7
Molecular weight: 196
Origin: NIST Mass Spectrometry Data Center, 1994
m/z	RELATIVE INTENSITY
12	21
25	44
26	91
27	44
32	18
35	130
36	62
37	346
38	426
39	860
40	45
44	85
45	299
46	25
47	32
48	26
49	158
50	616
51	248
52	35
53	152
56	27
57	272
58	110
60	63
61	461
62	770
63	1628
64	141
65	94
66	27
67	500
68	73
69	882
70	80
71	76
72	39
73	141
74	418
75	237
76	62
77	65
81	593
82	405
83	99
84	234
85	200
86	184
87	238
88	39
89	5039
90	372
92	62
93	623
94	99
95	84
97	45
98	98
99	36
105	130
106	300
107	64
108	47
117	41
132	344
133	2947
134	295
135	160
161	9999
162	1041
163	518
164	56
168	137
170	64
196	2000
197	232
198	770
199	90
200	38
