Mass Spectrum: Cyclohexene, 1-isopentyl-
Formula: C11 H20
CAS: 3983-04-8
Molecular weight: 152
Origin: CARL DJERASSI DEPT OF CHEM STANFORD UNIV STANFORD CALIF 94305
m/z	RELATIVE INTENSITY
41	2900
42	100
43	900
51	100
53	600
54	800
55	2300
56	600
57	1400
65	100
66	200
67	6700
68	1900
69	400
70	300
77	400
79	800
80	200
81	9500
82	900
83	100
91	100
93	100
94	100
95	1500
96	9999
97	1300
108	100
109	1500
152	1700
153	100
