Mass Spectrum: Thiophene,2,2'-thiobis-
Formula: C8 H6 S3
CAS: 3988-99-6
Molecular weight: 198
Origin: Dr. Jiri Zamecnik, DCIEM, North York, Canada, GP Library
m/z	RELATIVE INTENSITY
37	50
38	180
39	1130
44	80
45	1250
57	280
58	380
69	820
70	160
71	2290
73	90
77	130
81	100
82	360
84	310
96	140
99	40
108	150
109	100
114	50
115	270
118	60
121	1160
122	480
123	40
127	550
134	520
137	60
153	1870
154	140
155	110
165	1330
166	950
167	120
197	370
198	9999
199	550
200	680
