Mass Spectrum: 2,6-Dichloro-4-trifluoromethylpyridine
Formula: C6 H2 Cl2 F3 N
CAS: 39890-98-7
Molecular weight: 215
Origin: NIST Mass Spectrometry Data Center, 1994
m/z	RELATIVE INTENSITY
12	51
13	26
19	34
24	74
25	202
26	77
28	166
31	997
32	7
35	574
36	187
37	772
38	465
39	105
44	66
47	443
48	234
49	1015
50	2217
51	913
52	103
56	286
57	86
60	988
61	265
62	672
63	148
64	221
67	469
68	269
69	4122
70	98
71	80
72	138
73	122
74	311
75	2963
76	1663
77	116
79	89
80	158
81	124
82	84
83	72
84	458
85	1588
86	344
87	619
88	115
90	92
91	363
92	43
93	326
94	328
95	205
98	175
99	384
100	376
101	68
102	31
103	101
104	65
105	69
106	61
108	69
109	422
110	941
111	295
112	321
113	75
114	51
116	31
117	29
118	96
119	218
120	119
121	48
122	95
124	75
125	44
126	292
129	94
130	435
131	66
132	123
133	99
135	62
144	430
145	134
146	51
153	435
154	33
155	130
160	2366
161	189
162	751
163	62
178	28
180	6570
181	506
182	2175
183	160
196	969
197	76
198	636
199	52
200	122
215	9999
216	723
217	6291
218	421
219	1010
220	68
