Mass Spectrum: 3-Hepten-2-one, 3-methyl-
Formula: C8 H14 O
CAS: 39899-08-6
Molecular weight: 126
Origin: CARL DJERASSI DEPT OF CHEM STANFORD UNIV STANFORD CALIF 94305
m/z	RELATIVE INTENSITY
41	4000
42	400
43	7900
44	100
45	100
50	100
51	200
52	200
53	600
54	200
55	9999
56	700
57	100
65	100
66	100
67	500
68	100
69	1500
70	200
71	200
72	300
77	200
79	100
81	200
82	100
83	1700
84	100
85	600
93	200
95	100
97	700
98	100
109	100
111	8100
112	600
125	100
126	7600
127	700
