Mass Spectrum: Acetamide,N-(2,4-difluorophenyl)-
Formula: C8 H7 F2 N O
CAS: 399-36-0
Molecular weight: 171
Origin: LAC, NIDDK, NIH, Bethesda, MD 20892
m/z	RELATIVE INTENSITY
42	136
43	2786
44	67
45	19
46	11
49	32
50	132
51	235
52	97
53	6
54	6
55	24
56	91
57	203
58	21
61	54
62	85
63	193
64	37
65	18
68	48
69	35
70	28
71	13
72	15
73	6
74	55
75	283
76	76
77	32
78	29
79	16
80	40
81	189
82	349
83	72
84	26
85	20
86	18
87	17
88	29
89	58
90	16
91	19
92	21
93	28
94	18
95	56
96	14
97	5
98	17
99	97
100	137
101	1038
102	659
103	38
106	15
107	28
108	98
109	339
110	40
111	14
112	27
113	60
114	32
115	13
120	20
122	5
125	5
126	36
127	153
128	337
129	9999
130	660
131	21
139	5
140	32
142	108
143	6
145	5
155	62
156	53
170	40
171	2273
172	216
173	19
