Mass Spectrum: [1,2,4]Triazolo[1,5-a]pyrazine
Formula: C5 H4 N4
CAS: 399-66-6
Molecular weight: 120
m/z	RELATIVE INTENSITY
41	1401
42	500
52	701
53	1401
64	801
65	1001
66	2002
67	701
93	1001
119	400
120	9999
121	1802
