Mass Spectrum: Benzene, 2-bromo-1,4-difluoro-
Formula: C6 H3 Br F2
CAS: 399-94-0
Molecular weight: 192
Origin: A.Pleshkova, Nesmeyanov Inst.Org.Elem.Cpds, Moscow
m/z	RELATIVE INTENSITY
50	130
51	30
55	80
56	150
57	150
61	210
62	350
63	1381
64	70
68	320
69	240
71	60
74	230
79	110
81	250
82	40
86	100
87	110
92	190
93	420
94	210
96	480
97	490
112	490
113	5595
114	340
191	30
192	9999
193	721
194	9829
195	631
