Mass Spectrum: 1H-Indole, 5-fluoro-
Formula: C8 H6 F N
CAS: 399-52-0
Molecular weight: 135
Origin: R.S.BANDURSKI MICHIGAN STATE UNIV., EAST LANSING, MICH., USA
m/z	RELATIVE INTENSITY
31	140
32	60
33	30
37	60
39	120
40	30
44	20
45	30
46	10
49	30
50	150
51	130
52	100
53	10
54	10
55	70
56	110
57	650
58	60
60	20
61	140
62	160
63	280
64	70
65	20
67	50
69	50
70	20
73	20
74	80
76	50
77	50
78	10
79	10
80	100
81	560
82	190
84	30
85	80
86	90
87	110
88	40
89	150
90	20
92	10
93	10
94	20
95	30
96	20
103	10
104	20
105	100
106	210
107	3060
108	4600
109	400
110	20
112	10
113	10
114	30
115	80
116	30
131	10
132	50
133	80
134	1100
135	9999
136	960
137	40
