Mass Spectrum: Acetamide, N-(2-fluorophenyl)-
Formula: C8 H8 F N O
CAS: 399-31-5
Molecular weight: 153
Origin: Chuck Anderson, Aldrich Chemical Co.
m/z	RELATIVE INTENSITY
13	6
14	43
15	288
16	2
17	4
26	17
27	30
28	80
29	12
31	71
32	2
33	27
37	32
38	69
39	116
40	23
41	82
42	61
43	1543
44	35
45	21
46	3
49	22
50	57
51	66
52	97
53	7
54	10
55	3
56	35
57	395
58	28
59	9
61	33
62	39
63	184
64	242
65	64
66	7
67	1
68	27
69	39
70	21
72	19
74	28
75	125
76	17
77	74
78	11
80	12
81	113
82	47
83	867
84	695
85	57
88	1
89	26
90	53
91	478
92	40
93	1
94	35
95	67
96	22
97	7
102	12
108	15
109	74
110	22
111	9999
112	459
113	15
122	15
123	1
124	42
137	37
138	31
152	7
153	1320
154	79
155	5
