Mass Spectrum: Benzenamine, 4-(octyloxy)-
Formula: C14 H23 N O
CAS: 39905-45-8
Molecular weight: 221
Origin: NIST Mass Spectrometry Data Center, 1994
m/z	RELATIVE INTENSITY
12	4
14	9
15	53
16	2
17	11
18	27
26	83
27	1015
28	476
29	1407
30	75
37	12
38	51
39	668
40	12
41	1870
42	274
43	1031
44	45
50	31
51	100
52	311
53	750
54	231
55	432
56	60
57	237
58	10
61	8
62	17
63	82
64	80
65	476
66	85
67	57
68	33
69	139
70	17
71	68
72	6
77	66
78	41
80	1489
81	316
82	58
83	13
90	12
91	47
92	267
93	79
94	189
95	16
104	3
106	36
108	1539
109	9999
110	748
111	48
118	5
120	14
122	122
123	12
135	34
136	8
149	14
163	8
221	796
222	127
223	9
