Mass Spectrum: Ethyl 3-pyridylacetate
Formula: C9 H11 N O2
CAS: 39931-77-6
Molecular weight: 165
Origin: NIST Mass Spectrometry Data Center
m/z	RELATIVE INTENSITY
14	10
15	90
16	10
18	10
25	20
26	190
27	781
28	300
29	3473
30	170
36	10
37	170
38	701
39	3303
40	230
41	20
42	50
43	20
46	80
47	30
49	20
50	180
51	210
52	160
53	170
54	40
55	30
56	10
61	80
62	280
63	971
64	631
65	3203
66	440
67	140
68	10
75	10
76	20
77	20
78	60
79	50
80	80
81	10
88	20
89	10
92	9999
93	3163
94	190
106	200
107	10
108	50
118	10
119	90
120	671
121	781
122	90
137	200
138	20
150	10
165	3103
166	300
167	20
