Mass Spectrum: p-Bromophenyl butyl ether
Formula: C10 H13 Br O
CAS: 39969-57-8
Molecular weight: 228
Origin: NIST Mass Spectrometry Data Center, 2012
m/z	RELATIVE INTENSITY
15	50
25	10
26	160
27	1281
28	390
29	3293
30	80
31	10
37	90
38	490
39	1852
40	140
41	2793
42	160
43	110
44	30
46	10
49	20
50	711
51	270
52	40
53	240
54	40
55	380
56	170
57	1101
58	50
61	100
62	380
63	1651
64	841
65	2152
66	180
67	20
68	10
72	10
73	30
74	270
75	731
76	761
77	220
78	130
79	60
80	10
81	20
82	10
89	20
90	20
91	200
92	280
93	1181
94	180
95	40
102	10
103	20
104	10
105	40
106	60
107	50
115	10
116	20
117	330
118	40
119	360
120	220
121	20
128	20
129	30
130	10
131	50
133	60
134	20
135	10
143	941
144	100
145	911
146	90
147	10
148	20
149	20
154	10
155	480
156	50
157	520
158	40
159	30
169	20
170	20
171	280
172	9999
173	891
174	9699
175	671
176	40
185	80
186	10
187	70
188	10
198	10
200	10
227	10
228	1281
229	140
230	1241
231	130
232	10
