Mass Spectrum: 3,5-Dichlorobenzylamine
Formula: C7 H7 Cl2 N
CAS: 39989-43-0
Molecular weight: 175
Origin: NIST Mass Spectrometry Data Center, 1994
m/z	RELATIVE INTENSITY
16	54
17	92
18	56
25	34
26	36
28	6519
29	2026
30	9999
35	149
36	148
37	418
38	475
39	364
40	34
41	22
42	13
44	2
47	76
48	46
49	297
50	1259
51	1067
52	1075
53	79
54	151
55	26
56	17
57	19
60	158
61	329
62	469
63	507
64	93
65	63
66	40
70	335
72	125
73	644
74	1153
75	1619
76	369
77	1123
78	271
79	35
83	36
84	309
85	341
86	263
87	343
88	145
89	264
90	28
96	33
97	140
98	33
99	119
100	81
101	55
102	147
103	28
104	348
105	80
107	43
108	68
109	571
110	220
111	1141
112	260
113	770
114	104
115	150
116	16
121	16
123	346
124	80
125	137
126	30
133	58
135	48
136	33
137	27
138	147
139	27
140	6259
141	497
142	1910
143	163
145	172
146	193
147	379
148	137
149	202
150	36
151	32
159	309
160	32
161	198
163	34
171	16
172	120
174	1942
175	581
176	1186
177	335
178	199
179	52
