Mass Spectrum: 2,4-Dimethyl-2-oxazoline-4-methanol
Formula: C6 H11 N O2
CAS: 39986-37-3
Molecular weight: 129
Origin: Japan AIST/NIMC Database- Spectrum MS-NW-3563
m/z	RELATIVE INTENSITY
14	50
15	549
18	10
25	10
26	149
27	589
28	229
29	1039
30	109
31	589
32	10
37	20
38	60
39	329
40	169
41	489
42	6469
43	1319
44	70
45	40
46	10
50	10
51	20
52	40
53	20
54	50
55	70
56	139
57	2609
58	279
59	20
60	30
66	30
67	20
68	129
69	60
70	1509
71	139
72	30
82	289
83	20
84	189
85	10
86	10
97	179
98	9999
99	629
100	40
114	20
