Mass Spectrum: Acetic acid, (1-methyl-4(1H)-pyridinylidene)-, methyl ester
Formula: C9 H11 N O2
CAS: 39998-22-6
Molecular weight: 165
m/z	RELATIVE INTENSITY
38	196
39	706
40	78
41	274
42	706
43	118
50	314
51	667
52	392
53	667
55	196
62	78
63	549
64	392
65	588
66	196
67	588
68	118
77	1098
78	980
79	627
80	196
91	510
92	235
93	157
104	353
105	274
106	941
107	4392
108	471
119	118
122	471
123	235
134	9999
135	1020
136	118
149	196
165	4862
166	549
