Mass Spectrum: Heptafluorobutyric acid, n-octadecyl ester
Formula: C22 H37 F7 O2
CAS: 400-57-7
Molecular weight: 466
Origin: NIST Mass Spectrometry Data Center
m/z	RELATIVE INTENSITY
26	20
27	300
28	100
29	1001
30	30
31	10
33	10
37	10
39	420
41	4334
42	1271
43	7487
44	280
47	10
50	30
51	30
52	20
53	310
54	851
55	7667
56	3283
57	9999
58	460
59	20
61	10
62	10
63	10
65	60
66	100
67	1131
68	1361
69	6556
70	2943
71	5085
72	270
77	40
78	20
79	120
80	60
81	801
82	3053
83	6496
84	2272
85	3433
86	220
87	10
91	20
93	40
94	30
95	470
96	1611
97	6936
98	1651
99	881
100	220
101	10
107	10
109	260
110	781
111	4304
112	1221
113	530
114	40
119	140
122	10
123	120
124	500
125	2262
126	841
127	340
128	30
131	20
136	10
137	80
138	340
139	841
140	571
141	200
142	20
150	60
151	20
152	200
153	360
154	360
155	130
156	10
159	10
165	10
166	130
167	200
169	871
170	30
180	80
181	100
182	140
183	60
184	10
194	50
195	60
196	90
197	70
198	10
199	10
208	20
209	30
210	40
211	10
215	10
222	20
223	20
224	230
225	40
249	10
250	10
252	500
253	100
254	10
255	10
279	20
297	130
298	30
448	90
449	20
