Mass Spectrum: Isopropyl trifluoroacetate
Formula: C5 H7 F3 O2
CAS: 400-38-4
Molecular weight: 156
Origin: NIST Mass Spectrometry Data Center
m/z	RELATIVE INTENSITY
12	10
13	30
14	220
15	1181
16	60
18	20
19	10
20	10
26	440
27	3363
28	520
29	651
31	270
33	20
37	140
38	350
39	1842
41	4774
42	1491
43	9999
44	460
45	90
47	2742
48	60
50	581
51	40
59	30
61	140
69	7627
70	80
78	140
87	10
93	20
94	10
95	10
97	230
99	60
113	1421
114	40
115	20
141	4024
142	170
143	10
155	100
