Mass Spectrum: Hexyl trifluoroacetate
Formula: C8 H13 F3 O2
CAS: 400-61-3
Molecular weight: 198
Origin: NIST Mass Spectrometry Data Center
m/z	RELATIVE INTENSITY
15	50
26	120
27	1601
28	550
29	2062
30	60
31	70
33	50
36	10
37	20
38	70
39	1521
40	340
41	5725
42	3934
43	6386
44	270
45	50
46	10
47	100
50	200
51	130
52	40
53	370
54	571
55	6426
56	9999
57	1141
58	40
59	40
60	10
61	30
62	10
63	10
64	10
65	50
66	20
67	290
68	130
69	7697
70	260
71	50
77	20
78	130
79	20
80	30
81	20
82	50
83	180
84	821
85	731
86	50
87	10
91	10
93	10
95	30
97	430
98	10
99	591
101	10
111	10
112	20
113	20
115	30
125	20
127	70
128	10
129	200
130	20
140	20
141	60
155	150
156	10
169	10
