Mass Spectrum: Benzamide, 2-bromo-
Formula: C7 H6 Br N O
CAS: 4001-73-4
Molecular weight: 199
Origin: Japan AIST/NIMC Database- Spectrum MS-NW-7901
m/z	RELATIVE INTENSITY
16	70
25	10
26	50
27	129
28	109
29	20
36	30
37	309
38	659
39	309
40	20
41	30
42	10
43	40
44	1199
45	279
46	109
48	20
49	249
50	2579
51	1109
52	219
53	50
54	10
59	10
60	129
61	80
62	90
63	159
64	109
65	419
66	60
72	20
73	219
74	1069
75	2579
76	2579
77	1709
78	119
79	40
80	40
81	40
82	40
85	189
86	199
87	20
90	119
91	169
92	149
93	20
99	50
100	50
101	20
102	319
103	90
104	259
105	40
106	10
107	30
111	219
112	30
113	70
114	10
116	10
117	20
118	10
119	40
120	60
121	20
128	40
129	80
130	40
131	90
137	10
139	599
140	50
141	199
142	20
143	20
145	20
153	10
154	40
155	3259
156	359
157	3119
158	309
159	10
168	10
170	20
171	10
172	20
173	10
181	179
182	50
183	9999
184	829
185	9609
186	759
187	50
199	5929
200	519
201	5809
202	499
203	30
