Mass Spectrum: 4-Methoxy-2-methylphenyl isothiocyanate
Formula: C9 H9 N O S
CAS: 40046-28-4
Molecular weight: 179
Origin: NIST Mass Spectrometry Data Center, 1994
m/z	RELATIVE INTENSITY
13	36
14	304
15	2675
18	52
26	282
27	733
28	108
29	430
30	72
31	74
32	207
37	420
38	959
39	2453
40	269
41	210
42	65
43	83
44	403
45	727
46	66
47	50
49	137
50	1514
51	3518
52	1543
53	626
54	75
55	67
56	37
57	91
58	203
59	172
60	107
61	325
62	778
63	1671
64	797
65	1099
66	245
67	92
68	87
69	517
70	787
71	124
72	234
73	109
74	423
75	517
76	817
77	4379
78	5204
79	447
80	189
81	53
82	127
83	230
84	271
85	124
86	216
87	173
88	115
89	735
90	53
91	572
92	826
93	152
94	127
95	199
96	590
97	49
98	46
102	263
103	184
104	495
105	248
106	231
107	90
108	195
109	1365
110	213
111	91
116	149
117	167
118	73
119	56
120	141
121	394
122	98
130	104
131	39
132	139
133	65
134	281
135	39
136	4365
137	425
138	245
146	305
147	220
148	188
149	89
150	56
162	53
164	7922
165	861
166	437
167	35
179	9999
180	1110
181	500
182	46
183	2
