Mass Spectrum: 1,3-trans,5-cis-Octatriene
Formula: C8 H12
CAS: 40087-61-4
Molecular weight: 108
Origin: K. SEFERIADIS, DEP. BIOLOG. CHEM., IOANNINA UNIV., GREEC
m/z	RELATIVE INTENSITY
26	270
27	1900
29	410
38	230
39	3120
40	420
41	2200
50	460
51	1200
52	730
53	1250
63	400
65	1330
66	1700
77	4800
78	1500
79	9999
80	1240
91	4000
93	3540
94	240
105	140
107	170
108	5770
109	480
