Mass Spectrum: 3,4-Pentadienal
Formula: C5 H6 O
CAS: 4009-55-6
Molecular weight: 82
m/z	RELATIVE INTENSITY
12	240
13	370
14	871
15	2362
24	150
25	370
26	1301
27	4614
28	2362
29	1732
30	130
31	270
36	130
37	771
38	1331
39	9999
40	571
41	821
42	831
43	1121
45	240
49	130
50	500
51	601
52	400
53	4834
54	1672
55	1131
56	180
81	1902
82	1001
