Mass Spectrum: 3,5-Dinitrobenzotrifluoride
Formula: C7 H3 F3 N2 O4
CAS: 401-99-0
Molecular weight: 236
Origin: Chuck Anderson, Aldrich Chemical Co.
m/z	RELATIVE INTENSITY
17	67
18	223
26	9
28	194
29	128
30	9999
31	247
32	54
36	9
37	212
38	367
39	96
41	32
44	40
45	38
46	394
49	76
50	802
51	172
52	87
53	102
56	71
57	354
61	290
62	538
63	1711
64	240
65	77
66	71
68	147
69	1042
70	47
73	277
74	2245
75	4972
76	384
77	19
79	56
80	111
81	294
82	110
83	83
84	59
85	35
86	40
87	135
88	188
89	70
90	66
91	111
92	130
93	518
94	1136
95	126
96	18
99	330
100	78
101	71
103	31
104	81
105	49
106	92
107	186
108	50
109	9
110	81
112	237
113	195
114	91
117	22
118	187
119	87
120	160
122	30
123	624
124	138
125	2406
126	317
131	85
132	1229
133	151
139	8
140	210
141	197
143	7539
144	4010
145	324
147	9
148	112
158	177
160	2606
161	182
171	243
176	79
187	68
190	1122
191	82
206	434
207	18
217	1136
218	96
220	183
222	46
236	3903
237	297
238	30
