Mass Spectrum: Benzene, 1-iodo-3-(trifluoromethyl)-
Formula: C7 H4 F3 I
CAS: 401-81-0
Molecular weight: 272
Origin: Japan AIST/NIMC Database- Spectrum MS-NW-8812
m/z	RELATIVE INTENSITY
20	10
27	30
28	10
31	70
37	70
38	119
39	80
49	70
50	979
51	269
52	10
56	20
57	199
61	40
62	60
63	40
68	60
69	359
70	10
73	99
74	539
75	1289
76	469
77	40
79	10
80	30
81	80
85	10
86	10
87	20
88	20
92	20
93	70
94	189
95	1729
96	109
99	199
100	60
101	20
104	10
105	20
106	20
107	70
111	10
114	20
118	40
119	169
120	10
123	40
124	20
125	969
126	379
127	239
128	50
136	109
142	10
143	159
144	269
145	9249
146	709
147	20
152	10
161	40
162	10
176	10
253	619
254	40
271	10
272	9999
273	769
274	20
