Mass Spectrum: Benzene, 1-bromo-3-(trifluoromethyl)-
Formula: C7 H4 Br F3
CAS: 401-78-5
Molecular weight: 224
Origin: Japan AIST/NIMC Database- Spectrum MS-NW-3380
m/z	RELATIVE INTENSITY
25	10
26	40
27	60
31	169
36	40
37	229
38	309
39	129
43	10
44	10
47	10
48	30
49	189
50	1479
51	409
52	20
53	30
55	10
56	50
57	259
58	10
60	30
61	119
62	229
63	299
68	99
69	589
70	30
72	139
73	239
74	929
75	1839
76	759
77	80
78	10
79	99
80	60
81	129
82	20
83	10
84	10
85	40
86	40
87	50
88	40
91	10
92	50
93	119
94	279
95	1409
96	99
98	10
99	339
100	109
101	40
102	109
103	109
104	40
105	40
106	40
107	99
108	10
112	80
113	80
114	20
116	10
117	30
118	50
119	219
120	20
123	80
124	40
125	1079
126	609
127	50
128	30
129	30
130	30
131	30
135	10
137	10
142	10
143	219
144	419
145	9999
146	779
147	30
153	10
154	10
155	119
156	10
157	109
158	10
161	10
162	40
173	10
174	189
175	20
176	199
177	20
204	10
205	1039
206	99
207	999
208	90
223	90
224	8709
225	739
226	8359
227	659
228	20
