Mass Spectrum: 2-Benzoyloxyacetophenone
Formula: C15 H12 O3
CAS: 4010-33-7
Molecular weight: 240
Origin: NIST Mass Spectrometry Data Center, 1994
m/z	RELATIVE INTENSITY
4	32
14	13
15	128
17	14
18	24
26	31
27	172
28	49
37	50
38	214
39	412
40	23
41	9
42	48
43	800
44	31
50	585
51	1656
52	128
53	132
55	15
61	27
62	100
63	402
64	301
65	190
66	39
74	136
75	150
77	4492
78	340
79	136
89	32
90	19
91	71
92	335
93	51
94	14
101	14
102	9
105	9999
106	773
107	162
115	54
120	56
121	74
139	20
141	14
212	10
222	24
240	250
241	39
