Mass Spectrum: 2,2,6,6-Tetramethylheptane
Formula: C11 H24
CAS: 40117-45-1
Molecular weight: 156
Origin: NIST Mass Spectrometry Data Center, 1990.
m/z	RELATIVE INTENSITY
14	80
15	28
16	49
18	12
27	452
28	173
29	1076
30	27
39	832
40	301
41	3813
42	273
43	2159
44	111
45	10
50	19
51	69
52	35
53	293
54	10
55	1638
56	7088
57	9999
58	487
59	16
63	75
65	44
66	15
67	128
68	31
69	346
70	15
71	2316
72	129
77	34
79	40
81	43
82	11
83	100
84	11
85	2624
86	155
91	14
95	9
97	65
98	161
99	81
140	31
141	284
142	30
156	17
