Mass Spectrum: Benzene, (1-methoxyethyl)-
Formula: C9 H12 O
CAS: 4013-34-7
Molecular weight: 136
Origin: NIST Mass Spectrometry Data Center, 2012
m/z	RELATIVE INTENSITY
15	90
26	20
27	190
28	70
29	200
30	40
31	110
32	10
37	20
38	70
39	360
40	40
41	60
42	50
43	981
44	90
45	10
49	20
50	400
51	1061
52	240
53	100
54	10
55	10
57	10
58	40
59	350
60	100
62	80
63	230
64	50
65	210
66	20
67	10
73	70
74	120
75	90
76	100
77	2382
78	550
79	510
80	30
85	10
86	10
87	10
89	120
90	40
91	1221
92	100
93	80
94	10
98	10
101	20
102	90
103	591
104	300
105	2292
106	250
107	10
119	20
120	30
121	9999
122	801
123	50
135	270
136	360
137	30
