Mass Spectrum: N,N'-Diisopropylethylenediamine
Formula: C8 H20 N2
CAS: 4013-94-9
Molecular weight: 144
Origin: NIST Mass Spectrometry Data Center, 1994
m/z	RELATIVE INTENSITY
4	27
14	3
15	210
18	252
27	746
28	799
30	8136
31	131
32	22
39	301
40	84
41	1026
42	829
43	1130
44	1480
45	52
50	17
54	74
55	76
56	472
57	974
58	1488
59	122
64	42
67	11
68	71
69	41
70	340
71	11
72	9999
73	557
74	40
82	19
83	25
84	45
85	73
86	702
87	516
88	56
129	23
144	26
