Mass Spectrum: 4H-Pyrrolo[3,2,1-ij]quinoline, 1,2,5,6-tetrahydro-6-methyl-
Formula: C12 H15 N
CAS: 40135-93-1
Molecular weight: 173
m/z	RELATIVE INTENSITY
89	900
90	500
91	1400
103	850
115	1800
117	700
118	700
128	1000
130	4500
131	700
143	1500
144	800
154	800
156	2100
157	1100
158	9999
159	1300
172	3000
173	4999
174	600
