Mass Spectrum: Oxirane, [(1-methylethoxy)methyl]-
Formula: C6 H12 O2
CAS: 4016-14-2
Molecular weight: 116
Origin: Japan AIST/NIMC Database- Spectrum MS-IW-7353
m/z	RELATIVE INTENSITY
13	40
14	119
15	979
16	50
17	20
18	70
24	30
25	119
26	929
27	4449
28	1609
29	6469
30	659
31	3109
32	129
33	10
36	60
37	329
38	499
39	2509
40	769
41	5779
42	2589
43	9999
44	3109
45	5259
46	149
47	30
51	10
52	10
53	80
54	20
55	809
56	959
57	6309
58	1319
59	6839
60	239
61	20
67	10
69	10
70	10
71	129
72	50
73	1069
74	129
75	90
83	30
85	80
86	209
87	10
88	40
101	1659
102	90
103	10
115	40
