Mass Spectrum: 2-Bromo-5-fluorobenzotrifluoride
Formula: C7 H3 Br F4
CAS: 40161-55-5
Molecular weight: 242
Origin: NIST Mass Spectrometry Data Center, 1994
m/z	RELATIVE INTENSITY
12	49
18	28
19	5
20	120
25	92
31	654
33	53
36	195
37	1214
38	723
39	123
44	99
47	107
48	92
49	636
50	2868
51	634
52	39
55	148
56	639
57	696
60	156
61	1175
62	1562
63	2146
64	115
68	1957
69	3916
70	77
72	216
73	693
74	2226
75	2561
76	128
79	1204
80	395
81	1254
84	51
85	136
86	153
87	270
88	104
91	88
92	835
93	2205
94	3135
95	285
98	102
99	844
100	82
101	42
102	40
103	91
104	169
105	115
106	109
110	40
111	385
112	972
113	2615
114	163
116	49
117	294
118	182
119	91
121	76
122	142
123	324
124	94
125	561
126	49
128	59
129	53
130	71
131	46
132	121
135	31
136	39
137	143
141	64
143	3119
144	1429
145	128
146	39
148	33
153	62
155	74
161	164
163	9999
164	769
173	178
175	174
192	1007
194	969
195	79
223	1313
225	1321
226	102
242	7382
244	6606
245	533
