Mass Spectrum: 4-Chlorobenzenamide, N-(4-methoxyphenyl)-
Formula: C14 H12 Cl N O2
CAS: 4018-82-0
Molecular weight: 261
Origin: Zaikin V.G., TIPS RAS, Moscow, Russia
m/z	RELATIVE INTENSITY
28	10
36	40
39	60
41	140
44	30
50	170
51	150
52	210
53	130
63	80
64	70
65	100
67	40
74	80
75	661
76	260
77	100
78	70
79	100
80	140
81	40
85	50
91	30
92	30
95	360
104	150
106	50
107	50
108	90
109	80
110	40
111	2342
112	200
113	771
114	60
122	561
123	140
124	330
125	20
134	40
139	9999
140	781
141	3393
142	240
154	40
260	30
261	5195
262	881
263	1772
264	270
265	30
