Mass Spectrum: 1,1'-Biphenyl, 2,2',3,3',4,4',5,5',6-nonachloro-
Formula: C12 H Cl9
CAS: 40186-72-9
Molecular weight: 460
Origin: N. Todua, WGM, MMES
m/z	RELATIVE INTENSITY
42	189
43	442
46	252
47	189
56	189
57	189
61	189
62	189
71	189
72	315
73	252
81	189
82	189
83	315
85	252
90	442
91	252
94	189
95	315
96	252
105	189
107	568
108	442
109	189
110	189
118	252
119	252
120	315
121	252
125	315
126	315
127	189
130	252
131	252
132	379
133	252
134	189
141	189
142	505
143	505
144	568
145	442
146	189
154	189
155	252
156	252
157	189
160	810
161	873
162	810
163	315
164	189
165	252
166	252
178	505
179	442
180	505
181	252
182	189
190	189
191	189
192	189
195	810
196	1377
197	1314
198	683
199	315
202	189
203	189
204	189
213	252
214	315
215	442
216	379
217	189
218	189
227	189
228	189
230	189
231	315
232	620
233	505
234	315
235	189
236	189
237	189
238	189
249	189
250	568
251	252
252	568
253	189
254	315
256	189
262	189
273	189
274	189
275	189
284	252
285	379
286	315
287	505
288	252
289	315
290	189
299	189
300	189
309	189
310	189
320	1440
321	379
322	2313
323	442
324	1630
325	315
326	683
327	189
328	252
345	189
353	189
354	379
355	315
356	873
357	315
358	620
359	252
361	315
362	189
363	189
390	2313
391	442
392	5131
393	747
394	4942
395	810
396	2692
397	442
398	873
399	252
400	252
401	189
425	873
426	252
427	2250
428	442
429	2376
430	568
431	1567
433	315
434	810
435	252
436	189
459	2881
461	442
462	8127
463	1188
464	9999
465	1504
466	7749
467	1125
468	3690
469	568
470	1314
471	252
472	315
