Mass Spectrum: 4-(Trifluoromethyl)-phenol
Formula: C7 H5 F3 O
CAS: 402-45-9
Molecular weight: 162
Origin: Japan AIST/NIMC Database- Spectrum MS-NW-8820
m/z	RELATIVE INTENSITY
20	10
26	40
27	70
28	20
29	60
31	60
37	90
38	249
39	649
40	30
41	10
42	30
43	10
44	10
45	10
46	10
49	20
50	219
51	159
52	10
53	229
54	20
55	70
56	99
57	429
58	20
61	90
62	209
63	639
64	199
65	449
66	60
67	20
68	40
69	169
70	50
71	99
72	10
73	50
74	99
75	299
76	30
77	20
79	20
80	10
81	219
82	20
83	519
84	279
85	20
86	10
87	70
88	269
89	109
90	10
91	20
92	50
93	50
94	30
95	399
96	30
97	10
98	20
99	40
100	10
101	20
106	30
107	40
108	10
111	10
112	2769
113	689
114	769
115	209
116	10
119	20
123	40
125	50
126	10
131	10
132	139
133	499
134	80
141	99
142	99
143	4799
144	379
145	319
146	20
160	10
161	879
162	9999
163	779
164	40
