Mass Spectrum: Benzene, 1-fluoro-4-(trifluoromethyl)-
Formula: C7 H4 F4
CAS: 402-44-8
Molecular weight: 164
Origin: Chuck Anderson, Aldrich Chemical Co.
m/z	RELATIVE INTENSITY
25	5
26	39
27	36
31	397
32	12
33	15
36	27
37	275
38	280
39	190
40	5
43	4
44	43
45	62
46	8
47	17
48	18
49	176
50	1168
51	495
52	21
53	7
55	24
56	170
57	511
58	15
60	26
61	231
62	373
63	661
64	62
67	4
68	499
69	1168
70	116
72	336
73	422
74	799
75	2645
76	207
77	23
79	43
80	76
81	184
82	230
83	14
84	9
85	36
86	34
87	85
88	284
89	12
92	137
93	353
94	482
95	1477
96	80
98	20
99	247
100	35
101	13
103	12
104	20
105	20
106	13
107	13
111	10
112	74
113	259
114	3911
115	229
116	6
117	50
118	27
119	66
123	40
124	10
125	353
126	28
132	13
137	19
143	413
144	284
145	8375
146	572
147	17
161	11
162	49
163	2743
164	9999
165	645
166	20
