Mass Spectrum: Cyclopentanol, 1,2-dimethyl-3-(1-methylethenyl)-, [1R-(1.alpha.,2.alpha.,3.alpha.)]-
Formula: C10 H18 O
CAS: 4028-60-8
Molecular weight: 154
Origin: H.STRICKLER FIRMENICH & CIE, GENEVA, SWITZERLAND
m/z	RELATIVE INTENSITY
26	120
27	2000
28	420
29	1600
31	300
38	100
39	2500
40	500
41	4000
42	500
43	9999
44	300
45	350
50	120
51	400
52	200
53	1600
54	550
55	4400
56	600
57	1400
58	1200
59	300
61	10
62	10
63	130
65	430
66	200
67	2600
68	1000
69	3100
70	650
71	5600
72	1600
73	130
77	630
78	150
79	1300
80	500
81	4400
82	1900
83	4300
84	2000
85	700
86	140
91	530
92	200
93	1700
94	700
95	1000
96	3200
97	1400
98	300
99	10
105	280
106	120
107	2000
108	330
109	160
110	100
111	1000
112	130
121	3100
122	300
123	380
125	1500
126	160
136	1800
137	300
139	420
154	230
