Mass Spectrum: Allylchlorodimethylsilane
Formula: C5 H11 Cl Si
CAS: 4028-23-3
Molecular weight: 134
Origin: NIST Mass Spectrometry Data Center, 1990.
m/z	RELATIVE INTENSITY
14	54
15	166
16	26
17	27
26	77
27	266
28	273
29	268
30	40
31	85
32	60
36	20
37	59
38	153
39	799
40	99
41	292
42	271
43	951
44	105
45	113
49	18
50	32
51	22
52	37
53	294
54	68
55	177
56	27
57	83
58	107
59	330
60	33
63	1681
64	264
65	1930
66	304
67	587
68	37
69	77
70	23
71	190
72	33
73	55
74	14
76	47
77	171
78	290
79	814
80	134
81	283
82	32
83	187
84	31
89	30
90	48
91	248
92	30
93	9999
94	951
95	3485
96	209
97	168
98	30
99	520
100	61
101	27
103	43
105	42
117	34
119	305
120	47
121	121
134	641
135	74
136	249
137	27
