Mass Spectrum: 2,4,6-Trimethyliodobenzene
Formula: C9 H11 I
CAS: 4028-63-1
Molecular weight: 246
Origin: NIST Mass Spectrometry Data Center, 1994
m/z	RELATIVE INTENSITY
14	35
15	150
26	93
27	595
28	80
29	47
32	7
37	70
38	261
39	1464
40	209
41	1244
42	57
49	58
50	645
51	1285
52	414
53	406
54	22
55	19
58	126
59	18
61	109
62	335
63	851
64	166
65	774
66	87
67	56
73	50
74	327
75	268
76	233
77	1458
78	692
79	656
80	45
85	47
86	91
87	104
88	45
89	314
90	45
91	4505
92	435
93	426
94	34
98	59
99	20
101	51
102	326
103	1267
104	849
105	85
113	12
115	1388
116	324
117	1732
118	12
119	6171
120	635
121	35
122	46
123	167
127	813
128	212
129	19
231	117
246	9999
247	968
248	52
