Mass Spectrum: 3-Chloro-4-fluorobenzoic acid
Formula: C7 H4 Cl F O2
CAS: 403-16-7
Molecular weight: 174
Origin: NIST Mass Spectrometry Data Center, 1994
m/z	RELATIVE INTENSITY
31	679
33	80
35	218
36	121
37	751
44	123
45	1167
47	169
48	88
49	355
50	1459
51	239
53	107
55	119
56	241
57	636
59	60
60	153
61	719
62	633
63	778
64	186
66	82
67	109
68	1229
69	366
71	71
72	190
73	731
74	1847
75	1025
76	86
77	122
79	179
80	103
81	213
82	112
83	861
84	308
85	119
86	91
89	61
90	80
91	242
92	591
93	1883
94	1788
95	815
96	129
97	64
99	57
102	64
103	154
104	68
105	92
109	1553
110	191
111	362
117	144
122	99
127	71
129	4970
130	548
131	1745
132	113
146	183
154	52
157	9999
158	973
159	3523
160	250
174	7183
175	599
176	2365
177	193
