Mass Spectrum: p-Fluoro-N,N-dimethylaniline
Formula: C8 H10 F N
CAS: 403-46-3
Molecular weight: 139
Origin: James Little,Eastman Chem.Co.,Kingsport,TN
m/z	RELATIVE INTENSITY
42	1782
44	661
50	921
51	691
57	871
61	701
63	490
69	1611
70	1812
74	410
75	2052
77	711
83	691
88	1722
91	771
94	330
95	4074
96	1712
97	1101
107	8538
108	430
109	1151
110	731
111	440
120	921
121	1001
122	4094
123	4564
124	1702
125	540
134	300
136	1131
137	611
138	9989
139	9999
140	1922
