Mass Spectrum: Benzoyl chloride, 4-fluoro-
Formula: C7 H4 Cl F O
CAS: 403-43-0
Molecular weight: 158
Origin: Japan AIST/NIMC Database- Spectrum MS-NW-7787
m/z	RELATIVE INTENSITY
25	20
26	30
27	30
28	99
29	10
31	169
32	10
35	40
36	70
37	259
38	189
39	99
44	20
45	50
47	309
48	30
49	139
50	799
51	349
52	20
53	40
55	10
56	60
57	139
60	30
61	549
62	189
63	149
64	20
65	99
66	30
67	10
68	369
69	549
70	40
72	20
73	119
74	509
75	1879
76	169
77	20
80	20
81	20
84	10
85	20
86	10
92	80
93	129
94	399
95	5459
96	379
97	10
103	10
104	10
105	10
107	20
109	10
111	10
121	10
122	40
123	9999
124	779
125	50
129	20
130	20
131	10
140	20
158	369
159	30
160	109
161	10
