Mass Spectrum: Methyl 4-fluorobenzoate
Formula: C8 H7 F O2
CAS: 403-33-8
Molecular weight: 154
Origin: V.G.Zaikin, TIPS RAS, Moscow, Russia
m/z	RELATIVE INTENSITY
25	30
28	20
29	520
30	190
31	190
37	170
38	170
39	150
44	180
45	80
49	110
50	691
51	390
52	30
53	50
55	10
56	60
57	210
59	80
61	170
62	130
63	170
68	380
69	550
70	60
73	90
74	520
75	1942
76	210
81	30
83	60
92	90
93	180
94	490
95	4994
96	480
97	40
109	90
110	90
122	120
123	9999
124	811
125	50
152	60
153	310
154	2772
155	250
156	20
