Mass Spectrum: Pyrrolidine, 1-acetyl-
Formula: C6 H11 N O
CAS: 4030-18-6
Molecular weight: 113
Origin: NIST Mass Spectrometry Data Center, 1994
m/z	RELATIVE INTENSITY
12	26
13	59
14	350
15	1953
16	30
25	18
26	265
27	1039
28	1678
29	266
30	400
31	17
37	66
38	187
39	1053
40	423
41	1806
42	1817
43	9999
44	353
45	22
50	33
51	55
52	61
53	73
54	97
55	634
56	634
57	80
58	42
67	64
68	426
70	4686
71	453
72	89
85	1039
86	57
98	181
113	2886
114	211
