Mass Spectrum: 4-Ethylthiane
Formula: C7 H14 S
CAS: 40324-31-0
Molecular weight: 130
Origin: V.G.Zaikin, TIPS, Russian Acad. Sci.
m/z	RELATIVE INTENSITY
41	6605
42	1101
43	900
44	1101
45	2502
46	1601
47	2502
48	200
49	100
50	200
51	300
52	200
53	1201
54	2101
55	9708
56	1501
57	300
58	400
59	1801
60	2802
61	500
62	400
63	300
65	400
66	600
67	7506
68	3002
69	3302
70	1301
71	300
72	100
73	1301
74	1401
75	800
76	200
77	200
81	3403
82	800
83	2302
84	600
85	300
87	1601
88	400
89	300
95	600
96	2302
97	500
99	400
101	5605
102	1601
103	300
115	9999
116	800
117	500
129	2201
130	9408
131	890
132	440
133	30
