Mass Spectrum: 1,2,3,7,8-Pentachlorodibenzodioxin
Formula: C12 H3 Cl5 O2
CAS: 40321-76-4
Molecular weight: 354
Origin: W. MILES, AGRIC. CAN., LAB. SERV. DIV., OTTAWA, ONT., CAN.
m/z	RELATIVE INTENSITY
50	50
51	110
62	20
63	170
74	110
75	210
86	50
114	120
115	170
122	100
130	120
132	280
133	130
142	500
144	300
146	250
157	180
158	360
165	160
167	160
177	710
178	1000
179	730
192	150
193	430
195	250
221	210
228	1620
230	1600
232	520
256	160
263	320
265	400
267	200
284	200
291	2280
293	2740
295	1370
319	600
321	770
323	390
354	6190
355	870
356	9999
357	1360
358	6560
359	860
360	2160
362	360
