Mass Spectrum: Heptane, 2,3,6-trimethyl-
Formula: C10 H22
CAS: 4032-93-3
Molecular weight: 142
Origin: D.HENNEBERG, MAX-PLANCK INSTITUTE, MULHEIM, WEST GERMANY
m/z	RELATIVE INTENSITY
24	8
25	11
26	55
27	736
28	190
29	890
30	30
31	3
33	19
38	18
39	497
40	105
41	2074
42	389
43	5433
44	164
45	4
49	5
51	32
52	14
53	104
54	56
55	687
56	1494
57	9999
58	341
59	9
61	3
63	7
65	16
66	7
67	42
68	35
69	394
70	1161
71	1270
72	65
75	16
77	12
78	5
79	8
81	6
82	4
83	115
84	25
85	194
86	12
97	4
98	420
99	361
100	29
142	12
