Mass Spectrum: Lewisite 2
Formula: C4 H4 As Cl3
CAS: 40334-69-8
Molecular weight: 232
Origin: VERIFINN
m/z	RELATIVE INTENSITY
26	160
36	60
50	110
51	3613
52	190
60	110
61	651
63	190
75	801
85	80
87	9999
88	470
89	3193
90	120
99	350
100	1581
101	561
110	3283
111	410
112	1191
113	170
122	1912
123	180
124	1411
125	140
126	240
134	240
135	761
136	1011
137	330
138	300
145	5065
147	3223
149	500
161	691
163	240
171	1241
173	791
175	150
180	180
182	220
184	80
197	320
199	190
