Mass Spectrum: Pentanoic acid, 2-hydroxy-4-methyl-, methyl ester
Formula: C7 H14 O3
CAS: 40348-72-9
Molecular weight: 146
Origin: NIST Mass Spectrometry Data Center
m/z	RELATIVE INTENSITY
14	20
15	460
16	10
19	80
26	60
27	1041
28	150
29	1371
30	130
31	470
32	30
33	1121
34	20
37	30
38	90
39	1321
40	200
41	4004
42	641
43	8197
44	1311
45	4744
46	110
47	20
49	10
50	60
51	110
52	40
53	400
54	60
55	951
56	130
57	1421
58	430
59	1131
60	60
61	530
62	50
63	10
65	30
66	10
67	200
69	9999
70	621
71	1091
72	80
73	60
74	50
75	140
76	110
77	10
81	190
82	10
83	20
84	10
85	250
86	330
87	6556
88	370
89	430
90	2132
91	80
92	10
95	80
96	40
97	20
98	10
99	130
100	10
101	240
102	50
103	110
104	30
111	10
113	320
114	60
115	10
116	10
117	10
127	100
128	20
131	10
