Mass Spectrum: 4-Chloro-3-nitrophenyl isocyanate
Formula: C7 H3 Cl N2 O3
CAS: 40397-96-4
Molecular weight: 198
Origin: NIST Mass Spectrometry Data Center, 1994
m/z	RELATIVE INTENSITY
25	82
26	202
27	118
28	443
29	82
30	2843
32	44
35	109
36	195
37	1088
38	1305
39	654
40	148
44	120
46	471
47	369
48	117
49	1124
50	984
51	760
52	330
53	89
54	67
60	313
61	1639
62	2443
63	1167
64	1064
65	109
66	57
67	115
71	140
72	523
73	2643
74	1726
75	1298
76	1557
77	310
78	50
80	69
84	322
85	270
86	341
87	692
88	1582
89	598
90	113
91	222
97	1527
98	772
99	755
100	333
101	84
103	71
105	105
107	61
109	58
112	796
113	107
114	221
117	107
124	9999
125	829
126	3169
127	214
133	89
135	81
140	6273
141	469
142	1872
143	135
152	1064
153	89
154	357
163	357
168	382
170	153
182	142
198	7302
199	719
200	2551
201	235
