Mass Spectrum: Acetamide, 2,2,2-trifluoro-N-phenyl-
Formula: C8 H6 F3 N O
CAS: 404-24-0
Molecular weight: 189
Origin: T.A.BLAZER DU PONT, GIBBSTOWN, N.J., USA
m/z	RELATIVE INTENSITY
15	21
16	63
19	6
20	16
24	1
25	15
26	144
27	275
28	607
29	38
31	162
36	17
37	332
38	776
39	2040
40	261
41	134
42	18
43	27
44	45
45	14
46	115
47	7
48	6
49	63
50	751
51	1419
52	411
53	42
54	24
55	7
56	3
57	7
60	104
61	124
62	255
63	721
64	748
65	2713
66	242
67	12
68	8
69	1297
70	24
71	18
72	6
73	36
74	166
75	130
76	165
77	6391
78	450
79	15
80	5
81	1
82	1
83	10
84	2
85	13
86	17
87	44
88	60
89	30
90	166
91	1171
92	5694
93	471
94	741
95	82
96	58
97	104
98	5
99	9
100	4
101	7
102	84
103	37
104	16
107	2
108	1
109	3
110	15
113	13
114	24
115	8
116	2
117	8
118	19
119	805
120	7210
121	600
122	42
123	3
127	2
131	1
133	8
134	3
138	6
139	6
140	25
141	130
142	66
143	6
145	3
150	47
151	6
160	18
161	1
168	61
169	11
170	99
171	10
172	6
188	139
189	9999
190	1036
191	73
