Mass Spectrum: Silacyclohexane, 1,1-dimethyl-
Formula: C7 H16 Si
CAS: 4040-74-8
Molecular weight: 128
Origin: RADIAN CORP
m/z	RELATIVE INTENSITY
15	100
26	70
27	420
28	190
29	480
30	20
31	210
38	10
39	480
40	90
41	460
42	450
43	1820
44	410
45	710
46	40
53	270
54	80
55	490
56	70
57	260
58	710
59	3300
60	290
61	130
65	30
66	70
67	230
68	50
69	170
70	130
71	610
72	1330
73	2130
74	220
75	20
81	50
83	240
84	230
85	8260
86	950
87	370
95	50
97	190
99	370
100	420
101	200
109	30
111	250
112	70
113	9999
114	1210
115	450
116	10
127	20
128	1960
129	610
130	120
