Mass Spectrum: Cyclopentanone, 2,5-dimethyl-
Formula: C7 H12 O
CAS: 4041-09-2
Molecular weight: 112
Origin: Philip Morris R&D
m/z	RELATIVE INTENSITY
37	35
38	85
39	1656
40	568
41	3935
42	9999
43	3990
44	133
50	69
51	125
52	56
53	277
54	230
55	3898
56	4112
57	274
58	721
59	24
65	38
67	143
68	1598
69	5728
70	1439
71	236
77	19
79	259
81	51
83	565
84	699
85	26
94	103
95	14
97	1172
98	60
110	11
111	94
112	3738
113	271
