Mass Spectrum: 1,3-Cyclopentadiene, 1,2,3,4,5-pentamethyl-
Formula: C10 H16
CAS: 4045-44-7
Molecular weight: 136
Origin: Japan AIST/NIMC Database- Spectrum MS-IW-1294
m/z	RELATIVE INTENSITY
15	10
26	10
27	279
28	40
29	169
38	20
39	399
40	50
41	429
42	20
43	229
50	60
51	229
52	90
53	269
54	20
55	179
56	10
57	20
58	40
59	20
62	30
63	109
64	40
65	289
66	70
67	139
68	20
69	20
74	20
75	20
76	10
77	819
78	179
79	1199
80	90
81	90
82	10
83	20
89	40
90	10
91	1359
92	139
93	2039
94	179
95	80
102	30
103	359
104	139
105	3769
106	849
107	689
108	199
109	40
110	20
111	10
115	159
116	50
117	169
118	40
119	1139
120	439
121	9999
122	1029
123	189
124	20
125	10
131	10
132	10
133	70
134	90
135	639
136	6479
137	809
138	109
139	20
