Mass Spectrum: 1,4,7-Oxadithionane
Formula: C6 H12 O S2
CAS: 40474-73-5
Molecular weight: 164
Origin: VERIFINN
m/z	RELATIVE INTENSITY
27	3153
28	981
29	1111
35	711
41	671
43	671
45	5245
46	3343
47	1591
58	1361
59	3964
60	7537
61	9999
62	661
64	771
73	771
74	741
75	641
76	220
78	1001
87	1381
89	961
90	1541
91	420
92	1111
93	851
103	1621
104	841
105	3403
106	981
107	250
117	50
119	180
120	751
121	2512
122	120
123	220
147	60
164	7116
165	510
166	621
171	50
