Mass Spectrum: 3-Pyrrolidinol
Formula: C4 H9 N O
CAS: 40499-83-0
Molecular weight: 87
Origin: J.E. WILKINSON S-CUBED, SAN DIEGO, CA.
m/z	RELATIVE INTENSITY
41	3846
42	3661
43	9999
44	1599
45	93
46	25
47	25
49	34
51	143
52	194
53	42
54	429
55	631
56	1237
57	1700
58	724
59	985
60	25
67	707
68	1448
69	791
70	328
71	160
72	17
77	25
82	25
83	118
84	135
86	581
87	2239
88	51
