Mass Spectrum: 2,5-Dimethoxyphenyl isothiocyanate
Formula: C9 H9 N O2 S
CAS: 40532-06-7
Molecular weight: 195
Origin: NIST Mass Spectrometry Data Center, 1994
m/z	RELATIVE INTENSITY
15	5162
16	70
26	830
27	332
28	152
29	752
30	128
31	99
32	370
33	39
34	41
37	365
38	769
39	1083
40	159
41	234
42	117
43	132
44	347
45	383
46	58
47	47
49	189
50	1247
51	2237
52	476
53	2397
54	1452
55	188
56	148
57	87
58	249
59	151
60	47
61	570
62	1048
63	1717
64	857
65	1605
66	1104
67	316
68	84
69	473
70	855
71	112
72	335
73	74
74	348
75	473
76	495
77	878
78	470
79	2010
80	433
81	115
82	1092
83	1528
84	221
85	131
86	432
87	103
88	149
89	95
90	216
91	116
92	305
93	518
94	377
95	324
96	153
97	95
98	412
99	46
104	46
105	62
106	67
107	539
108	445
109	2049
110	377
111	632
112	85
113	26
118	31
120	456
121	363
122	213
123	75
124	79
133	31
134	106
135	61
136	31
137	1864
138	188
139	607
140	45
148	366
149	156
150	60
151	45
152	5474
153	546
154	288
162	134
163	124
164	88
165	59
180	9999
181	993
182	576
183	54
195	8152
196	974
197	478
198	46
