Mass Spectrum: 1,3-Propanediol, 2-methyl-2-nitro-, dinitrate
Formula: C4 H7 N3 O8
CAS: 4055-94-1
Molecular weight: 225
Origin: MINISTRY OF TECH. E.R.D.E., WALTHAM ABBEY, UK
m/z	RELATIVE INTENSITY
14	230
15	420
16	280
26	290
27	1240
28	2180
29	3980
30	7400
31	790
38	330
39	2380
40	430
41	3270
42	460
43	780
44	670
45	80
46	9999
55	120
56	80
57	210
58	360
59	120
70	230
76	410
