Mass Spectrum: Butane, 1-chloro-2-methyl-, (S)-
Formula: C5 H11 Cl
CAS: 40560-29-0
Molecular weight: 106
Origin: Japan AIST/NIMC Database- Spectrum MS-IW- 883
m/z	RELATIVE INTENSITY
15	30
26	60
27	609
28	109
29	2529
30	50
31	10
36	50
37	20
38	50
39	599
40	99
41	4229
42	749
43	379
44	10
49	139
50	40
51	80
52	10
53	129
54	30
55	1409
56	2949
57	9999
58	489
59	10
61	20
62	10
63	119
65	30
67	10
69	119
70	549
71	90
73	10
75	30
76	90
77	249
78	30
79	70
91	30
93	10
106	10
