Mass Spectrum: Cyclohexanone, 3-(3,3-dimethylbutyl)-
Formula: C12 H22 O
CAS: 40564-94-1
Molecular weight: 182
Origin: AC73-347-2A
m/z	RELATIVE INTENSITY
41	1761
42	217
43	609
55	1369
56	391
57	4956
58	261
79	239
81	348
82	152
83	1913
84	391
93	283
95	261
96	152
97	9999
98	2652
99	261
139	522
140	130
182	630
183	152
