Mass Spectrum: 2-Acetyl-1,3-cyclohexanedione
Formula: C8 H10 O3
CAS: 4056-73-9
Molecular weight: 154
Origin: Japan AIST/NIMC Database- Spectrum MS-IW-2345
m/z	RELATIVE INTENSITY
14	40
15	269
25	10
26	119
27	679
28	239
29	199
30	10
31	90
37	80
38	189
39	999
40	269
41	779
42	1179
43	5399
44	149
45	109
49	20
50	90
51	169
52	99
53	269
54	80
55	1659
56	139
57	20
58	20
60	60
61	30
62	40
63	70
64	30
65	129
66	339
67	299
68	149
69	2479
70	2239
71	389
72	10
73	10
74	10
76	10
77	90
78	20
79	119
80	50
81	70
82	80
83	129
84	3749
85	499
86	40
91	30
92	10
93	30
94	30
95	30
96	20
97	249
98	9489
99	539
100	60
105	10
107	40
108	40
109	40
110	10
111	1129
112	219
113	99
119	20
121	20
122	10
124	10
125	10
126	3829
127	259
128	30
134	10
135	10
136	30
137	30
138	10
139	3719
140	289
141	40
153	30
154	9999
155	909
156	90
