Mass Spectrum: 1-Octen-4-ol
Formula: C8 H16 O
CAS: 40575-42-6
Molecular weight: 128
Origin: NIST Mass Spectrometry Data Center, 1990.
m/z	RELATIVE INTENSITY
15	183
27	1725
28	1052
29	1563
31	616
38	172
39	1758
40	434
41	5461
42	744
43	2424
44	517
45	907
53	348
54	264
55	458
57	1433
58	204
67	411
69	9999
70	665
71	703
87	4019
88	261
