Mass Spectrum: 4-Octanol, 2-methyl-
Formula: C9 H20 O
CAS: 40575-41-5
Molecular weight: 144
Origin: NIST Mass Spectrometry Data Center, 1990.
m/z	RELATIVE INTENSITY
26	105
27	1302
28	582
29	1496
30	105
31	346
39	952
41	3446
42	401
43	2684
44	828
45	1860
53	209
54	100
55	637
56	469
57	1637
58	531
67	176
69	9999
70	632
71	303
85	452
87	4520
88	237
111	105
126	149
