Mass Spectrum: 3,4-Pentadienal, 2,2-dimethyl-
Formula: C7 H10 O
CAS: 4058-51-9
Molecular weight: 110
m/z	RELATIVE INTENSITY
14	190
15	741
26	450
27	3713
28	611
29	2522
31	130
33	80
37	591
38	1171
39	7086
40	1001
41	9999
42	611
43	1251
45	90
49	110
50	641
51	951
52	360
53	6586
54	450
55	1591
56	110
61	160
62	280
63	450
64	80
65	1381
66	971
67	1441
68	130
69	70
74	80
77	971
79	3683
80	681
81	6095
82	661
83	150
95	5085
96	360
109	921
110	130
