Mass Spectrum: N,N'-di-t-Butylethylenediamine
Formula: C10 H24 N2
CAS: 4062-60-6
Molecular weight: 172
Origin: NIST Mass Spectrometry Data Center, 1994
m/z	RELATIVE INTENSITY
14	5
15	155
27	239
28	236
29	1092
30	9999
31	146
32	23
39	350
41	1409
42	996
43	219
44	771
45	19
52	9
53	34
54	58
55	211
56	370
57	1727
58	1041
59	164
63	11
67	16
68	60
69	38
70	342
71	980
72	1179
73	64
81	8
82	74
83	26
84	222
85	8
86	3457
87	317
88	38
98	40
99	49
100	219
101	505
102	34
115	10
157	153
158	13
172	109
173	15
