Mass Spectrum: Butyronitrile, 2,3,3-trimethyl-2-(4-bromophenyldiazenyl)-
Formula: C13 H16 Br N3
CAS: 40620-33-5
Molecular weight: 293
Origin: ASES Database, Dalian Institute, P.R. China
m/z	RELATIVE INTENSITY
39	3026
41	5424
42	579
43	1188
50	1977
51	679
52	599
53	1178
55	1178
57	3426
63	389
65	399
67	599
68	1688
69	579
74	1208
75	3216
76	299
77	3586
80	609
82	589
83	389
90	589
94	589
123	289
129	299
131	399
155	9979
156	1198
157	9999
158	1208
183	6982
184	699
185	7022
186	689
210	199
212	199
237	289
239	289
250	389
252	399
293	99
295	99
