Mass Spectrum: 5-Methyl-2,4-diisopropylphenol
Formula: C13 H20 O
CAS: 40625-96-5
Molecular weight: 192
Origin: NIST Mass Spectrometry Data Center
m/z	RELATIVE INTENSITY
27	90
29	40
38	10
39	220
40	30
41	430
42	20
43	480
44	20
45	10
50	30
51	190
52	60
53	190
54	20
55	140
57	30
58	60
59	20
60	10
62	30
63	150
64	130
65	300
66	100
67	160
69	60
70	30
71	40
72	70
73	120
74	70
75	40
76	40
77	550
78	140
79	440
80	330
81	340
82	10
86	10
87	20
88	20
89	80
90	20
91	961
92	90
93	60
94	20
101	20
102	70
103	200
104	60
105	490
106	60
107	280
108	40
109	110
110	10
113	10
114	10
115	841
116	320
117	681
118	100
119	180
120	50
121	831
122	80
126	10
127	140
128	450
129	360
130	70
131	270
132	70
133	230
134	80
135	1641
136	170
137	30
139	10
141	110
142	60
143	80
144	120
145	90
146	90
147	130
148	50
149	410
150	40
152	10
153	10
157	10
158	10
159	70
160	30
161	360
162	80
163	80
164	10
175	70
176	40
177	9999
178	1311
179	110
180	10
191	30
192	2172
193	300
194	30
