Mass Spectrum: 2-Acetoxyisobutyryl chloride
Formula: C6 H9 Cl O3
CAS: 40635-66-3
Molecular weight: 164
Origin: NIST Mass Spectrometry Data Center
m/z	RELATIVE INTENSITY
13	10
14	60
15	420
25	10
26	80
27	250
29	110
31	270
35	20
36	40
37	60
38	130
39	811
40	180
41	1081
42	881
43	9999
44	230
45	60
49	30
50	10
51	20
53	30
55	10
57	20
58	110
59	2652
60	90
61	100
63	170
65	50
68	70
69	160
70	110
72	60
76	10
77	230
78	10
79	70
86	60
100	150
101	3463
102	190
103	10
128	80
129	10
