Mass Spectrum: Z-4-Dodecenol
Formula: C12 H24 O
CAS: 40642-37-3
Molecular weight: 184
Origin: M.Horiike ET AL.Biomed.Mass Spectr.,13,117(1986)
m/z	RELATIVE INTENSITY
27	1531
29	3633
31	1661
39	1922
41	9749
42	1922
43	6116
44	1561
53	1822
54	4024
55	8758
56	4944
57	3453
67	9318
68	9999
69	4194
70	1251
71	1251
81	9418
82	5195
83	2332
95	3223
96	2793
97	971
109	1071
110	1071
138	540
166	280
