Mass Spectrum: Phenylcyclopentylamine
Formula: C11 H15 N
CAS: 40649-26-1
Molecular weight: 161
Origin: Patti Price, Georgia Bureau of Investigation, Decatur, Georgia
m/z	RELATIVE INTENSITY
50	60
51	180
52	60
53	30
54	100
55	20
56	30
57	10
58	10
60	10
61	10
62	10
63	60
65	120
67	50
68	10
69	10
70	10
71	10
72	10
73	10
74	20
75	30
76	60
77	530
78	110
79	70
80	10
81	10
82	20
83	10
84	60
86	10
87	10
88	10
89	50
90	30
91	380
92	50
93	10
94	10
95	10
98	10
99	10
100	10
101	10
102	50
103	140
104	1111
105	210
106	70
107	10
110	10
114	10
115	660
116	90
117	280
118	90
119	140
120	10
126	10
127	40
128	160
129	70
130	160
131	80
132	9999
133	870
134	30
135	10
139	10
140	10
141	20
142	10
143	50
144	50
145	10
146	30
147	10
158	10
159	10
160	260
161	880
162	120
163	10
