Mass Spectrum: .alpha.-D-Galactopyranose, 1,2:3,4-bis-O-(1-methylethylidene)-
Formula: C12 H20 O6
CAS: 4064-06-6
Molecular weight: 260
Origin: Japan AIST/NIMC Database- Spectrum MS-IW- 64
m/z	RELATIVE INTENSITY
14	20
15	309
16	10
17	119
18	589
19	20
26	50
27	419
28	279
29	709
30	40
31	999
32	20
37	10
38	20
39	499
40	109
41	1169
42	289
43	9999
44	359
45	199
47	30
50	10
51	30
52	10
53	199
54	60
55	849
56	289
57	1099
58	1129
59	5229
60	389
61	259
65	20
66	10
67	50
68	229
69	3839
70	429
71	3349
72	159
73	799
74	50
75	30
77	10
78	10
79	20
80	30
81	3299
82	219
83	549
84	719
85	4239
86	419
87	209
88	10
89	50
91	20
93	20
94	10
95	189
96	60
97	1019
98	869
99	2009
100	5379
101	1049
102	80
103	70
105	10
107	40
108	10
109	569
110	50
111	99
112	20
113	3049
114	439
115	329
116	50
117	70
119	20
121	10
123	60
124	10
125	50
126	30
127	3089
128	209
129	199
130	40
131	80
137	30
138	20
139	269
140	30
141	179
142	50
143	169
144	139
145	279
146	20
153	10
155	30
156	60
157	30
159	50
160	10
167	30
169	159
170	20
171	549
172	50
173	60
185	619
186	70
187	2209
188	199
189	30
199	10
201	20
202	20
203	149
204	10
229	90
230	10
243	10
245	8309
246	1029
247	159
248	10
260	10
