Mass Spectrum: 8-Dodecen-1-ol, (Z)-
Formula: C12 H24 O
CAS: 40642-40-8
Molecular weight: 184
Origin: NIST Mass Spectrometry Data Center, 1998.
m/z	RELATIVE INTENSITY
15	20
19	20
26	40
27	840
28	190
29	1260
30	50
31	1780
32	20
33	10
37	10
38	30
39	1650
40	290
41	6489
42	1210
43	1590
44	250
45	190
46	10
50	40
51	170
52	120
53	1200
54	4060
55	9999
56	1610
57	1300
58	100
59	40
62	10
63	30
64	10
65	370
66	600
67	7879
68	4390
69	2880
70	660
71	450
72	70
73	40
77	290
78	60
79	760
80	310
81	6579
82	5999
83	1380
84	260
85	260
86	50
87	10
91	110
92	10
93	180
94	130
95	3660
96	3080
97	600
98	120
99	60
100	20
105	10
107	40
108	40
109	1600
110	1240
111	170
112	30
113	20
115	10
121	20
122	30
123	550
124	420
125	50
127	10
135	10
136	10
137	230
138	330
139	30
140	20
141	10
151	20
156	20
164	10
166	370
167	50
184	20
