Mass Spectrum: 1H-Indene, 2,3-dihydro-1,1,5-trimethyl-
Formula: C12 H16
CAS: 40650-41-7
Molecular weight: 160
Origin: M.C.HAMMING CONTINENTAL OIL CO., PONCA CITY., OKLA., USA
m/z	RELATIVE INTENSITY
13	11
14	59
15	780
16	12
25	4
26	70
27	611
28	196
29	150
30	5
37	19
38	78
39	725
40	85
41	293
42	17
43	15
44	12
47	6
49	8
50	178
51	518
52	135
53	295
54	21
55	20
56	10
57	35
58	56
61	22
62	107
63	380
64	289
65	373
66	38
67	50
68	10
69	37
70	113
71	277
72	68
74	76
75	114
76	116
77	501
78	199
79	198
80	28
85	11
86	30
87	50
88	26
89	132
90	32
91	422
92	56
93	35
94	21
97	18
98	33
99	25
100	20
101	52
102	152
103	176
104	77
105	610
106	67
107	15
109	14
110	16
111	16
112	14
113	37
114	47
115	945
116	234
117	276
118	59
119	46
120	20
122	16
125	27
126	59
127	340
128	1024
129	876
130	796
131	155
132	37
133	22
138	16
139	58
140	32
141	206
142	98
143	220
144	200
145	9999
146	1222
147	73
148	11
151	12
152	17
153	15
154	11
155	14
156	11
157	14
158	20
159	53
160	1450
161	196
162	12
