Mass Spectrum: p-Bromophenyl trifluoromethyl ether
Formula: C7 H4 Br F3 O
CAS: 407-14-7
Molecular weight: 240
Origin: NIST Mass Spectrometry Data Center, 1994
m/z	RELATIVE INTENSITY
17	106
18	66
25	131
26	35
28	213
36	156
37	1202
38	3081
39	540
40	16
47	184
49	436
50	2285
51	356
52	16
53	366
60	233
61	971
62	1731
63	4782
64	3140
65	223
66	239
69	4267
70	99
73	139
75	1813
76	610
77	136
79	207
81	196
92	1262
93	245
94	323
95	2727
96	195
117	549
118	99
119	524
143	3656
144	310
145	3244
146	224
155	873
156	117
157	804
161	161
171	3616
172	336
173	3656
174	420
240	9731
241	1132
242	9999
243	902
