Mass Spectrum: Acetic acid, trifluoro-, 2,2,2-trifluoroethyl ester
Formula: C4 H2 F6 O2
CAS: 407-38-5
Molecular weight: 196
Origin: NIST Mass Spectrometry Data Center
m/z	RELATIVE INTENSITY
12	40
13	40
14	50
19	20
20	20
25	20
26	50
29	1601
30	330
31	1051
33	3243
34	40
44	230
45	110
47	60
50	1311
51	530
52	10
54	10
61	240
62	10
63	450
64	390
65	50
66	10
69	9999
70	110
78	280
79	120
80	50
81	20
83	5695
84	130
97	921
99	1091
100	20
127	3033
128	100
129	30
148	20
177	490
178	20
