Mass Spectrum: Benzene,1-methoxy-4-(3-phenylpropyl)-
Formula: C16 H18 O
CAS: 40715-68-2
Molecular weight: 226
Origin: ASES Database, Dalian Institute, P.R. China
m/z	RELATIVE INTENSITY
39	550
40	30
41	380
42	70
43	380
44	350
50	80
51	670
52	340
53	200
55	190
56	80
57	230
63	340
65	890
77	810
78	1060
79	470
89	270
90	190
91	2332
92	1101
103	460
104	390
105	860
106	150
107	200
108	460
121	9999
122	1461
123	70
134	1441
135	1090
136	70
226	2752
227	380
