Mass Spectrum: Diaziridine,1,3,3-trimethyl-
Formula: C4 H10 N2
CAS: 40711-15-7
Molecular weight: 86
Origin: A.Pleshkova, Nesmeyanov Inst.Org.Elem.Cpds, Moscow
m/z	RELATIVE INTENSITY
15	550
27	741
28	1762
29	1041
30	3663
31	510
37	250
38	460
39	2542
40	841
41	3753
42	9999
43	1331
44	1511
45	2752
46	561
54	641
55	1241
56	3133
57	941
58	500
70	8548
71	1151
72	70
85	1531
86	230
87	10
