Mass Spectrum: Propane, 1,1,2,2-tetrafluoro-
Formula: C3 H4 F4
CAS: 40723-63-5
Molecular weight: 116
Origin: E.SANTORO MONTEDISON S.P.A., RESEARCH CENTRE, MILAN, ITALY
m/z	RELATIVE INTENSITY
15	150
27	610
31	500
33	210
44	200
45	1590
46	400
47	380
51	2670
64	420
65	9999
66	220
69	320
77	680
95	390
97	290
101	1310
116	5
