Mass Spectrum: 3'-O-tert-butyldimethylsilyl-thymidine
Formula: C16 H28 N2 O5 Si
CAS: 40733-27-5
Molecular weight: 356
Origin: ASES Database, Dalian Institute, P.R. China
m/z	RELATIVE INTENSITY
59	1371
69	2222
73	9999
74	1121
75	8898
76	830
81	2632
89	1101
99	4734
101	1821
103	920
105	1111
115	3323
116	820
117	5034
126	1401
127	6135
129	2512
131	2612
143	1941
145	1101
147	4173
153	7236
155	1401
171	710
173	3323
183	1661
187	2212
201	4173
202	720
213	560
231	4173
232	820
299	2502
300	550
