Mass Spectrum: 2,4,6 Tri-tert-butylnitrobenzene
Formula: C18 H29 N O2
CAS: 4074-25-3
Molecular weight: 291
Origin: Japan AIST/NIMC Database- Spectrum MS-IW- 810
m/z	RELATIVE INTENSITY
27	20
28	70
29	169
39	50
41	449
42	20
43	369
44	20
51	10
53	30
55	129
56	20
57	2039
58	90
59	20
65	30
67	30
69	40
71	20
77	60
78	20
79	40
80	10
81	20
83	20
85	10
89	10
91	139
92	10
93	30
94	20
95	20
97	10
100	20
101	20
102	10
103	20
105	90
106	30
107	30
108	30
109	10
111	10
115	80
116	30
117	90
118	30
119	70
120	30
121	30
122	30
123	10
127	20
128	90
129	90
130	60
131	189
132	99
133	60
134	60
135	30
136	30
141	50
142	50
143	90
144	99
145	159
146	119
147	99
148	319
149	60
150	40
152	10
153	20
154	20
155	30
156	40
157	70
158	80
159	90
160	149
161	80
162	279
163	40
164	20
165	10
167	10
168	10
169	30
170	40
171	40
172	159
173	439
174	229
175	139
176	40
177	10
178	40
182	10
183	10
184	40
185	30
186	109
187	80
188	129
189	119
190	219
191	50
192	20
198	20
199	20
200	70
201	60
202	269
203	179
204	99
205	20
206	10
212	20
213	30
214	30
215	119
216	129
217	129
218	149
219	20
220	60
228	109
229	50
230	90
231	409
232	90
233	10
234	20
235	10
242	60
243	20
244	159
245	50
246	239
247	50
248	10
256	10
257	20
258	30
259	20
260	30
261	60
262	20
274	189
275	50
276	9999
277	1929
278	209
279	20
290	10
291	1709
292	359
293	40
