Mass Spectrum: Adipic acid divinyl ester
Formula: C10 H14 O4
CAS: 4074-90-2
Molecular weight: 198
Origin: Japan AIST/NIMC Database- Spectrum MS-NW-4014
m/z	RELATIVE INTENSITY
13	10
14	109
15	569
16	10
17	10
18	30
25	10
26	259
27	2799
28	909
29	1119
30	20
31	139
32	30
37	10
38	30
39	699
40	119
41	1979
42	869
43	1259
44	309
45	179
50	30
51	40
52	30
53	219
54	80
55	9999
56	669
57	239
58	50
59	299
60	20
62	10
65	10
66	10
67	299
68	99
69	429
70	40
71	1879
72	80
73	50
77	10
79	40
80	10
81	1359
82	109
83	3369
84	299
85	1109
86	99
87	30
91	40
93	30
95	20
97	10
98	10
99	119
100	10
101	50
109	2489
110	219
111	5419
112	389
113	129
114	10
126	30
127	929
128	80
129	30
137	619
138	60
154	10
155	3769
156	369
157	40
