Mass Spectrum: Benzeneethanamine, N,N,.alpha.-trimethyl-
Formula: C11 H17 N
CAS: 4075-96-1
Molecular weight: 163
Origin: Patti Price, Georgia Bureau of Investigation, Decatur, Georgia
m/z	RELATIVE INTENSITY
41	150
42	710
44	530
50	90
51	270
52	90
53	30
54	60
55	70
56	560
57	160
58	30
60	10
62	30
63	240
64	50
65	740
66	30
68	10
70	470
71	120
72	9999
73	540
74	30
75	30
76	40
77	250
78	100
79	40
80	10
84	10
86	10
87	10
88	10
89	160
90	70
91	1321
92	80
94	10
101	10
103	80
104	50
105	40
106	10
107	10
110	10
115	170
116	50
117	150
118	40
119	40
120	10
128	10
129	10
130	10
131	30
132	50
133	90
134	10
144	10
145	10
146	80
147	30
148	100
149	20
160	30
161	10
162	10
163	10
