Mass Spectrum: Pyrazine, 3-butyl-2,5-dimethyl-
Formula: C10 H16 N2
CAS: 40790-29-2
Molecular weight: 164
m/z	RELATIVE INTENSITY
14	20
15	240
17	50
18	160
25	10
26	140
27	1121
28	400
29	420
30	30
31	10
32	10
36	10
37	30
38	170
39	1702
40	470
41	781
42	1521
43	120
44	20
45	10
46	10
47	10
48	10
49	10
50	70
51	190
52	330
53	761
54	330
55	140
56	60
57	80
58	10
59	10
60	10
61	10
62	10
63	40
64	60
65	110
66	190
67	140
68	60
69	30
70	10
71	10
72	10
73	10
74	10
75	10
76	20
77	60
78	50
79	70
80	300
81	130
82	50
83	20
84	70
85	10
86	10
87	10
88	10
89	10
90	10
91	30
92	20
93	40
94	80
95	70
96	100
97	20
98	10
99	10
100	10
101	10
102	10
103	10
104	10
105	20
106	30
107	250
108	130
109	50
110	10
111	10
112	10
113	10
114	10
115	10
116	10
117	10
118	10
119	20
120	130
121	80
122	9999
123	851
124	50
125	10
126	10
127	10
128	10
129	10
130	10
131	10
132	20
133	120
134	50
135	1101
136	280
137	30
138	10
139	10
144	10
145	10
146	50
147	20
148	20
149	701
150	80
151	10
159	10
160	10
161	10
162	10
163	120
164	60
165	30
166	10
167	10
