Mass Spectrum: 1,12-Dodecanedioyl dihydrazide
Formula: C12 H26 N4 O2
CAS: 4080-98-2
Molecular weight: 258
Origin: Japan AIST/NIMC Database- Spectrum MS-IW-7452
m/z	RELATIVE INTENSITY
15	10
16	99
17	299
18	1159
20	20
26	60
27	289
28	729
29	369
30	70
31	199
32	1829
33	879
38	10
39	209
40	60
41	1349
42	279
43	789
44	109
45	60
46	10
50	10
51	20
52	50
53	149
54	199
55	1979
56	319
57	539
58	90
59	629
60	30
65	30
66	30
67	559
68	149
69	1239
70	189
71	249
72	70
73	99
74	649
75	80
77	40
78	20
79	179
80	119
81	619
82	269
83	1049
84	169
85	149
86	50
87	359
88	30
91	90
92	20
93	259
94	99
95	299
96	239
97	569
98	169
99	99
100	30
101	209
102	20
103	10
105	60
106	20
107	169
108	90
109	159
110	139
111	269
112	60
113	70
114	20
115	239
116	20
117	20
118	10
119	40
120	20
121	90
122	99
123	99
124	70
125	149
126	30
127	40
128	20
129	229
130	30
131	30
132	10
133	60
134	30
135	129
136	70
137	30
138	20
139	20
140	20
141	70
142	10
143	149
144	10
145	10
146	10
147	40
148	30
149	469
150	80
151	30
152	50
153	70
154	10
155	10
157	129
158	20
159	129
160	20
161	20
162	10
163	10
164	30
165	20
166	90
167	139
168	20
169	20
170	40
171	30
172	20
173	10
174	40
175	30
176	10
177	109
178	20
179	20
181	40
182	20
183	10
184	40
185	1549
186	189
187	10
191	20
192	80
194	149
195	329
196	40
197	10
199	359
200	60
207	20
209	3389
210	499
211	50
212	169
213	30
227	9999
228	1429
229	129
230	10
243	10
257	10
258	909
259	229
260	20
