Mass Spectrum: N,N-Bis(4-chlorobenzyl)hydroxylamine
Formula: C14 H13 Cl2 N O
CAS: 40861-08-3
Molecular weight: 281
Origin: NIST Mass Spectrometry Data Center, 1994
m/z	RELATIVE INTENSITY
6	9
7	6
8	11
13	10
17	12
18	36
23	9
25	8
27	45
28	1422
30	95
33	5
35	39
36	27
37	43
38	170
39	717
40	98
41	86
42	37
47	1
49	77
50	713
51	866
52	121
53	25
54	26
59	24
60	17
61	75
62	297
63	1186
64	243
65	384
66	29
67	13
69	9
70	12
73	362
74	175
75	945
76	265
77	947
78	161
79	19
81	16
82	27
84	38
85	135
86	78
87	111
88	16
89	3172
90	1031
91	2540
92	185
93	14
96	18
97	54
99	930
100	66
101	298
102	139
103	30
104	157
105	107
106	21
110	19
111	331
112	227
113	305
114	111
115	104
116	33
117	148
118	154
119	34
123	70
125	9999
126	1531
127	3312
128	427
129	20
138	365
140	4462
141	370
142	1294
143	112
150	28
151	120
152	639
153	234
154	652
155	95
156	152
157	14
162	9
163	31
164	22
165	83
166	22
167	15
178	16
190	8
191	16
192	7
193	14
194	19
199	27
201	13
214	8
227	26
228	29
230	690
231	99
232	186
233	37
235	7
260	7
262	101
263	197
264	942
265	1019
266	670
267	652
268	174
269	107
270	16
