Mass Spectrum: 2-Buten-1-ol, (Z)-
Formula: C4 H8 O
CAS: 4088-60-2
Molecular weight: 72
Origin: NIST Mass Spectrometry Data Center, 1990.
m/z	RELATIVE INTENSITY
13	68
14	175
15	575
16	69
17	57
18	22
24	33
25	228
26	1128
27	4133
28	1064
29	7144
30	351
31	2899
32	88
36	117
37	682
38	1320
39	5523
40	748
41	2954
42	893
43	4247
44	1017
45	298
48	44
49	228
50	779
51	658
52	230
53	1436
54	1281
55	762
56	44
57	9999
58	321
69	208
70	160
71	648
72	2032
73	106
