Mass Spectrum: 3-Bromo-2,2-dimethyl-1-propanol
Formula: C5 H11 Br O
CAS: 40894-00-6
Molecular weight: 166
Origin: Chuck Anderson, Aldrich Chemical Co.
m/z	RELATIVE INTENSITY
14	18
15	100
17	6
18	4
19	28
25	6
26	120
27	1305
28	402
29	1955
30	99
31	1398
32	24
33	12
35	3
36	26
37	58
38	162
39	1565
40	269
41	2994
42	150
43	1379
44	65
45	705
46	14
49	15
50	97
51	126
52	38
53	439
54	54
55	4677
56	9999
57	2079
58	122
59	10
63	1
65	15
66	1
67	58
68	13
69	519
70	27
71	276
72	32
73	470
74	19
79	17
80	15
81	25
82	16
83	9
85	1
86	1299
87	100
88	3
91	5
92	2
93	85
94	5
95	84
105	8
107	211
109	202
111	7
119	14
121	38
123	35
125	5
133	12
134	245
135	866
136	298
137	872
138	66
148	4
150	3
151	21
153	19
167	2
