Mass Spectrum: 2-Butanone, 3-chloro-
Formula: C4 H7 Cl O
CAS: 4091-39-8
Molecular weight: 106
Origin: Japan AIST/NIMC Database- Spectrum MS-NW-4352
m/z	RELATIVE INTENSITY
13	10
14	70
15	379
18	20
25	30
26	219
27	879
28	60
29	119
35	20
36	40
37	40
38	40
39	119
40	10
41	129
42	339
43	9999
44	229
45	30
47	10
48	20
49	50
50	50
51	30
53	30
54	10
55	109
56	70
57	129
60	10
61	40
62	40
63	329
64	20
65	99
71	70
72	10
76	10
77	20
105	10
106	579
107	30
108	189
