Mass Spectrum: 3-Acetyl-2-methyl-5-phenylthiophene
Formula: C13 H12 O S
CAS: 40932-63-6
Molecular weight: 216
Origin: NIST Mass Spectrometry Data Center
m/z	RELATIVE INTENSITY
15	380
17	50
18	80
19	10
26	50
27	230
29	50
37	30
38	80
39	490
40	10
41	60
42	140
43	2032
44	130
45	1451
46	40
47	80
50	340
51	911
52	170
53	90
55	30
57	40
58	120
59	400
60	30
61	80
62	270
63	520
64	70
65	180
66	30
67	30
69	480
70	180
71	370
72	60
73	90
74	180
75	250
76	210
77	1041
78	120
79	100
81	40
82	70
83	30
85	180
86	300
87	210
88	100
89	290
90	70
91	60
92	40
93	180
94	50
95	130
96	40
97	40
98	70
99	80
100	831
102	340
103	170
104	20
105	20
108	340
109	120
110	30
111	40
113	160
114	190
115	450
116	50
117	20
119	30
121	711
122	50
123	30
126	130
127	691
128	1461
129	3423
130	390
131	20
132	10
134	180
135	20
137	30
139	410
140	110
141	70
145	80
146	20
147	70
152	50
153	70
154	20
157	10
158	160
159	20
165	20
169	30
171	661
172	370
173	811
174	150
175	50
184	20
187	70
191	20
197	50
198	20
199	10
201	9999
202	1511
203	550
204	60
216	6336
217	941
218	290
219	60
