Mass Spectrum: Tris(2-aminoethyl)amine
Formula: C6 H18 N4
CAS: 4097-89-6
Molecular weight: 146
Origin: NIST Mass Spectrometry Data Center
m/z	RELATIVE INTENSITY
11	40
15	330
17	80
18	1381
19	50
26	140
27	550
30	2903
39	70
40	30
41	550
42	1822
43	1141
44	9999
45	260
51	60
52	50
54	150
55	150
56	1952
57	240
58	661
59	70
68	160
69	170
70	1141
71	370
73	1772
74	80
82	80
83	120
84	260
85	601
87	841
97	170
99	2532
100	190
112	150
116	3513
117	230
