Mass Spectrum: 2,5-Furandione, dihydro-3-methyl-
Formula: C5 H6 O3
CAS: 4100-80-5
Molecular weight: 114
Origin: NIST Mass Spectrometry Data Center, 1998.
m/z	RELATIVE INTENSITY
14	40
15	90
25	60
26	360
27	910
28	180
29	120
34	20
35	10
36	40
37	280
38	480
39	1960
40	1070
41	3970
42	9999
43	400
44	180
45	90
49	10
50	20
52	10
53	130
54	20
55	280
56	20
69	30
70	1490
71	70
115	10
