Mass Spectrum: Decane, 1,10-dibromo-
Formula: C10 H20 Br2
CAS: 4101-68-2
Molecular weight: 298
Origin: NIST Mass Spectrometry Data Center, 1990.
m/z	RELATIVE INTENSITY
27	1607
28	127
29	1599
39	2294
40	642
41	7162
42	1234
43	2928
44	131
51	186
52	128
53	993
54	128
55	9999
56	1265
57	3718
58	165
65	161
66	117
67	1241
68	616
69	5584
70	566
71	3134
72	183
77	132
79	287
80	155
81	606
82	404
83	4212
84	326
85	935
93	243
95	465
97	2092
98	156
106	83
107	672
109	762
121	305
123	243
135	2736
136	278
137	2873
138	137
139	261
148	260
149	632
150	279
151	604
162	85
163	784
164	134
165	724
177	551
179	534
