Mass Spectrum: Quinoline, 6-methoxy-4-methyl-
Formula: C11 H11 N O
CAS: 41037-26-7
Molecular weight: 173
Origin: CARL DJERASSI DEPT OF CHEM STANFORD UNIV STANFORD CALIF 94305
m/z	RELATIVE INTENSITY
43	101
50	707
51	1313
52	707
53	404
62	505
63	909
64	202
65	101
74	202
75	404
76	606
77	1919
78	303
80	101
86	101
87	101
88	101
89	202
101	101
102	808
103	1212
104	303
115	505
116	101
128	303
129	202
130	8384
131	909
142	202
143	909
144	303
158	1111
159	101
161	101
172	101
173	9999
174	1515
