Mass Spectrum: Cyclohexene, 3-(2-methylpropyl)-
Formula: C10 H18
CAS: 4104-56-7
Molecular weight: 138
Origin: S.A. Rang et al., IR & MS of Unsatd. Hydrocarbons, 1977
m/z	RELATIVE INTENSITY
15	69
16	17
24	4
25	15
26	99
27	1832
28	366
29	1282
37	26
38	71
39	2106
40	334
41	4762
42	355
43	1740
44	183
45	30
46	7
50	78
51	319
52	234
53	1526
54	860
55	2015
56	555
57	1193
58	86
59	35
60	17
62	15
63	69
64	24
65	527
66	369
67	4213
68	971
69	426
70	405
71	84
72	15
73	15
74	11
75	35
76	13
77	1027
78	227
79	2656
80	1027
81	9999
82	5311
83	527
84	91
85	48
86	13
87	13
89	17
90	9
91	383
92	76
93	500
94	312
95	4396
96	1923
97	805
98	163
99	24
100	13
101	15
102	7
103	17
104	9
105	37
106	13
107	61
108	39
109	170
110	163
111	156
112	26
113	35
114	9
121	9
122	13
123	348
124	71
125	28
134	13
135	17
136	89
137	107
138	1277
139	135
140	13
