Mass Spectrum: 1-Butanamine, N,3-dimethyl-
Formula: C6 H15 N
CAS: 4104-44-3
Molecular weight: 101
m/z	RELATIVE INTENSITY
15	90
17	10
18	20
27	200
28	400
29	200
30	300
31	100
41	300
42	300
43	400
44	9999
45	300
46	10
55	100
56	100
57	90
58	300
59	30
69	20
70	90
71	30
72	60
73	10
84	30
85	10
86	50
87	30
98	20
99	10
100	60
101	1000
