Mass Spectrum: Methyl 4-methoxyacetoacetate
Formula: C6 H10 O4
CAS: 41051-15-4
Molecular weight: 146
Origin: Japan AIST/NIMC Database- Spectrum MS-IW-3488
m/z	RELATIVE INTENSITY
13	20
14	139
15	1479
16	30
18	20
25	10
26	109
27	409
28	309
29	1709
30	119
31	669
32	299
33	139
37	20
38	40
39	99
40	30
41	199
42	1399
43	929
44	329
45	9999
46	419
47	70
53	40
54	10
55	269
56	80
57	949
58	409
59	2819
60	99
61	40
68	10
69	1789
70	70
71	50
72	319
73	40
74	139
75	99
83	80
84	359
85	70
86	60
87	139
88	889
89	50
90	10
99	70
100	30
101	3799
102	169
103	559
104	30
113	20
114	999
115	1919
116	479
117	30
118	899
119	50
131	50
146	1059
147	70
148	10
