Mass Spectrum: 3-Dibenzofuranamine
Formula: C12 H9 N O
CAS: 4106-66-5
Molecular weight: 183
Origin: ORMSBG,9(10)1046(1974); RIEPE
m/z	RELATIVE INTENSITY
100	77
101	233
102	277
103	75
113	71
114	63
115	100
125	8
126	344
127	958
128	762
129	130
131	128
138	72
139	112
140	78
152	95
153	160
154	743
155	5800
156	293
157	54
166	101
168	105
180	56
182	869
183	9999
184	1440
185	110
