Mass Spectrum: 7-Amino-3-phenylcoumarin
Formula: C15 H11 N O2
CAS: 4108-61-6
Molecular weight: 237
Origin: V.G.Zaikin, TIPS, Russian Acad. Sci.
m/z	RELATIVE INTENSITY
50	200
51	500
52	300
77	700
104	2001
105	400
113	100
126	100
127	200
139	200
151	200
152	700
153	400
165	200
180	2201
181	400
208	300
209	5004
210	900
236	200
237	9999
238	1680
239	130
240	10
