Mass Spectrum: Benzonitrile, 3,5-dinitro-
Formula: C7 H3 N3 O4
CAS: 4110-35-4
Molecular weight: 193
Origin: MASS SPECTROMETRY CENTER, UNIV. OF UTAH; ALDRICH D19500-6
m/z	RELATIVE INTENSITY
12	114
25	29
26	222
27	470
29	196
30	9999
31	284
36	152
37	998
38	1519
39	242
40	159
42	6
45	188
46	845
48	70
49	453
50	7860
51	665
52	306
53	183
60	114
61	593
62	2052
63	725
64	826
65	119
66	108
72	111
73	743
74	1831
75	3437
76	951
77	189
78	19
79	45
85	73
86	182
87	230
88	563
89	910
90	157
91	20
98	110
99	1381
100	5416
101	5661
102	627
103	58
115	21
116	73
117	1864
118	209
131	5
147	2491
148	249
163	20
177	217
193	7466
194	658
195	132
