Mass Spectrum: Sulfide, ethyl propyl
Formula: C5 H12 S
CAS: 4110-50-3
Molecular weight: 104
Origin: Japan AIST/NIMC Database- Spectrum MS-NW-2889
m/z	RELATIVE INTENSITY
14	10
15	99
25	10
26	189
27	1989
28	279
29	1529
30	30
31	10
32	50
33	20
34	119
35	459
36	10
37	40
38	70
39	809
40	109
41	2629
42	1129
43	2299
44	90
45	919
46	899
47	4609
48	239
49	209
50	10
51	10
53	10
55	119
56	10
57	60
58	239
59	379
60	359
61	1829
62	4419
63	1179
64	219
65	50
69	30
70	10
71	50
72	10
73	90
74	109
75	9999
76	669
77	449
78	30
85	10
89	939
90	80
91	50
103	70
104	5309
105	359
106	239
107	10
