Mass Spectrum: Pentadecanoic acid, ethyl ester
Formula: C17 H34 O2
CAS: 41114-00-5
Molecular weight: 270
Origin: Japan AIST/NIMC Database- Spectrum MS-NW-8309
m/z	RELATIVE INTENSITY
14	10
15	20
17	10
18	30
26	30
27	449
28	179
29	1699
30	50
31	70
32	10
39	219
40	60
41	1919
42	499
43	3029
44	99
45	699
46	20
47	10
53	99
54	149
55	1939
56	499
57	1889
58	109
59	109
60	1059
61	1299
62	30
65	10
66	10
67	249
68	159
69	1199
70	1529
71	839
72	50
73	1779
74	279
75	60
77	10
79	60
80	20
81	219
82	119
83	829
84	419
85	419
86	40
87	299
88	9999
89	1299
90	80
91	10
93	40
94	10
95	199
96	80
97	599
98	349
99	99
100	10
101	5399
102	479
103	40
107	30
108	10
109	99
110	40
111	249
112	90
113	50
114	10
115	559
116	60
121	40
123	50
124	20
125	129
126	30
127	20
129	259
130	90
131	10
135	40
137	20
138	10
139	60
140	10
141	10
143	479
144	90
149	20
151	10
152	10
153	30
154	10
157	969
158	109
159	10
163	10
167	20
168	10
171	229
172	40
177	10
180	10
181	10
185	169
186	30
195	10
196	10
199	209
200	30
205	10
213	199
214	30
223	20
224	10
225	639
226	99
227	549
228	90
229	10
241	139
242	40
243	10
270	509
271	109
272	10
