Mass Spectrum: 4-(Nonafluoro-tert-butyl) aniline
Formula: C10 H6 F9 N
CAS: 41125-50-2
Molecular weight: 311
Origin: V.V.Takhistov
m/z	RELATIVE INTENSITY
50	801
51	901
57	500
64	901
65	500
69	3103
77	801
125	400
126	601
145	1001
152	1001
153	4304
154	801
172	1101
173	801
192	1601
193	400
222	3103
223	1601
242	4004
243	601
252	601
272	500
292	1201
311	9999
312	1601
