Mass Spectrum: 1,2-Hydrazinedicarboxylic acid, diethyl ester
Formula: C6 H12 N2 O4
CAS: 4114-28-7
Molecular weight: 176
Origin: RADIAN CORP
m/z	RELATIVE INTENSITY
15	210
16	20
17	20
18	80
19	60
26	440
27	3350
28	470
29	9999
30	1040
31	2860
32	2730
41	40
42	180
43	750
44	820
45	2450
46	90
47	30
58	270
59	1020
60	50
62	210
71	140
73	50
75	310
76	240
77	10
85	260
89	90
102	80
103	960
104	1160
105	60
117	30
130	180
131	240
176	170
177	20
