Mass Spectrum: Propanoic acid, 2-bromo-, butyl ester
Formula: C7 H13 Br O2
CAS: 41145-84-0
Molecular weight: 208
Origin: Japan AIST/NIMC Database- Spectrum MS-NW- 951
m/z	RELATIVE INTENSITY
14	10
15	70
17	10
18	30
25	20
26	419
27	2969
28	1729
29	5419
30	129
31	279
32	40
36	30
37	10
38	50
39	679
40	129
41	5969
42	329
43	629
44	90
45	119
50	20
51	30
53	80
54	50
55	1019
56	9999
57	9289
58	419
59	20
69	20
71	99
72	30
73	219
74	169
75	30
79	30
80	50
81	30
82	50
83	70
85	10
87	10
93	10
99	10
100	20
101	50
105	20
106	40
107	1289
108	70
109	1249
110	30
121	20
123	20
129	30
134	20
135	899
136	50
137	869
138	30
153	599
154	20
155	619
156	20
165	40
167	50
