Mass Spectrum: Hydrazinecarboxylic acid, ethyl ester
Formula: C3 H8 N2 O2
CAS: 4114-31-2
Molecular weight: 104
Origin: Japan AIST/NIMC Database- Spectrum MS-NW-6555
m/z	RELATIVE INTENSITY
12	20
13	30
14	109
15	389
16	119
17	279
18	349
25	50
26	429
27	4389
28	2309
29	8239
30	869
31	6959
32	9999
33	80
39	10
40	10
41	40
42	169
43	609
44	699
45	6869
46	369
47	30
48	50
50	10
56	10
57	10
58	199
59	1919
60	50
61	10
62	50
63	10
64	139
69	10
71	20
73	10
74	30
75	30
76	439
77	30
78	10
79	10
89	50
103	30
104	2149
105	139
106	10
