Mass Spectrum: 1,3-Propanedione,2,2-dimethyl-1,3-diphenyl-
Formula: C17 H16 O2
CAS: 41169-42-0
Molecular weight: 252
Origin: Organic Synthesis Lab, MSU, Moscow.TRC 1132
m/z	RELATIVE INTENSITY
37	9
38	29
39	229
40	39
41	479
42	169
43	39
49	9
50	309
51	1139
52	109
53	19
55	19
57	9
62	29
63	59
64	9
65	39
69	59
70	59
73	9
74	89
75	99
76	209
77	3869
78	519
79	79
86	9
87	9
89	29
90	9
91	419
92	39
101	9
102	29
103	69
104	49
105	9999
106	1469
107	109
115	99
116	29
117	29
118	19
119	159
120	19
126	9
127	29
128	49
129	109
130	59
131	49
132	19
133	19
135	9
145	19
146	29
147	129
148	39
151	9
152	39
153	19
154	9
165	19
178	9
181	19
237	9
252	1049
253	209
254	19
