Mass Spectrum: 2,8-Decadiyne
Formula: C10 H14
CAS: 4116-93-2
Molecular weight: 134
Origin: Japan AIST/NIMC Database- Spectrum MS-NW-5997
m/z	RELATIVE INTENSITY
14	20
15	50
25	10
26	219
27	3549
28	50
29	509
30	20
31	10
36	10
37	90
38	329
39	4009
40	999
41	5549
42	379
43	90
44	60
45	10
46	10
48	10
49	40
50	879
51	2179
52	1379
53	7319
54	989
55	1659
56	179
57	40
58	30
59	10
60	10
61	70
62	219
63	549
64	209
65	1949
66	1569
67	2579
68	1639
69	249
70	30
71	20
72	10
73	20
74	119
75	99
76	80
77	4669
78	1309
79	5489
80	809
81	579
82	179
83	30
84	20
85	20
86	30
87	30
88	20
89	109
90	60
91	9999
92	1499
93	1319
94	339
95	189
96	30
97	20
98	30
99	10
100	10
101	20
102	90
103	919
104	739
105	4859
106	5529
107	639
108	70
109	20
110	10
111	20
112	10
113	10
114	20
115	439
116	189
117	1249
118	289
119	8289
120	869
121	70
127	30
128	60
129	50
130	20
131	159
132	50
133	1249
134	189
135	50
136	10
