Mass Spectrum: Furan, 2,5-diethyltetrahydro-
Formula: C8 H16 O
CAS: 41239-48-9
Molecular weight: 128
Origin: NIST Mass Spectrometry Data Center
m/z	RELATIVE INTENSITY
26	50
27	721
28	240
29	1321
30	40
31	210
38	40
39	971
40	100
41	1972
42	1982
43	2322
44	110
45	110
51	80
52	50
53	410
54	240
55	6336
56	370
57	2162
58	200
59	1131
60	40
62	20
65	60
66	30
67	190
68	120
69	500
70	2462
71	460
72	40
77	30
81	9999
82	691
83	150
84	50
97	30
98	430
99	6346
100	561
127	110
128	250
129	30
