Mass Spectrum: Cycloheptane, methyl-
Formula: C8 H16
CAS: 4126-78-7
Molecular weight: 112
Origin: NIST Mass Spectrometry Data Center, 1990.
m/z	RELATIVE INTENSITY
26	325
27	2235
28	1407
29	1494
39	4481
40	1169
41	7563
42	3462
43	1599
50	303
51	612
52	279
53	1514
55	9999
56	4579
57	736
63	189
65	426
66	230
67	1380
68	1377
69	3912
70	2719
71	329
77	320
79	323
81	352
82	1648
83	3901
84	1848
96	1725
97	9758
98	748
112	1373
