Mass Spectrum: Cyclopropane, 1,1,2,2-tetramethyl-
Formula: C7 H14
CAS: 4127-47-3
Molecular weight: 98
Origin: NIST Mass Spectrometry Data Center, 1990.
m/z	RELATIVE INTENSITY
14	187
15	422
16	80
27	1508
28	115
29	883
37	88
38	322
39	3214
40	677
41	5362
42	405
43	1379
44	52
50	158
51	329
52	116
53	644
54	52
55	9999
56	1051
57	169
63	74
65	215
66	77
67	515
68	72
69	191
70	65
77	81
79	128
81	154
83	6661
84	468
98	1504
99	139
