Mass Spectrum: Cyclopropane, 1,1,2-trimethyl-
Formula: C6 H12
CAS: 4127-45-1
Molecular weight: 84
m/z	RELATIVE INTENSITY
1	60
2	10
12	10
13	20
14	90
15	561
16	20
25	10
26	240
27	1812
28	290
29	711
30	10
31	10
32	10
33	10
36	10
37	110
38	270
39	2542
40	510
41	9999
42	991
43	561
44	20
49	20
50	130
51	210
52	70
53	601
54	110
55	1031
56	641
57	130
60	10
61	10
62	30
63	50
64	10
65	80
66	40
67	360
68	110
69	6136
70	350
71	10
73	10
74	10
75	10
77	20
78	10
79	10
80	10
81	10
82	10
83	50
84	2903
85	190
86	10
