Mass Spectrum: 2,6,10-Dodecatrien-1-ol, 3,7,11-trimethyl-, acetate, (E,E)-
Formula: C17 H28 O2
CAS: 4128-17-0
Molecular weight: 264
m/z	RELATIVE INTENSITY
15	70
17	10
18	40
24	20
27	320
28	70
29	440
38	10
39	510
40	240
41	3934
42	230
43	4264
44	90
48	10
50	10
51	70
52	40
53	861
54	80
55	1091
56	120
57	160
61	10
63	20
64	20
65	190
66	200
67	1111
68	2382
69	9999
70	500
71	130
72	10
75	10
77	350
78	80
79	791
80	1221
81	2532
82	400
83	130
84	390
85	220
86	30
89	10
90	10
91	460
92	430
93	3083
94	621
95	781
96	110
97	120
98	40
104	20
105	350
106	130
107	1381
108	280
109	591
110	70
111	50
112	20
116	10
118	10
119	581
120	210
121	831
122	460
123	961
124	170
125	20
126	70
127	70
132	10
133	230
134	270
135	831
136	1011
137	540
138	70
139	20
140	60
147	180
148	200
149	120
150	30
151	10
153	10
154	10
159	10
160	10
161	581
162	150
163	20
175	40
176	80
177	20
189	260
190	60
191	20
195	10
203	10
204	480
205	120
206	20
221	40
222	30
223	10
264	270
265	70
266	10
