Mass Spectrum: Benzene, 1,4-dimethyl-2-(1-methylethyl)-
Formula: C11 H16
CAS: 4132-72-3
Molecular weight: 148
m/z	RELATIVE INTENSITY
2	30
12	10
13	10
14	50
15	621
16	20
26	80
27	941
28	290
29	210
30	20
31	10
32	20
37	20
38	80
39	981
40	110
41	881
42	40
43	90
44	20
45	10
49	10
50	180
51	631
52	180
53	340
54	20
55	120
56	20
57	40
58	110
59	60
60	10
61	20
62	80
63	290
64	350
65	530
66	60
67	50
68	10
69	20
70	10
71	50
72	40
73	70
74	50
75	70
76	50
77	681
78	200
79	290
80	20
81	10
83	10
86	10
87	20
88	10
89	90
90	30
91	1021
92	110
93	180
94	10
95	10
97	10
98	10
101	10
102	100
103	220
104	70
105	991
106	120
107	140
108	10
109	10
113	10
114	10
115	550
116	260
117	550
118	280
119	200
120	30
126	10
127	40
128	120
129	80
130	20
131	350
132	20
133	9999
134	1031
135	10
138	10
140	10
145	10
146	10
147	50
148	2492
149	270
150	10
