Mass Spectrum: p-Cyanobenzylidene p-octyloxyaniline
Formula: C22 H26 N2 O
CAS: 41335-35-7
Molecular weight: 334
Origin: NIST Mass Spectrometry Data Center, 1994
m/z	RELATIVE INTENSITY
5	22
18	20
27	408
29	1094
30	5
38	62
39	608
41	1793
42	180
43	1506
44	33
50	124
51	124
52	57
53	111
54	41
55	518
56	61
57	518
62	68
63	263
64	265
65	670
66	65
67	31
69	203
71	212
75	72
76	180
77	118
80	28
87	24
88	98
89	79
90	43
91	74
92	24
93	525
94	61
101	22
102	95
103	58
104	87
113	55
114	195
115	109
116	70
119	120
120	933
121	76
127	24
134	25
138	29
139	106
140	253
141	128
151	149
152	64
153	37
164	76
165	60
166	202
167	65
176	41
177	80
178	89
191	89
192	745
193	186
205	91
207	76
219	30
221	3310
222	9999
223	1628
224	166
235	82
334	3534
335	911
336	132
