Mass Spectrum: 2H-Tetrazole, 2,5-dimethyl-
Formula: C3 H6 N4
CAS: 4135-93-7
Molecular weight: 98
m/z	RELATIVE INTENSITY
27	3003
28	5205
29	400
30	100
38	400
39	500
40	1201
41	1301
42	9999
43	2702
44	100
53	300
54	100
69	1301
70	4904
71	300
98	200
