Mass Spectrum: Tricyclo[4.4.0.0(2,7)]dec-8-ene-3-methanol, .alpha.,.alpha.,6,8-tetramethyl-, stereoisomer
Formula: C15 H24 O
CAS: 41370-56-3
Molecular weight: 220
Origin: K.OHARA INST. OF FOOD CHEM., KITAKU, OSAKA, JAPAN
m/z	RELATIVE INTENSITY
15	270
17	131
18	500
26	60
27	961
28	242
29	880
31	1102
38	78
39	1424
40	251
41	3220
42	260
43	3019
44	207
45	203
50	76
51	429
52	242
53	1090
54	129
55	1496
56	113
57	260
58	147
59	9999
60	392
61	60
62	58
63	258
64	115
65	659
66	205
67	1182
68	346
69	871
70	177
71	475
72	134
73	60
75	120
76	51
77	1701
78	553
79	1480
80	484
81	1323
82	187
83	408
84	85
85	189
86	85
87	67
89	150
90	94
91	3522
92	1408
93	1922
94	1590
95	820
96	150
97	115
99	58
101	60
102	113
103	392
104	277
105	4743
106	2752
107	1404
108	740
109	684
110	150
111	131
113	69
114	60
115	643
116	281
117	855
118	613
119	3966
120	1917
121	705
122	152
123	134
124	55
125	94
126	69
127	244
128	373
129	438
130	277
131	1968
132	3655
133	2086
134	814
135	237
136	76
137	134
139	60
141	171
142	115
143	247
144	281
145	2010
146	945
147	2620
148	318
149	106
150	55
152	67
155	58
157	131
158	260
159	3934
160	910
161	555
162	5718
163	731
164	88
172	58
173	184
174	194
175	46
177	94
187	961
188	168
202	853
203	207
205	187
220	60
