Mass Spectrum: Metamitron
Formula: C10 H10 N4 O
CAS: 41394-05-2
Molecular weight: 202
Origin: ACCUSTANDARD Chemicals / NIST MS Data Center.
m/z	RELATIVE INTENSITY
12	28
13	40
14	93
15	892
16	102
17	27
18	48
25	40
26	233
27	424
28	815
29	735
30	2835
31	125
32	64
36	21
37	174
38	308
39	1246
40	346
41	436
42	4234
43	362
44	38
48	21
49	129
50	950
51	1310
52	335
53	129
54	76
55	167
56	376
57	1251
58	626
59	36
60	29
61	239
62	758
63	1985
64	259
65	119
66	43
67	26
69	43
71	39
74	239
75	392
76	1425
77	3065
78	298
79	99
80	24
82	21
83	97
84	40
85	95
86	187
87	306
88	241
89	1557
90	334
91	636
92	74
93	26
98	20
99	57
100	28
101	129
102	206
103	1460
104	9999
105	965
106	425
107	47
114	22
115	43
116	49
117	112
118	145
119	61
128	22
129	31
130	86
131	69
132	237
133	933
134	107
144	23
145	117
146	38
147	34
158	155
159	52
160	30
173	1879
174	4560
175	509
176	28
186	936
187	324
188	46
202	8649
203	1016
204	90
