Mass Spectrum: 2-Amino-N-methylbenzamide
Formula: C8 H10 N2 O
CAS: 4141-08-6
Molecular weight: 150
Origin: NIST Mass Spectrometry Data Center, 1994
m/z	RELATIVE INTENSITY
14	122
15	901
16	44
18	55
26	162
27	460
28	2657
29	591
30	1192
31	119
32	80
37	405
38	1075
39	3154
40	366
41	643
42	374
43	57
44	190
46	160
49	65
50	508
51	508
52	1410
53	454
54	202
55	54
56	61
57	54
58	706
59	41
60	134
61	331
62	596
63	1641
64	1738
65	6318
66	1163
67	137
68	40
73	54
74	289
75	260
76	264
77	288
78	149
79	113
80	136
87	42
88	64
89	114
90	422
91	1425
92	8533
93	1002
94	406
104	177
105	216
106	149
107	56
116	27
117	123
119	6278
120	9999
121	1060
122	73
131	694
132	844
133	121
134	136
150	8486
151	811
152	35
