Mass Spectrum: [1,1'-Biphenyl]-4-carbonitrile, 4'-(hexyloxy)-
Formula: C19 H21 N O
CAS: 41424-11-7
Molecular weight: 279
Origin: Japan AIST/NIMC Database- Spectrum MS-NW-4514
m/z	RELATIVE INTENSITY
26	10
27	339
28	50
29	559
30	10
38	10
39	219
40	20
41	789
42	80
43	1969
44	60
50	40
51	50
52	10
53	40
54	10
55	379
56	60
57	179
62	40
63	80
64	20
65	20
67	10
68	10
69	40
74	30
75	50
76	40
77	30
83	40
84	10
85	90
86	20
87	30
88	30
89	40
90	10
99	10
100	20
101	20
102	20
104	10
111	10
112	10
113	50
114	40
115	50
116	20
125	20
126	10
127	50
128	10
136	10
137	10
138	30
139	139
140	349
141	60
144	10
149	10
150	40
151	169
152	60
153	20
164	80
165	30
166	539
167	129
168	20
169	20
175	10
176	30
177	169
178	189
179	30
180	40
190	10
192	20
193	40
194	209
195	9999
196	1549
197	129
208	99
209	20
221	10
222	10
278	10
279	2369
280	529
281	50
