Mass Spectrum: 4-Tetradecene, (Z)-
Formula: C14 H28
CAS: 41446-65-5
Molecular weight: 196
Origin: S.A. Rang et al., IR & MS of Unsatd. Hydrocarbons, 1977
m/z	RELATIVE INTENSITY
15	66
24	9
25	35
26	219
27	2140
28	250
29	4162
30	116
31	860
37	26
38	52
39	1546
40	289
41	9310
42	2140
43	6897
44	180
45	336
46	109
47	9
49	14
50	111
51	175
52	154
53	829
54	1724
55	9999
56	4994
57	5885
58	80
59	90
61	14
62	9
63	28
65	182
66	156
67	2021
68	907
69	5589
70	3983
71	1962
72	266
73	66
74	24
75	17
76	21
77	227
78	297
79	352
80	92
81	1111
82	986
83	3983
84	2021
85	986
86	83
87	17
88	9
91	64
92	12
93	73
94	28
95	508
96	485
97	2556
98	954
99	532
103	9
105	9
107	28
108	9
109	227
110	188
111	923
112	493
113	69
114	35
115	19
121	17
123	83
124	97
125	329
126	211
127	57
128	17
137	21
138	54
139	102
140	92
141	102
142	12
151	14
152	19
153	45
154	43
155	19
156	14
165	17
167	43
168	88
169	45
170	9
181	40
194	19
196	735
197	92
