Mass Spectrum: Nonanoic acid, 6-oxo-, ethyl ester
Formula: C11 H20 O3
CAS: 4144-59-6
Molecular weight: 200
Origin: CARL DJERASSI DEPT OF CHEM STANFORD UNIV STANFORD CALIF 94305
m/z	RELATIVE INTENSITY
41	3000
42	500
43	7900
44	200
45	400
53	200
55	2900
56	400
57	300
58	1300
59	700
60	300
61	100
67	500
68	200
69	400
70	300
71	9999
72	400
73	800
83	2100
84	700
85	100
86	600
87	400
88	300
97	300
98	100
99	400
101	2800
102	200
109	3700
110	300
111	9100
112	700
113	100
115	3200
116	100
126	700
127	100
129	900
137	600
154	1000
155	1700
156	100
157	1900
158	100
172	300
200	700
