Mass Spectrum: 4-Tridecene, (Z)-
Formula: C13 H26
CAS: 41446-54-2
Molecular weight: 182
Origin: S.A. Rang et al., IR & MS of Unsatd. Hydrocarbons, 1977
m/z	RELATIVE INTENSITY
15	113
24	14
25	53
26	326
27	2653
28	88
29	4686
30	106
31	95
37	28
38	53
39	2034
40	384
41	9999
42	2210
43	6897
44	186
45	211
50	49
51	141
52	141
53	1047
54	1945
55	9487
56	4686
57	4509
58	1257
59	361
60	56
61	25
63	21
64	11
65	256
66	198
67	2564
68	1047
69	4951
70	3537
71	2122
72	221
73	67
74	18
77	233
78	56
79	419
80	109
81	1257
82	931
83	3006
84	1680
85	1163
86	102
87	39
88	99
89	11
91	106
92	18
93	81
94	35
95	512
96	442
97	1675
98	745
99	11
105	25
107	35
108	18
109	183
110	166
111	605
112	326
113	85
114	18
115	18
119	14
121	32
122	25
123	123
124	106
125	218
126	127
127	46
128	11
133	11
135	28
136	25
137	60
138	63
139	60
140	70
141	67
142	14
143	14
149	21
151	18
152	11
153	21
154	78
155	28
156	14
180	25
182	675
183	99
184	11
