Mass Spectrum: 3-Tridecene, (E)-
Formula: C13 H26
CAS: 41446-57-5
Molecular weight: 182
Origin: S.A. Rang et al., IR & MS of Unsatd. Hydrocarbons, 1977
m/z	RELATIVE INTENSITY
15	66
24	7
25	22
26	145
27	1931
28	322
29	3733
30	79
31	15
37	17
38	37
39	1563
40	339
41	9999
42	2115
43	5600
44	157
45	11
49	4
50	26
51	79
52	66
53	823
54	1103
55	6667
56	4400
57	3733
58	163
59	11
60	9
61	4
63	11
64	4
65	157
66	127
67	1517
68	874
69	5733
70	4000
71	1425
72	73
73	7
74	4
77	97
78	24
79	169
80	44
81	436
82	714
83	2851
84	1747
85	496
86	29
91	39
92	6
93	24
94	11
95	145
96	260
97	1701
98	726
105	9
106	4
107	11
108	6
109	44
110	121
111	666
112	363
113	39
115	4
119	4
121	9
122	9
123	13
124	44
125	212
126	145
127	18
135	7
136	7
137	6
138	20
139	66
140	59
141	9
149	4
152	9
153	31
154	95
155	13
166	4
167	4
168	4
180	6
182	782
183	109
184	6
