Mass Spectrum: (2-Thienylthio)acetone
Formula: C7 H8 O S2
CAS: 41444-33-1
Molecular weight: 172
Origin: NIST Mass Spectrometry Data Center, 1994
m/z	RELATIVE INTENSITY
12	42
13	88
14	479
15	1492
18	30
25	70
26	436
27	1073
33	55
34	38
36	29
37	358
38	796
39	2305
40	93
41	50
42	1005
43	7768
44	29
45	9999
46	477
47	498
48	37
49	75
50	178
51	188
52	49
53	564
54	30
55	42
56	74
57	1039
58	756
60	41
61	18
63	41
64	76
65	90
68	147
69	1725
70	569
71	4844
72	272
73	209
76	120
77	68
78	25
81	435
82	720
83	167
84	301
85	3332
86	204
87	159
88	171
89	97
90	30
93	23
95	70
96	77
97	627
98	41
99	40
103	65
111	121
112	30
113	31
114	30
115	1851
116	187
117	191
127	161
129	3857
130	1359
131	408
132	142
172	4701
173	444
174	488
175	48
