Mass Spectrum: 4-Tetradecene, (E)-
Formula: C14 H28
CAS: 41446-78-0
Molecular weight: 196
Origin: S.A. Rang et al., IR & MS of Unsatd. Hydrocarbons, 1977
m/z	RELATIVE INTENSITY
25	24
26	121
27	1677
28	208
29	3448
30	74
37	17
38	32
39	1351
40	245
41	8784
42	1910
43	6081
44	153
50	26
51	76
52	74
53	773
54	1864
55	9999
56	5000
57	4194
58	172
63	9
65	178
66	153
67	1957
68	883
69	5676
70	4101
71	1677
72	83
77	128
78	33
79	282
81	920
82	981
83	4240
84	2097
85	711
86	43
91	50
93	39
94	19
95	307
96	429
97	2283
98	907
99	80
107	9
109	108
110	172
111	932
112	478
113	52
123	58
124	93
125	325
126	227
127	26
137	17
138	39
139	96
140	93
141	13
151	15
152	17
153	45
154	46
167	20
168	91
169	13
194	9
196	846
197	98
