Mass Spectrum: 2-Tridecene, (E)-
Formula: C13 H26
CAS: 41446-58-6
Molecular weight: 182
Origin: S.A. Rang et al., IR & MS of Unsatd. Hydrocarbons, 1977
m/z	RELATIVE INTENSITY
15	92
16	29
24	17
25	54
26	265
27	2514
28	113
29	5316
30	115
31	14
37	32
38	54
39	2012
40	416
41	8542
42	2299
43	7708
44	199
45	17
49	9
50	46
51	97
52	77
53	983
54	1304
55	9999
56	5316
57	4239
58	180
59	11
60	9
63	11
64	6
65	129
66	137
67	1267
68	1059
69	4454
70	3808
71	1607
72	83
73	6
77	86
78	23
79	152
80	40
81	397
82	671
83	2802
84	1868
85	633
86	37
87	6
91	37
92	9
93	23
94	11
95	137
96	312
97	2083
98	832
99	112
105	11
106	6
107	11
108	9
109	40
110	123
111	681
112	350
113	34
114	6
115	9
117	6
119	6
121	11
122	11
123	14
124	49
125	212
126	163
127	23
128	9
133	6
135	9
136	9
137	6
138	20
139	66
140	66
141	11
147	6
149	6
151	6
152	11
153	34
154	94
155	11
182	633
183	77
184	6
