Mass Spectrum: Propanoic acid, 3-bromo-2-(bromomethyl)-
Formula: C4 H6 Br2 O2
CAS: 41459-42-1
Molecular weight: 244
Origin: Div. of Experiment Therapeutics WRAIR, WRAMC, Washington DC 20307
m/z	RELATIVE INTENSITY
41	9999
42	976
43	352
45	7752
47	453
49	17
51	7
53	392
55	1165
57	1225
58	61
60	50
63	6
65	12
66	15
67	77
68	147
69	87
71	174
72	40
73	71
77	15
79	1182
81	1733
82	364
84	659
85	2969
86	594
88	128
91	138
93	1214
95	1390
96	34
97	20
98	14
99	6
101	6
104	33
105	145
107	282
109	104
111	25
115	6
116	8
117	116
119	1129
121	1332
122	228
123	139
125	145
127	14
133	392
135	392
137	130
139	128
140	6
146	15
147	53
149	95
151	2777
153	2834
154	55
155	6
158	13
160	27
162	17
164	135
165	2578
167	3399
168	107
169	17
171	22
173	27
174	8
175	12
197	6
199	51
201	79
203	48
227	20
229	42
231	31
244	141
245	7
246	269
247	12
248	135
249	5
