Mass Spectrum: 1,1'-Biphenyl, 2,3',4',6-tetrachloro-
Formula: C12 H6 Cl4
CAS: 41464-46-4
Molecular weight: 290
Origin: Organic Synthesis Lab, MSU, Moscow.TRC 1316
m/z	RELATIVE INTENSITY
51	202
52	26
55	43
60	71
61	378
62	394
63	189
67	33
71	60
72	78
73	524
74	1161
75	924
76	70
79	134
80	77
83	30
84	189
85	327
86	358
87	238
92	1132
93	435
96	82
97	323
98	538
99	614
100	91
107	49
108	127
109	578
110	1783
111	1183
113	48
114	45
115	91
116	51
119	45
120	118
121	128
122	359
123	358
124	145
125	80
127	641
128	634
130	64
131	29
132	64
133	145
134	132
135	250
136	52
137	45
143	51
144	40
145	340
146	510
147	492
148	280
149	646
150	1574
151	185
157	119
158	57
159	158
160	131
161	58
163	19
169	32
170	197
171	51
172	125
173	40
180	35
181	45
182	56
183	129
184	815
185	696
186	303
187	218
194	134
196	43
217	51
218	53
219	223
220	4328
221	725
222	2775
223	358
224	489
225	46
230	39
253	27
254	243
255	166
256	189
257	174
258	115
290	6974
291	957
292	9999
293	1483
294	4145
295	687
296	1047
297	139
298	74
299	30
