Mass Spectrum: 1,1'-Biphenyl, 2,2',3,6'-tetrachloro-
Formula: C12 H6 Cl4
CAS: 41464-47-5
Molecular weight: 290
Origin: BO JANSSON, STOCKHOLM UNIVERSITY, SWEDEN
m/z	RELATIVE INTENSITY
50	790
51	670
73	1650
74	3620
75	2930
84	520
85	1060
86	1010
87	610
92	4750
97	1120
98	1870
99	1750
110	6390
111	3870
122	780
123	1210
127	1840
128	1990
145	1080
146	1430
147	1160
148	660
149	1970
150	4530
151	600
184	1580
185	2140
186	870
187	640
220	9999
221	1530
222	6700
223	840
224	1110
255	5420
256	1060
257	5270
258	800
259	1610
290	5630
291	940
292	7260
294	3790
295	610
296	720
