Mass Spectrum: 1,1'-Biphenyl, 2,3,3',4'-tetrachloro-
Formula: C12 H6 Cl4
CAS: 41464-43-1
Molecular weight: 290
Origin: Organic Synthesis Lab, MSU, Moscow.TRC 1331
m/z	RELATIVE INTENSITY
51	219
57	42
60	54
61	352
62	402
63	266
67	50
68	54
69	36
72	120
73	553
74	1481
75	1080
76	92
77	43
78	44
79	148
80	232
84	287
85	408
86	442
87	160
92	1234
93	719
95	35
96	135
97	460
98	698
99	758
100	137
107	114
108	188
109	868
110	2300
111	1469
112	263
113	60
114	40
115	47
120	93
121	130
122	339
123	415
124	150
125	63
127	670
128	825
129	258
132	133
133	153
134	133
135	267
136	66
137	117
144	84
145	383
146	641
147	556
148	359
149	721
150	1748
151	227
157	57
159	146
160	126
161	56
162	54
170	168
171	82
172	123
173	42
183	152
184	932
185	768
186	489
187	253
194	167
195	71
196	135
198	34
217	39
218	95
220	5038
221	822
222	3484
223	447
224	532
225	104
254	255
255	133
256	362
257	94
258	101
290	9837
291	1321
292	9999
293	1509
294	5646
295	850
296	1254
297	157
298	80
