Mass Spectrum: Aniline, 2TMS derivative
Formula: C12 H23 N Si2
CAS: 4147-89-1
Molecular weight: 237
Origin: J.Little, Eastman Chem. Comp.,Kingsport
m/z	RELATIVE INTENSITY
41	280
43	340
44	100
45	811
46	60
58	100
59	410
70	80
73	2272
74	210
75	100
77	90
84	180
85	70
91	80
93	110
95	110
100	190
104	50
105	70
107	90
113	50
118	80
119	110
120	60
121	90
130	150
131	60
132	80
133	50
134	140
135	100
146	80
147	40
148	140
149	310
150	360
151	50
160	50
161	40
162	80
163	50
164	60
165	40
175	20
176	110
177	70
178	110
180	10
190	40
191	30
192	190
193	30
194	20
204	40
205	10
206	1431
207	270
208	150
209	20
218	10
220	100
222	9999
223	1952
224	661
225	100
235	20
236	30
237	1672
238	330
239	130
