Mass Spectrum: Terephthalic acid, 2TMS derivative
Formula: C14 H22 O4 Si2
CAS: 4147-84-6
Molecular weight: 310
Origin: J.Little,Eastman Chem.Comp.
m/z	RELATIVE INTENSITY
15	10
18	30
26	10
29	50
39	30
41	20
43	130
44	70
45	320
46	30
47	40
48	20
49	10
50	90
51	10
52	10
53	20
54	10
55	20
56	20
57	40
58	30
59	80
60	40
61	40
62	10
63	20
65	50
67	10
70	20
71	10
73	1601
74	170
75	731
76	961
77	120
78	10
79	60
80	10
81	10
82	40
83	30
84	20
85	40
86	10
89	370
90	110
91	200
92	20
93	40
94	10
96	20
98	10
99	10
101	40
103	2212
104	1101
105	270
106	40
107	40
109	10
110	10
111	40
112	10
115	40
116	20
117	60
118	270
119	190
120	20
121	180
122	30
123	10
125	110
126	230
127	40
128	10
129	20
130	10
131	60
133	290
134	330
135	1051
136	100
137	50
138	10
140	1051
141	50
142	10
143	10
145	40
147	40
148	100
149	240
150	90
151	60
152	20
156	10
159	10
160	10
161	10
162	10
163	70
164	30
165	20
167	10
174	10
175	20
177	240
178	380
179	190
180	40
183	10
188	10
191	50
192	240
193	550
194	110
195	20
203	10
205	20
206	50
207	170
208	60
209	20
210	10
215	10
217	10
219	40
220	10
221	2292
222	320
223	130
224	20
231	10
233	10
234	10
235	10
236	30
237	30
238	10
249	20
250	70
251	2082
252	561
253	180
254	30
264	10
266	30
267	30
268	10
269	10
279	30
280	10
283	10
292	10
293	60
295	9999
296	2182
297	921
298	180
299	30
308	10
310	1071
311	210
312	120
313	10
