Mass Spectrum: Butanedioic acid, methoxy-, dimethyl ester
Formula: C7 H12 O5
CAS: 4148-97-4
Molecular weight: 176
Origin: NIST Mass Spectrometry Data Center
m/z	RELATIVE INTENSITY
14	10
15	360
16	10
26	70
27	320
28	200
29	450
30	60
31	290
32	10
33	20
39	30
40	10
41	220
42	300
43	711
44	60
45	490
46	10
47	1141
48	20
53	100
54	70
55	891
56	60
57	240
58	871
59	2292
60	50
61	30
68	10
69	70
70	10
71	40
72	20
73	20
75	9999
76	310
77	40
81	10
82	10
84	30
85	370
86	60
87	140
88	20
89	10
99	20
101	90
102	10
103	100
113	190
114	380
115	30
116	210
117	4834
118	270
119	40
133	20
144	310
145	80
146	540
147	30
161	10
