Mass Spectrum: 4-Bromo-n-butylbenzene
Formula: C10 H13 Br
CAS: 41492-05-1
Molecular weight: 212
Origin: NIST Mass Spectrometry Data Center, 1994
m/z	RELATIVE INTENSITY
13	42
14	210
15	1028
26	1356
27	6378
28	1155
29	4112
30	86
37	226
38	886
39	3905
40	581
41	2504
42	454
43	886
44	18
50	2054
51	2296
52	534
53	404
55	223
56	61
58	235
61	237
62	966
63	2545
64	832
65	969
66	86
74	748
75	1020
76	974
77	2411
78	1146
79	293
80	82
81	133
82	46
85	66
86	179
87	305
88	46
89	4179
90	4838
91	5677
92	421
93	62
98	66
99	33
101	186
102	664
103	1424
104	1596
105	508
106	33
107	1009
108	88
115	549
116	242
117	214
118	65
119	109
127	57
128	117
129	65
130	33
131	47
132	33
133	641
134	77
143	88
145	72
150	115
155	76
156	182
157	74
158	202
169	9999
171	9837
172	1331
173	86
182	88
183	97
184	82
185	75
212	2253
213	251
214	2117
215	247
216	12
