Mass Spectrum: Disulfide, 1,1-dimethylethyl ethyl
Formula: C6 H14 S2
CAS: 4151-69-3
Molecular weight: 150
m/z	RELATIVE INTENSITY
12	10
13	10
14	80
15	260
16	20
24	10
25	20
26	260
27	2142
28	540
29	4664
30	120
32	40
33	60
34	60
35	170
36	10
37	50
38	100
39	1171
40	160
41	4034
42	160
43	30
44	30
45	500
46	140
47	160
48	20
49	120
50	40
51	60
52	20
53	120
54	60
55	390
56	150
57	9999
58	611
59	621
60	120
61	130
62	40
63	10
64	250
65	130
66	891
67	40
68	80
69	20
70	10
71	30
72	10
73	310
74	60
75	30
76	70
77	10
78	20
79	50
80	10
81	10
85	10
87	40
88	100
89	50
90	20
91	10
92	10
93	180
94	1231
95	70
96	110
97	10
98	10
101	10
103	10
105	10
106	20
107	10
108	10
122	30
124	10
135	50
136	10
137	10
150	1251
151	110
152	120
153	10
154	10
