Mass Spectrum: Benzenemethanamine, 3-chloro-
Formula: C7 H8 Cl N
CAS: 4152-90-3
Molecular weight: 141
Origin: Japan AIST/NIMC Database- Spectrum MS-NW-8527
m/z	RELATIVE INTENSITY
15	10
16	10
26	40
27	149
28	3039
29	959
30	5139
31	70
35	10
36	60
37	109
38	189
39	379
40	40
41	60
42	20
43	30
44	20
47	10
48	10
49	99
50	799
51	1059
52	339
53	509
54	80
60	20
61	129
62	219
63	499
64	90
65	80
66	20
67	20
69	10
70	119
71	40
72	30
73	229
74	369
75	839
76	269
77	2939
78	519
79	1139
80	90
84	50
85	119
86	70
87	80
88	20
89	769
90	179
91	169
92	20
96	10
97	30
99	199
100	20
101	60
102	90
103	20
104	339
105	149
106	9999
107	829
108	30
110	10
111	279
112	379
113	739
114	169
115	209
116	20
117	10
123	30
124	30
125	1209
126	269
127	399
128	80
137	30
138	189
139	40
140	4239
141	869
142	1369
143	269
144	20
