Mass Spectrum: Carbamodithioic acid, dibutyl-, ethyl ester
Formula: C11 H23 N S2
CAS: 41577-26-8
Molecular weight: 233
Origin: F.I.ONUSKA CANADA CENTRE FOR INLAND WATERS, ONTARIO, CANADA
m/z	RELATIVE INTENSITY
29	3972
39	1146
40	973
41	5165
43	6044
44	4662
56	4144
57	9999
69	2763
71	3108
76	3454
83	1978
85	2072
97	1900
105	754
109	801
111	879
116	2072
128	644
172	1381
205	879
233	832
