Mass Spectrum: 3-Pyridinol, TMS derivative
Formula: C8 H13 N O Si
CAS: 41571-88-4
Molecular weight: 167
Origin: NIST Mass Spectrometry Data Center
m/z	RELATIVE INTENSITY
15	10
26	10
27	20
28	30
29	40
31	20
37	20
38	80
39	340
40	50
41	20
42	60
43	350
44	90
45	540
46	40
47	110
48	10
49	10
50	100
51	440
52	80
53	110
54	40
55	130
56	40
57	70
58	140
59	240
60	40
61	120
62	30
63	30
64	30
65	180
66	230
67	90
68	250
70	50
71	50
72	50
73	1081
74	100
75	410
76	280
77	60
78	510
79	80
80	50
81	60
82	30
83	70
84	90
85	80
86	40
87	10
90	10
91	20
92	260
93	100
94	110
95	70
96	80
97	110
98	70
99	100
100	20
101	10
104	10
106	80
107	30
108	50
109	50
110	40
111	120
112	20
113	10
120	20
122	410
123	60
124	130
125	160
126	60
127	10
132	40
133	10
134	130
135	110
136	350
137	100
138	70
139	10
148	30
150	911
152	9999
153	1521
154	490
155	40
165	20
167	3533
168	530
169	160
170	10
