Mass Spectrum: trans-Tetraline-2,3-diol
Formula: C10 H12 O2
CAS: 41597-55-1
Molecular weight: 164
Origin: Japan AIST/NIMC Database- Spectrum MS-IW-3151
m/z	RELATIVE INTENSITY
14	10
15	40
17	40
18	149
26	30
27	469
28	60
29	229
30	20
31	209
32	10
37	20
38	109
39	979
40	109
41	249
42	50
43	229
44	60
45	50
46	10
47	70
49	10
50	359
51	969
52	269
53	269
54	30
55	539
56	20
57	249
58	229
59	40
60	60
61	50
62	249
63	779
64	279
65	1099
66	149
67	50
68	20
69	10
71	20
72	119
73	139
74	179
75	239
76	189
77	1979
78	1449
79	1249
80	99
81	40
85	20
86	50
87	90
88	50
89	659
90	259
91	3709
92	829
93	209
94	30
95	10
98	30
99	20
100	10
101	90
102	349
103	2299
104	7479
105	6209
106	749
107	129
108	10
113	40
114	80
115	3419
116	5419
117	7219
118	1189
119	229
120	199
121	60
122	10
126	50
127	599
128	1179
129	1239
130	189
131	2969
132	399
133	1389
134	329
135	389
136	40
141	30
142	30
143	159
144	219
145	4749
146	9999
147	1099
148	80
149	10
157	20
158	129
159	20
160	10
161	30
162	99
163	20
164	4989
165	559
166	50
