Mass Spectrum: 2-(p-Methoxybenzoyl)thiophene
Formula: C12 H10 O2 S
CAS: 4160-63-8
Molecular weight: 218
Origin: NIST Mass Spectrometry Data Center
m/z	RELATIVE INTENSITY
15	500
18	20
26	30
27	60
29	60
37	110
38	540
39	2172
40	60
41	10
42	10
44	20
45	350
46	10
50	561
51	390
52	50
53	250
54	10
55	20
57	260
58	70
60	10
61	90
62	310
63	1181
64	1241
65	140
66	110
67	20
69	210
70	30
71	20
72	10
73	40
74	220
75	220
76	380
77	2402
78	200
79	140
80	20
81	120
82	160
83	671
84	80
85	50
86	50
87	50
88	30
89	90
90	10
92	1822
93	150
94	50
95	260
97	20
98	20
99	10
101	40
102	110
103	130
104	60
105	30
107	1091
108	110
109	30
111	4214
112	290
113	240
114	50
115	180
116	20
117	20
119	70
120	50
121	90
123	10
125	10
127	10
128	10
130	10
131	20
132	30
135	9999
136	941
137	90
145	110
147	490
148	60
149	30
158	40
159	40
160	30
161	30
173	20
175	671
176	100
177	30
185	40
187	1732
188	220
189	110
190	290
191	30
192	10
201	110
203	1341
204	190
205	80
215	20
217	621
218	6896
219	1051
220	440
221	50
