Mass Spectrum: 4-Bromo-2-fluorobiphenyl
Formula: C12 H8 Br F
CAS: 41604-19-7
Molecular weight: 250
Origin: NIST Mass Spectrometry Data Center, 1994
m/z	RELATIVE INTENSITY
15	6
17	33
18	80
26	234
27	473
31	146
33	133
36	33
37	196
38	505
39	956
40	54
44	43
49	112
50	1538
51	1563
52	262
55	42
56	163
57	386
61	389
62	727
63	844
64	72
65	45
68	390
69	208
70	120
71	42
72	735
73	42
74	1439
75	1517
77	282
78	72
79	149
80	183
81	499
82	123
83	100
84	72
85	2962
86	42
87	469
88	94
89	76
92	240
93	415
94	503
95	149
96	69
97	91
98	670
99	877
100	262
101	150
102	259
103	71
104	105
105	297
106	202
107	167
108	59
109	98
110	229
111	265
112	148
113	191
114	42
115	83
116	95
117	165
118	183
119	393
120	372
121	59
122	173
123	311
124	207
125	1095
126	715
128	32
129	64
130	42
131	342
132	355
133	132
134	36
135	30
137	26
139	80
140	41
142	51
143	214
144	938
145	404
146	126
149	329
150	1095
151	1686
152	423
153	56
155	52
156	58
168	661
169	1834
170	8615
171	2372
172	259
198	88
200	83
211	78
213	70
224	49
226	35
248	42
250	9999
251	1321
252	9867
253	1300
254	80
