Mass Spectrum: 2,4-Dimethyl 1,4-pentadiene
Formula: C7 H12
CAS: 4161-65-3
Molecular weight: 96
Origin: NIST Mass Spectrometry Data Center, 1990.
m/z	RELATIVE INTENSITY
14	199
15	242
16	96
26	184
27	1512
28	122
29	790
37	135
38	448
39	3650
40	714
41	3011
42	170
43	114
50	391
51	600
52	253
53	1799
54	555
55	1103
56	1034
57	86
61	39
62	97
63	159
64	39
65	455
66	236
67	971
68	195
69	45
74	59
77	541
79	2738
81	9999
82	671
83	66
91	75
93	66
95	249
96	85
