Mass Spectrum: Propane, 1,1-dimethoxy-2-methyl-
Formula: C6 H14 O2
CAS: 41632-89-7
Molecular weight: 118
Origin: D.HENNEBERG, MAX-PLANCK INSTITUTE, MULHEIM, WEST GERMANY
m/z	RELATIVE INTENSITY
26	56
27	266
28	253
29	387
30	45
31	1349
32	102
33	54
36	12
39	158
40	30
41	572
42	85
43	385
44	38
45	856
46	20
47	1846
48	39
53	86
54	21
55	1885
56	156
57	148
58	8
59	223
60	34
61	25
69	14
70	11
71	491
72	56
73	21
74	26
75	9999
76	320
77	37
83	27
84	6
85	40
86	119
87	3075
88	173
89	10
101	7
103	18
117	36
