Mass Spectrum: 1-Butanamine, N-butyl-N-nitro-
Formula: C8 H18 N2 O2
CAS: 4164-31-2
Molecular weight: 174
Origin: T. BRYCE UNILEVER RESEARCH COLWORTH/WELWYN, BEDFORD U.K.
m/z	RELATIVE INTENSITY
38	113
39	806
40	903
41	3097
42	5742
43	5161
44	1548
53	135
54	232
55	774
56	1419
57	2710
58	155
70	839
71	123
72	400
83	152
84	9999
85	1032
86	2161
87	145
89	516
98	142
99	303
100	100
112	187
128	1161
129	213
131	3774
132	252
174	106
