Mass Spectrum: Piperazine, 1,4-dinitro-
Formula: C4 H8 N4 O4
CAS: 4164-37-8
Molecular weight: 176
Origin: J.Yinon ET AL. Org. Mass Spectrom, 25, 14(1990)
m/z	RELATIVE INTENSITY
36	20
38	20
41	611
42	9999
43	50
44	110
45	50
46	280
52	70
54	751
55	7957
56	4864
57	4134
58	110
73	70
83	130
84	8057
85	340
89	50
100	20
116	10
130	20
176	60
