Mass Spectrum: 1-Propanamine, N-nitro-N-propyl-
Formula: C6 H14 N2 O2
CAS: 4164-29-8
Molecular weight: 146
Origin: T. BRYCE UNILEVER RESEARCH COLWORTH/WELWYN, BEDFORD U.K.
m/z	RELATIVE INTENSITY
29	1308
30	2077
31	104
38	112
39	962
40	385
41	3308
42	9999
43	6538
44	846
54	285
55	173
56	615
57	215
58	1577
59	104
68	112
69	215
70	9999
71	4615
72	1346
84	185
87	131
99	138
101	204
117	7923
118	427
130	115
146	1654
147	135
