Mass Spectrum: Nitrobenzene-D5
Formula: C6 D5 N O2
CAS: 4165-60-0
Molecular weight: 128
Origin: NIST Mass Spectrometry Data Center, 1990.
m/z	RELATIVE INTENSITY
16	133
18	84
26	82
28	455
30	2455
31	34
32	44
36	66
38	531
40	759
41	44
42	1268
43	59
44	89
45	34
46	304
48	27
49	35
50	385
51	27
52	3036
53	27
54	7561
55	363
56	27
60	31
61	29
62	138
63	33
64	240
65	49
66	351
68	148
70	1683
71	114
74	107
75	76
76	584
77	50
78	304
79	52
80	265
81	49
82	9999
83	653
96	74
98	1468
99	110
112	204
113	31
128	3517
129	255
130	27
