Mass Spectrum: 3-Propylglutaric acid
Formula: C8 H14 O4
CAS: 4165-98-4
Molecular weight: 174
Origin: NIST Mass Spectrometry Data Center, 1994
m/z	RELATIVE INTENSITY
12	106
14	195
15	918
16	54
17	148
18	167
19	229
25	55
26	506
27	6059
28	1123
29	4942
30	156
31	981
32	75
35	52
37	157
38	479
39	6426
40	1355
41	9999
42	6753
43	5107
44	552
45	5766
46	117
47	126
50	237
51	411
52	226
53	1404
54	110
55	6388
56	1261
57	1202
58	776
59	110
60	5318
61	376
63	118
65	284
66	150
67	931
68	2150
69	9058
70	1725
71	1867
72	313
73	3452
74	238
75	90
77	178
79	254
80	127
81	668
82	1657
83	1180
84	1651
85	2121
86	1070
87	502
89	90
91	92
92	74
93	97
94	103
95	583
96	2889
97	7522
98	591
99	567
100	721
101	90
108	94
109	159
110	433
111	168
112	90
113	2239
114	844
115	3221
116	291
121	62
125	120
126	111
127	300
128	1139
129	147
131	84
137	316
138	307
139	56
141	108
155	48
156	107
157	131
