Mass Spectrum: 2-Thiazolamine, 5-chloro-
Formula: C3 H3 Cl N2 S
CAS: 41663-73-4
Molecular weight: 134
Origin: Japan AIST/NIMC Database- Spectrum MS-NW-6276
m/z	RELATIVE INTENSITY
12	90
13	50
14	10
15	30
16	249
17	20
18	70
24	20
25	60
26	40
27	419
28	30
29	60
32	30
33	70
34	20
39	139
40	80
41	90
42	309
43	409
44	649
45	909
46	239
47	349
48	179
49	229
50	70
51	60
52	20
53	279
54	109
55	1089
56	179
57	2479
58	789
59	279
60	849
61	50
62	249
63	549
64	129
65	139
66	40
67	139
68	40
70	339
71	399
72	649
73	1609
74	219
75	369
76	70
77	90
79	439
80	189
81	179
82	179
83	149
84	70
85	679
86	40
89	279
90	70
91	119
92	3729
93	129
94	1269
95	40
96	70
98	1809
99	2569
100	1429
101	179
102	70
107	159
108	20
109	60
133	20
134	9999
135	489
136	3419
137	179
138	119
