Mass Spectrum: 3-Methylglutaric anhydride
Formula: C6 H8 O3
CAS: 4166-53-4
Molecular weight: 128
Origin: Japan AIST/NIMC Database- Spectrum MS-NW-8818
m/z	RELATIVE INTENSITY
14	109
15	209
18	10
26	189
27	1019
28	699
29	409
30	10
31	10
34	10
37	99
38	269
39	1899
40	669
41	3889
42	9999
43	1669
44	80
45	40
49	10
50	99
51	99
52	30
53	119
54	50
55	369
56	9179
57	349
58	20
60	10
67	10
68	30
69	99
83	10
84	929
85	50
97	20
101	20
129	80
