Mass Spectrum: Edulan II
Formula: C13 H20 O
CAS: 41678-30-2
Molecular weight: 192
Origin: MASS SPECTRA OF ORGANIC COMPOUNDS, CSIRO, B.H. KENNETT ET AL
m/z	RELATIVE INTENSITY
29	3100
30	100
31	200
38	100
39	2000
41	3800
42	400
43	6100
45	300
50	200
51	1000
52	400
53	1500
54	300
55	3000
56	300
57	2500
58	200
59	200
60	100
61	200
62	100
63	400
64	300
65	1300
66	300
67	1200
68	200
69	1400
70	200
71	300
72	200
73	100
75	200
76	100
77	2000
78	600
79	1500
80	500
81	900
82	300
83	400
89	100
90	100
91	3000
92	600
93	1200
94	200
95	500
96	200
97	100
101	100
102	200
103	500
104	200
105	2100
106	500
107	1600
108	300
109	400
115	800
116	400
117	1100
118	500
119	1300
120	300
121	1000
122	200
123	800
124	200
127	100
128	200
129	200
130	100
131	700
132	300
133	6100
134	900
135	1300
136	200
143	200
144	300
145	200
146	100
147	200
148	1100
149	600
150	300
151	100
159	800
160	100
161	100
163	300
175	200
177	9999
178	1500
192	1500
