Mass Spectrum: Phenol, 4-(2-methylpropyl)-
Formula: C10 H14 O
CAS: 4167-74-2
Molecular weight: 150
Origin: J.MACAK, DEP. COKE GAS TECH., PRAGUE INST. CHEM. TECH., CZECIV
m/z	RELATIVE INTENSITY
38	200
39	1000
40	200
41	500
43	400
49	200
50	200
51	500
52	300
53	400
55	300
62	100
63	300
64	100
65	500
66	200
75	100
77	1300
78	400
79	300
81	100
89	100
91	200
93	300
94	200
103	100
105	100
106	100
107	9999
108	1100
109	100
115	100
121	600
122	500
123	200
133	100
135	100
149	200
150	1700
151	200
