Mass Spectrum: Phenol, 2-(2-methylpropyl)-
Formula: C10 H14 O
CAS: 4167-75-3
Molecular weight: 150
Origin: J.MACAK, DEP. COKE GAS TECH., PRAGUE INST. CHEM. TECH., CZEC,
m/z	RELATIVE INTENSITY
39	900
41	700
43	600
44	100
50	200
51	500
52	400
54	300
63	300
65	300
67	100
75	100
77	1700
78	500
79	1100
80	200
89	200
90	200
91	500
94	100
105	200
107	9999
108	2200
109	200
115	300
117	200
119	200
121	100
133	200
135	100
150	2500
151	300
