Mass Spectrum: 1,7-Octadien-3-one, 2-methyl-6-methylene-
Formula: C10 H14 O
CAS: 41702-60-7
Molecular weight: 150
m/z	RELATIVE INTENSITY
39	1795
41	8451
51	898
52	557
53	1734
54	743
67	526
68	898
69	9999
70	433
77	1238
78	557
79	2600
80	650
81	867
91	898
92	464
93	1207
94	526
95	650
96	402
106	588
107	1176
108	402
115	495
117	248
119	433
122	867
135	433
147	248
148	217
150	402
