Mass Spectrum: 2-Butenal
Formula: C4 H6 O
CAS: 4170-30-3
Molecular weight: 70
Origin: NIST Mass Spectrometry Data Center, 1990.
m/z	RELATIVE INTENSITY
12	51
13	92
14	96
15	440
16	31
17	7
18	35
19	17
24	58
25	265
26	956
27	2005
28	7
29	1859
30	34
31	89
33	28
34	30
36	260
37	1456
38	2303
39	8996
40	1662
41	9999
42	1700
43	176
44	148
48	66
49	246
50	403
51	233
52	101
53	217
54	30
55	285
56	22
66	26
67	44
68	499
69	4012
70	8361
71	398
72	21
