Mass Spectrum: Butanoic acid, 2-chloro-
Formula: C4 H7 Cl O2
CAS: 4170-24-5
Molecular weight: 122
Origin: Japan AIST/NIMC Database- Spectrum MS-NW-4354
m/z	RELATIVE INTENSITY
12	10
13	30
14	80
15	309
16	20
17	40
18	139
19	10
24	10
25	99
26	659
27	3219
28	309
29	1869
30	60
31	219
32	30
35	129
36	629
37	349
38	619
39	3439
40	1119
41	9999
42	5629
43	759
44	239
45	1859
46	60
47	80
48	149
49	639
50	99
51	209
52	30
53	109
54	30
55	549
56	40
57	229
58	129
59	60
60	1029
61	209
62	229
63	169
64	90
65	99
66	20
67	30
68	499
69	1019
70	149
71	219
72	30
73	359
74	30
75	229
76	1969
77	2619
78	719
79	859
80	149
81	10
82	10
83	10
85	149
86	549
87	2519
88	139
89	50
91	20
93	10
94	9629
95	249
96	3209
97	70
98	10
103	10
104	10
105	60
107	60
109	10
120	60
121	40
122	20
123	10
