Mass Spectrum: Naphthalene, 1,2,3,4-tetrahydro-1,4-dimethyl-
Formula: C12 H16
CAS: 4175-54-6
Molecular weight: 160
m/z	RELATIVE INTENSITY
12	20
13	10
14	60
15	931
16	20
25	10
26	140
27	1071
28	290
29	320
30	10
31	10
36	10
37	30
38	130
39	1281
40	100
41	490
42	20
43	40
44	30
45	10
49	10
50	330
51	901
52	200
53	380
54	10
55	50
56	10
57	60
58	90
59	10
61	40
62	180
63	651
64	460
65	631
66	30
67	100
68	20
69	70
70	180
71	420
72	40
73	20
74	140
75	200
76	220
77	801
78	250
79	260
80	10
81	10
85	20
86	50
87	90
88	40
89	230
90	40
91	1041
92	90
93	30
95	20
97	10
98	50
99	30
100	20
101	90
102	290
103	330
104	140
105	901
106	20
107	10
109	20
110	20
111	20
112	10
113	80
114	90
115	2082
116	450
117	1281
118	901
119	140
120	10
121	10
122	10
125	30
126	110
127	671
128	2442
129	1251
130	871
131	561
132	1712
133	30
134	20
137	20
138	20
139	170
140	60
141	761
144	210
145	9999
146	1000
147	10
148	10
150	10
151	30
152	60
153	50
154	20
159	300
160	3163
161	0
