Mass Spectrum: Triacontyl acetate
Formula: C32 H64 O2
CAS: 41755-58-2
Molecular weight: 480
Origin: NIST Mass Spectrometry Data Center
m/z	RELATIVE INTENSITY
15	30
26	20
27	200
28	70
29	671
30	20
37	10
38	10
39	250
40	70
41	2762
42	931
43	9999
44	290
45	70
51	20
52	10
53	150
54	771
55	6035
56	2893
57	9018
58	460
59	100
61	5975
62	130
63	30
65	30
66	110
67	1211
68	1782
69	5215
70	2522
71	4824
72	270
73	310
74	20
77	20
78	10
79	120
80	100
81	1101
82	3733
83	6746
84	1792
85	3203
86	220
87	50
88	20
91	20
93	30
94	60
95	801
96	2182
97	7397
98	1371
99	931
100	70
101	60
102	30
105	30
107	10
108	30
109	390
110	771
111	4184
112	901
113	550
114	50
115	20
116	340
117	30
121	10
122	40
123	270
124	561
125	2162
126	571
127	360
128	40
129	20
130	50
136	30
137	170
138	390
139	961
140	370
141	230
142	30
143	10
151	50
152	230
153	530
154	260
155	150
156	20
165	20
166	170
167	320
168	170
169	100
170	20
179	10
180	120
181	200
182	130
183	80
184	10
189	10
194	100
195	130
196	90
197	50
198	10
208	70
209	90
210	60
211	30
212	10
222	70
223	60
224	50
225	20
235	10
236	60
237	50
238	40
239	20
250	60
251	40
252	30
253	10
264	60
265	30
266	30
278	50
279	30
292	50
293	30
294	30
306	40
307	30
308	20
309	10
320	30
321	20
322	20
334	30
335	20
336	20
337	10
348	30
349	20
350	20
351	10
362	20
363	20
364	10
376	10
377	10
378	10
390	10
391	10
392	90
393	30
394	10
418	10
420	120
421	40
422	10
462	10
465	10
480	10
