Mass Spectrum: Pyrazine, ethenyl-
Formula: C6 H6 N2
CAS: 4177-16-6
Molecular weight: 106
m/z	RELATIVE INTENSITY
26	130
27	1702
28	851
29	1001
37	250
38	450
39	631
40	250
50	1251
51	2132
52	4354
53	3583
54	530
63	50
64	80
75	30
76	230
77	30
78	480
79	3934
80	1351
81	50
105	1231
106	9999
107	831
108	100
