Mass Spectrum: Benzoic acid, 4-methoxy-, phenyl ester
Formula: C14 H12 O3
CAS: 4181-97-9
Molecular weight: 228
Origin: Japan AIST/NIMC Database- Spectrum MS-IW-6104
m/z	RELATIVE INTENSITY
38	30
39	90
50	60
51	60
53	10
62	20
63	129
64	229
65	90
66	10
74	20
75	20
76	90
77	759
78	60
79	50
92	529
93	50
94	10
104	40
105	10
106	10
107	619
108	50
120	20
133	10
134	10
135	9999
136	889
137	70
228	1009
229	149
230	10
