Mass Spectrum: Tricyclazole
Formula: C9 H7 N3 S
CAS: 41814-78-2
Molecular weight: 189
Origin: ACCUSTANDARD Chemicals / NIST MS Data Center.
m/z	RELATIVE INTENSITY
13	40
14	8
15	67
16	3
26	104
27	423
28	493
29	28
32	71
37	194
38	356
39	919
40	112
41	63
42	18
43	26
44	129
45	608
46	39
47	27
49	95
50	539
51	719
52	266
53	288
54	215
55	166
56	30
57	128
58	287
59	75
60	52
61	237
62	347
63	703
64	356
65	814
66	456
67	80
68	30
69	744
70	287
71	155
72	36
73	96
74	209
75	256
76	305
77	726
78	252
79	45
80	55
81	206
82	286
83	162
84	251
85	97
86	116
87	76
88	83
89	430
90	282
91	600
92	808
93	228
94	45
95	345
96	70
97	33
100	24
101	31
102	227
103	351
104	296
105	94
106	48
107	88
108	332
109	684
110	551
111	79
112	20
115	16
116	80
117	337
118	1544
119	171
120	144
121	552
122	378
123	69
128	76
129	382
130	43
132	21
133	116
134	496
135	1614
136	840
137	148
138	43
145	29
147	479
148	79
149	26
159	41
161	3375
162	5560
163	726
164	302
165	27
189	9999
190	1071
191	478
192	48
