Mass Spectrum: Allyl thiopropionate
Formula: C6 H10 O S
CAS: 41820-22-8
Molecular weight: 130
Origin: Chuck Anderson, Aldrich Chemical Co.
m/z	RELATIVE INTENSITY
14	18
15	66
20	9
25	24
26	246
27	1304
28	524
29	5804
30	128
31	17
32	28
33	25
34	14
35	17
36	10
37	56
38	114
39	853
40	89
41	1073
42	101
43	21
44	10
45	615
46	109
47	190
48	12
49	14
53	24
54	10
55	114
56	243
57	9999
58	387
59	89
60	60
61	80
62	10
67	11
68	16
69	79
70	17
71	185
72	60
73	145
74	178
75	27
76	13
85	10
87	9
89	15
90	9
97	17
101	27
130	368
131	32
132	20
