Mass Spectrum: 5,6-Dimethyl-1H-benzotriazole
Formula: C8 H9 N3
CAS: 4184-79-6
Molecular weight: 147
Origin: NIST Mass Spectrometry Data Center, 1994
m/z	RELATIVE INTENSITY
14	12
15	121
26	165
27	526
28	317
29	249
32	50
37	319
38	581
39	1815
40	311
41	472
49	159
50	1140
51	1802
52	1268
53	358
54	62
58	340
61	234
62	521
63	1095
64	590
65	2313
66	378
67	75
73	85
74	296
75	389
76	582
77	1498
78	498
79	89
86	89
87	80
89	716
91	6317
92	1160
93	77
99	51
102	240
104	2511
105	216
116	779
118	9999
119	2613
120	229
132	2556
133	210
145	62
147	7621
148	714
