Mass Spectrum: N-Nitrobis(2-hydroxyethyl)-amine dinitrate
Formula: C4 H8 N4 O8
CAS: 4185-47-1
Molecular weight: 240
Origin: J. A. ROWLEY, MINISTRY DEF., WALTHAM ABBEY, ESSEX, UK
m/z	RELATIVE INTENSITY
27	200
29	400
30	1600
31	100
41	1300
42	9900
43	600
44	200
45	1200
46	9999
47	100
48	100
54	100
55	100
56	600
58	400
60	1100
71	1100
72	300
76	100
87	700
88	1800
89	100
90	100
101	100
102	100
117	500
118	500
119	200
132	100
164	4100
165	200
178	100
