Mass Spectrum: 3-Pentanol, 3-(1,1-dimethylethyl)-2,2,4,4-tetramethyl-
Formula: C13 H28 O
CAS: 41902-42-5
Molecular weight: 200
Origin: D.HENNEBERG, MAX-PLANCK INSTITUTE, MULHEIM, WEST GERMANY
m/z	RELATIVE INTENSITY
26	52
27	328
28	113
29	1423
30	32
31	58
32	8
37	10
38	30
39	438
40	83
41	2175
42	224
43	835
44	24
45	91
49	5
50	21
51	31
52	13
53	115
54	15
55	260
56	227
57	9999
58	455
59	614
60	20
61	6
65	12
66	7
67	92
68	9
69	394
70	44
71	162
72	11
73	10
77	20
78	4
79	23
80	9
81	22
82	3
83	45
84	9
85	396
86	35
87	3724
88	223
89	13
91	10
93	7
94	4
95	48
96	4
97	13
99	20
100	5
101	9
109	8
110	4
111	158
112	17
113	43
114	5
117	16
125	4
126	3
127	11
128	15
129	62
130	5
142	30
143	415
144	41
172	8
