Mass Spectrum: 1,5-Dimethyl-1,4-cyclohexadiene
Formula: C8 H12
CAS: 4190-06-1
Molecular weight: 108
Origin: NIST Mass Spectrometry Data Center, 1990.
m/z	RELATIVE INTENSITY
14	30
15	247
16	53
18	103
26	215
27	1333
28	203
29	247
32	54
37	135
38	480
39	2993
40	458
41	956
42	85
44	66
45	71
50	701
51	1498
52	625
53	782
54	109
55	112
61	112
62	287
63	769
64	216
65	1634
66	275
67	260
74	145
75	106
77	6074
78	1066
79	1273
80	243
89	207
91	9999
92	1426
93	9601
94	823
103	226
105	994
106	725
107	780
108	4877
109	418
