Mass Spectrum: 2-Propenoic acid, 3-phenyl-, ethyl ester, (E)-
Formula: C11 H12 O2
CAS: 4192-77-2
Molecular weight: 176
Origin: Japan AIST/NIMC Database- Spectrum MS-NW- 442
m/z	RELATIVE INTENSITY
12	20
14	50
15	90
16	60
17	20
18	70
25	20
26	139
27	529
28	549
29	579
30	50
31	169
32	20
36	20
37	30
38	70
39	249
40	30
41	119
42	60
43	189
44	129
45	169
46	40
48	20
49	40
50	509
51	1429
52	239
53	99
54	20
55	80
56	60
57	90
58	20
60	30
61	50
62	129
63	289
64	70
65	109
66	40
67	20
68	20
69	149
70	50
71	80
73	60
74	239
75	289
76	399
77	2999
78	409
79	80
81	30
82	20
83	40
84	20
85	30
86	20
87	40
88	70
89	50
90	40
91	399
92	70
93	20
94	30
95	20
96	20
97	30
98	50
99	60
100	20
101	149
102	1159
103	4439
104	1519
105	359
106	109
107	99
108	20
109	20
111	20
115	99
116	50
117	119
118	40
119	70
120	139
121	60
122	40
125	20
127	20
128	20
129	90
130	379
131	9999
132	1229
133	169
134	20
135	50
141	20
143	10
146	30
147	1149
148	1359
149	149
150	40
157	40
158	229
159	40
161	119
162	20
174	20
175	369
176	3579
177	449
178	50
