Mass Spectrum: 3H-Pyrazol-3-one, 2,4-dihydro-2-methyl-5-phenyl-
Formula: C10 H10 N2 O
CAS: 41927-50-8
Molecular weight: 174
m/z	RELATIVE INTENSITY
39	340
42	190
43	850
50	610
51	1520
52	300
63	430
73	360
74	250
75	330
76	610
77	2610
78	220
102	580
103	9399
104	1610
117	240
131	910
132	420
145	200
173	200
174	9999
175	1240
