Mass Spectrum: Thiazole, 4,5-dimethyl-2-propyl-
Formula: C8 H13 N S
CAS: 41981-72-0
Molecular weight: 155
Origin: HB-15
m/z	RELATIVE INTENSITY
18	31
26	58
27	575
28	338
29	229
30	3
32	34
33	4
34	16
37	22
38	89
39	738
40	104
41	750
42	136
43	249
44	42
45	1953
46	96
47	158
49	5
50	51
51	139
52	146
53	667
54	179
55	124
56	150
57	95
58	325
59	283
60	54
61	14
62	57
63	9
64	10
65	118
66	30
67	38
68	111
69	202
70	448
71	2295
72	162
73	105
74	3
76	8
77	4
78	10
79	3
80	39
81	19
82	118
83	46
84	91
85	1724
86	936
87	294
88	45
89	4
92	5
93	49
94	30
96	9
97	21
98	37
99	359
100	24
101	14
110	55
111	11
112	381
113	76
114	71
115	3
124	23
125	214
126	1069
127	9999
128	855
129	469
130	25
138	37
139	106
140	2467
141	230
142	109
143	3
152	27
153	9
154	1907
155	1976
156	277
157	93
158	4
