Mass Spectrum: Benzoic acid, 2-chloro-, phenyl ester
Formula: C13 H9 Cl O2
CAS: 41998-16-7
Molecular weight: 232
Origin: V.Zaikin,Inst.Petrochem.Synth.,RAS,Moscow
m/z	RELATIVE INTENSITY
26	60
27	150
29	30
39	1331
40	80
41	70
50	1021
51	771
52	110
53	80
55	60
57	30
61	130
62	150
63	330
64	150
65	921
66	130
69	30
73	120
74	510
75	2252
76	631
77	350
78	40
79	170
81	40
84	80
85	300
86	50
87	100
89	120
91	30
93	220
94	250
95	50
104	110
105	70
110	100
111	4034
112	310
113	1361
114	130
115	70
135	370
136	40
138	140
139	9999
140	1331
141	3353
142	450
145	40
156	50
232	350
233	60
234	120
235	20
