Mass Spectrum: 5-Chloro-1,10-phenanthroline
Formula: C12 H7 Cl N2
CAS: 4199-89-7
Molecular weight: 214
Origin: GFS Chemicals / NIST MS Data Center.
m/z	RELATIVE INTENSITY
26	49
27	92
28	40
36	18
37	74
38	106
39	117
40	12
49	75
50	360
51	259
52	87
53	20
55	12
61	215
62	388
63	226
64	49
65	12
67	13
68	18
71	10
72	32
73	117
74	413
75	635
76	592
77	142
78	32
80	190
81	66
84	47
85	97
86	150
87	153
88	84
89	336
94	251
96	19
97	92
98	303
99	510
100	316
101	150
102	147
103	24
107	505
108	213
109	50
110	61
111	75
112	54
113	25
114	21
121	24
122	80
123	248
124	291
125	582
126	480
127	115
128	74
129	29
133	9
134	22
135	20
136	20
137	13
138	17
139	22
140	14
147	17
148	20
149	40
150	263
151	748
152	1076
153	708
154	99
155	9
159	42
160	56
161	180
162	52
163	292
164	44
165	85
166	12
175	10
176	37
177	220
178	568
179	1419
180	203
181	17
185	33
187	845
188	1173
189	372
190	380
191	49
192	11
193	17
194	32
213	2872
214	9999
215	2306
216	3290
217	446
218	33
