Mass Spectrum: Cyanamide
Formula: C H2 N2
CAS: 420-04-2
Molecular weight: 42
Origin: Japan AIST/NIMC Database- Spectrum MS-IW-2370
m/z	RELATIVE INTENSITY
12	109
13	499
14	169
15	70
16	419
17	30
26	299
27	469
28	2019
29	259
30	10
40	189
41	1579
42	9999
43	1109
44	419
45	30
