Mass Spectrum: Phosphine, (trifluoromethyl)-
Formula: C H2 F3 P
CAS: 420-52-0
Molecular weight: 102
Origin: A.Pleshkova, Nesmeyanov Inst.Org.Elem.Cpds, Moscow
m/z	RELATIVE INTENSITY
31	721
32	641
33	130
50	721
51	831
52	420
62	100
63	120
69	9999
70	130
81	170
82	140
83	621
84	10
101	100
102	5465
103	60
