Mass Spectrum: Propane, 2-fluoro-
Formula: C3 H7 F
CAS: 420-26-8
Molecular weight: 62
m/z	RELATIVE INTENSITY
13	10
14	30
15	80
19	30
20	40
24	10
25	20
26	120
27	901
28	80
29	20
31	80
32	20
33	290
34	10
36	20
37	120
38	170
39	440
40	100
41	691
42	160
43	120
44	90
45	330
46	2833
47	9999
48	220
55	10
56	20
57	110
58	20
59	240
60	50
61	1461
62	120
63	10
