Mass Spectrum: Arsine, (trifluoromethyl)-
Formula: C H2 As F3
CAS: 420-42-8
Molecular weight: 146
Origin: A.Pleshkova, Nesmeyanov Inst.Org.Elem.Cpds, Moscow
m/z	RELATIVE INTENSITY
31	951
32	10
33	2302
34	30
50	250
51	5805
52	60
69	5605
70	60
75	3653
76	5905
77	1451
94	3503
95	1852
106	200
107	300
113	951
125	1651
126	300
127	1451
128	20
144	3053
145	901
146	9999
147	120
