Mass Spectrum: Thiirane
Formula: C2 H4 S
CAS: 420-12-2
Molecular weight: 60
Origin: E.GALLEGOS KANSAS STATE UNIVERSITY, MANHATTAN, KANSAS, USA
m/z	RELATIVE INTENSITY
12	100
13	170
14	490
15	160
24	30
25	280
26	1910
27	4460
28	780
29	280
32	790
33	380
34	1210
35	20
36	20
44	270
45	9999
46	280
47	360
56	80
57	800
58	2020
59	6900
60	7580
61	590
62	250
