Mass Spectrum: Propane, 2,2-difluoro-
Formula: C3 H6 F2
CAS: 420-45-1
Molecular weight: 80
Origin: THE M.W. KELLOGG CO., JERSEY CITY, N.J., USA
m/z	RELATIVE INTENSITY
13	71
14	193
15	546
16	10
19	46
20	32
21	7
24	10
25	52
26	228
27	455
28	52
29	43
31	377
32	43
33	445
34	6
35	4
36	44
37	194
38	234
39	417
40	45
41	470
42	19
43	12
44	172
45	1169
46	207
47	20
50	18
51	320
52	3
55	11
56	38
57	129
58	21
59	377
60	145
61	651
62	24
63	71
64	883
65	9999
66	228
67	2
74	2
75	29
76	4
77	36
78	1
79	2
80	7
81	1
