Mass Spectrum: 1-Heptadecanamine
Formula: C17 H37 N
CAS: 4200-95-7
Molecular weight: 255
Origin: Japan AIST/NIMC Database- Spectrum MS-NW-6017
m/z	RELATIVE INTENSITY
27	199
28	199
29	539
30	9999
31	209
32	40
39	119
40	30
41	1019
42	249
43	1369
44	1299
45	839
46	20
47	40
53	60
54	90
55	899
56	449
57	799
58	99
59	399
60	10
65	10
66	10
67	99
68	129
69	519
70	259
71	319
72	259
73	129
77	10
79	20
80	20
81	50
82	149
83	399
84	169
85	179
86	529
87	90
91	10
93	10
94	10
95	20
96	70
97	299
98	99
99	50
100	319
101	50
109	10
110	50
111	139
112	80
113	30
114	129
115	30
124	30
125	70
126	50
127	20
128	109
129	20
138	20
139	30
140	40
141	10
142	119
143	20
152	20
153	10
154	30
155	10
156	109
157	20
166	10
167	10
168	20
169	10
170	80
171	20
180	10
182	10
184	60
185	20
194	10
195	10
196	20
198	70
199	20
200	10
208	10
210	10
212	70
213	20
222	10
224	30
226	80
227	20
238	10
240	40
241	10
254	80
255	149
256	40
