Mass Spectrum: Benzeneacetic acid, 3-hydroxy-, methyl ester
Formula: C9 H10 O3
CAS: 42058-59-3
Molecular weight: 166
Origin: M.W.COUCH UNIVERSITY OF FLORIDA, GAINESVILLE, FLORIDA, USA
m/z	RELATIVE INTENSITY
12	10
13	10
14	50
15	1000
16	20
17	10
18	30
25	10
26	80
27	430
28	310
29	220
30	60
31	80
32	50
33	10
37	70
38	220
39	920
40	110
41	80
42	90
43	90
44	40
45	30
49	30
50	280
51	690
52	440
53	500
54	60
55	250
56	20
57	20
58	10
59	1050
60	40
61	50
62	110
63	280
64	80
65	130
66	110
67	80
68	40
69	30
70	10
71	10
73	20
74	70
75	70
76	70
77	2000
78	780
79	640
80	70
81	120
82	20
83	10
84	10
85	10
86	20
87	20
88	10
89	90
90	240
91	120
92	40
93	70
94	110
95	80
96	10
97	10
98	10
103	20
104	50
105	250
106	230
107	9999
108	1010
109	120
110	20
111	10
112	10
119	10
120	30
121	300
122	110
123	40
124	30
133	30
134	370
135	320
136	40
137	80
138	40
139	10
142	10
144	10
145	10
149	10
150	10
156	10
165	70
166	4650
167	510
168	70
169	10
