Mass Spectrum: Clonidine
Formula: C9 H9 Cl2 N3
CAS: 4205-90-7
Molecular weight: 229
Origin: Japan AIST/NIMC Database- Spectrum MS-NW-1945
m/z	RELATIVE INTENSITY
14	20
15	249
26	50
27	179
28	819
29	229
30	7179
31	109
32	30
35	119
36	59
37	40
38	20
39	139
40	149
41	339
42	999
43	869
44	559
45	10
47	30
49	129
50	189
51	159
52	99
53	109
54	30
55	259
56	30
57	70
58	10
60	30
61	139
62	209
63	299
64	179
65	40
66	30
67	50
68	50
69	50
70	119
71	20
72	70
73	319
74	399
75	639
76	199
77	109
78	50
79	50
80	20
82	50
83	20
84	139
85	129
86	90
87	90
88	219
89	80
90	129
91	30
92	10
94	10
95	10
96	119
97	179
98	149
99	139
100	399
101	90
102	229
103	90
104	70
105	50
106	10
107	30
108	30
109	679
110	239
111	569
112	129
113	109
114	50
115	369
116	239
117	90
118	40
119	20
120	10
121	10
122	20
123	20
124	709
125	139
126	269
127	70
128	40
129	90
130	80
131	109
132	80
133	199
134	30
135	169
136	839
137	279
138	409
139	129
140	70
141	30
142	20
143	10
144	30
145	619
146	109
147	429
148	70
149	70
150	50
151	70
152	129
153	199
154	60
155	60
156	50
157	229
158	349
159	379
160	99
161	199
162	60
163	99
164	80
165	589
166	259
167	329
168	99
169	50
170	10
171	659
172	3599
173	709
174	2329
175	249
176	429
177	50
178	30
179	10
180	10
185	40
186	249
187	119
188	159
189	60
190	50
191	179
192	359
193	989
194	2819
195	649
196	919
197	119
198	10
199	899
200	1459
201	749
202	949
203	229
204	159
205	20
226	10
227	30
228	499
229	9999
230	1389
231	6439
232	749
233	1059
234	119
