Mass Spectrum: S-Methyl pentanethioate
Formula: C6 H12 O S
CAS: 42075-43-4
Molecular weight: 132
Origin: J. MADSEN,DEP. ORG. CHEM.,TECH. UNIV. DENMARK,LYNGBY,DENMARK
m/z	RELATIVE INTENSITY
27	1400
29	5500
41	4500
47	900
57	9999
75	900
85	7000
117	1500
132	10
