Mass Spectrum: (S)-(+)-3-Methyl-1-pentanol
Formula: C6 H14 O
CAS: 42072-39-9
Molecular weight: 102
Origin: Japan AIST/NIMC Database- Spectrum MS-IW- 890
m/z	RELATIVE INTENSITY
15	50
17	10
18	30
26	50
27	809
28	469
29	2199
30	60
31	1869
32	20
33	10
38	30
39	609
40	119
41	4869
42	1619
43	5779
44	339
45	859
46	389
47	30
50	20
51	40
52	10
53	199
54	189
55	7489
56	9999
57	3019
58	139
59	139
60	10
65	10
67	99
68	60
69	7929
70	599
71	509
72	90
73	109
74	30
81	10
82	10
83	229
84	1719
85	259
86	10
101	10
