Mass Spectrum: S-Methyl 2-methylpropanethioate
Formula: C5 H10 O S
CAS: 42075-42-3
Molecular weight: 118
Origin: J. MADSEN,DEP. ORG. CHEM.,TECH. UNIV. DENMARK,LYNGBY,DENMARK
m/z	RELATIVE INTENSITY
27	1900
29	2600
41	2900
43	9999
48	1600
71	5000
75	800
118	900
