Mass Spectrum: Ethane, 1-bromo-1,1,2,2-tetrafluoro-2-iodo-
Formula: C2 Br F4 I
CAS: 421-70-5
Molecular weight: 306
Origin: D.HENNEBERG, MAX-PLANCK INSTITUTE, MULHEIM, WEST GERMANY
m/z	RELATIVE INTENSITY
24	70
27	4
29	5
30	6
31	8309
32	104
36	166
37	1
42	7
43	60
45	3
46	3
47	8
48	4
49	1
50	2518
51	140
52	2
53	5
54	3
56	11
58	2
59	1
60	3
61	2
62	160
63	7
64	5
69	9448
70	13
72	3
74	3
75	4
76	7
77	8
78	2
79	305
81	1718
82	48
85	41
89	25
90	10
91	141
93	180
94	46
96	16
97	7
98	10
100	6151
101	361
103	13
104	18
105	17
106	21
107	21
108	13
109	7
110	341
111	28
112	340
113	17
114	7
115	8
116	9
117	15
118	9
119	8
121	9
122	21
123	9
124	27
126	34
127	3536
128	51
129	2526
130	43
131	2234
132	32
133	4
137	8
138	15
139	154
143	44
144	8
145	7
146	24
148	4
151	18
152	3
154	6
155	3
157	5
158	602
159	50
160	1682
161	54
162	1485
163	43
165	4
166	5
167	4
168	11
170	44
175	15
177	2199
179	9999
180	308
181	9870
182	206
183	7
186	5
187	7
188	4
189	21
190	4
193	3
195	3
200	5
204	8
206	2060
207	25
208	2509
209	17
210	4
212	3
218	3
220	8
225	6
227	1777
228	28
230	3
236	4
237	67
238	2
239	69
258	3
281	3
286	3
287	42
289	36
291	3
303	3
304	10
306	1899
308	1954
309	50
