Mass Spectrum: Acetonitrile, chlorodifluoro-
Formula: C2 Cl F2 N
CAS: 421-05-6
Molecular weight: 111
m/z	RELATIVE INTENSITY
12	80
14	10
24	10
26	80
27	10
28	20
31	540
32	10
35	170
36	10
37	60
39	70
43	20
45	10
46	20
47	100
49	30
50	701
51	10
52	10
57	210
61	70
62	10
63	20
64	160
68	50
69	20
73	20
75	10
76	9999
77	250
85	1061
86	10
87	350
92	530
93	10
94	170
101	10
103	10
111	70
113	20
