Mass Spectrum: Trifluoromethanesulfonyl chloride
Formula: C Cl F3 O2 S
CAS: 421-83-0
Molecular weight: 168
Origin: Japan AIST/NIMC Database- Spectrum MS-NW-3433
m/z	RELATIVE INTENSITY
12	10
16	30
31	239
32	199
35	139
36	20
37	40
44	40
47	20
48	899
50	349
51	20
55	20
63	80
64	859
65	10
66	50
67	70
69	9999
70	109
76	20
77	10
82	40
83	499
85	289
87	50
99	269
101	129
104	40
106	10
120	10
133	10
136	10
