Mass Spectrum: Methanesulfenyl chloride, trifluoro-
Formula: C Cl F3 S
CAS: 421-17-0
Molecular weight: 136
m/z	RELATIVE INTENSITY
31	240
32	771
33	10
34	20
35	170
37	60
44	170
47	30
48	290
49	10
50	210
51	250
53	10
55	10
57	30
60	130
63	470
64	731
65	30
66	50
67	1451
68	20
69	9999
70	120
71	40
76	180
77	60
78	30
79	10
80	10
81	100
82	1641
83	40
84	70
85	370
86	40
87	60
88	10
95	30
96	10
101	2512
102	70
103	120
111	10
113	10
114	100
116	10
117	741
118	10
119	270
121	10
133	100
135	20
136	5475
137	120
138	2022
139	40
140	80
