Mass Spectrum: Propane, 1,1,1-trifluoro-
Formula: C3 H5 F3
CAS: 421-07-8
Molecular weight: 98
Origin: Thomas J.Bruno
m/z	RELATIVE INTENSITY
27	8077
29	9999
33	1661
51	4504
59	2812
69	3903
77	3753
79	4664
98	1080
