Mass Spectrum: 4-t-Butylbenzonitrile
Formula: C11 H13 N
CAS: 4210-32-6
Molecular weight: 159
Origin: ASES Database, Dalian Institute, P.R. China
m/z	RELATIVE INTENSITY
29	590
39	1971
41	2792
50	600
51	910
57	300
63	590
75	590
76	480
77	680
89	800
101	400
102	490
103	290
105	1181
115	400
116	590
117	700
128	500
144	9999
145	1101
159	1591
