Mass Spectrum: 4-Hexen-1-ol, acetate, (Z)-
Formula: C8 H14 O2
CAS: 42125-17-7
Molecular weight: 142
Origin: FOOD RESEARCH REPORT 120, K.E. MURRAY & COLLEAGUES, DIV. OF FOOD RESEARCH, CSIRO, AUSTRALIA
m/z	RELATIVE INTENSITY
26	100
27	1700
29	1300
31	300
38	100
39	2000
40	300
41	2800
42	700
43	9999
50	100
51	200
52	100
53	800
54	2200
55	1900
56	100
57	100
61	100
65	100
67	7900
68	500
69	300
79	100
81	900
82	4700
83	300
