Mass Spectrum: 1,3,6-Heptatriene, 2,5,6-trimethyl-
Formula: C10 H16
CAS: 42123-66-0
Molecular weight: 136
Origin: D.HENNEBERG, MAX-PLANCK INSTITUTE, MULHEIM, WEST GERMANY
m/z	RELATIVE INTENSITY
26	155
28	198
29	2513
30	48
31	6
32	9
37	9
38	21
39	2486
40	419
41	5640
42	432
43	1922
44	58
45	8
48	7
49	10
50	47
51	376
52	261
53	2551
54	288
55	3272
56	252
57	257
63	75
64	52
65	1123
66	413
67	3233
68	450
69	389
70	290
71	269
74	10
75	59
76	13
77	4302
78	787
79	7419
80	1473
81	1201
82	158
83	63
84	21
85	19
86	13
89	94
90	25
91	6313
92	987
93	9999
94	4855
95	1645
96	111
97	22
100	40
101	19
102	25
103	495
104	127
105	4951
106	1377
107	5864
108	3454
109	348
110	32
111	12
115	44
116	16
117	73
118	21
119	727
120	135
121	8717
122	840
123	99
124	8
133	18
134	26
135	75
136	2294
137	209
138	54
