Mass Spectrum: 2-Nitrothiophene-4-carbonitrile
Formula: C5 H2 N2 O2 S
CAS: 42137-24-6
Molecular weight: 154
Origin: NIST Mass Spectrometry Data Center, 1994
m/z	RELATIVE INTENSITY
12	108
13	80
14	35
16	126
17	61
18	22
24	69
25	200
26	172
27	89
28	229
29	22
30	7443
31	59
32	297
33	76
36	350
37	1789
38	958
39	160
44	549
45	7223
46	734
47	323
48	174
49	270
50	428
51	562
52	550
56	390
57	4799
58	234
59	236
60	62
61	62
62	445
63	829
64	8544
65	385
68	297
69	667
70	549
71	90
74	59
75	212
76	127
77	157
78	119
79	59
80	1068
81	925
82	691
83	204
84	58
92	33
93	60
94	312
95	33
96	5784
97	434
98	308
106	259
107	326
108	762
109	60
124	2962
125	243
126	158
138	540
154	9999
155	667
156	534
157	48
