Mass Spectrum: 9H-Fluoren-9-one, 3-nitro-
Formula: C13 H7 N O3
CAS: 42135-22-8
Molecular weight: 225
Origin: J.E. WILKINSON S-CUBED, SAN DIEGO, CA.
m/z	RELATIVE INTENSITY
46	49
47	13
49	5
50	241
51	418
52	5
53	11
61	31
62	259
63	275
64	2
65	1
69	1
73	231
74	752
75	1642
76	382
77	385
78	2
79	36
81	62
83	58
84	2
85	52
86	180
87	237
88	18
89	32
96	5
97	2
98	372
99	404
100	76
101	174
102	1
109	1
110	49
111	72
112	2
113	102
122	54
123	33
124	29
125	478
126	14
133	1
135	1
137	18
138	40
139	1610
140	96
141	3
142	3
143	5
144	1
146	1
149	196
150	4954
151	9999
152	959
153	11
164	3
166	1
167	1170
168	72
178	3
179	2644
180	225
181	1
191	1
195	171
196	13
207	445
208	11
209	50
225	9605
226	1066
227	30
