Mass Spectrum: Propane, 1-(2-chloroethoxy)-
Formula: C5 H11 Cl O
CAS: 42149-74-6
Molecular weight: 122
Origin: NIST Mass Spectrometry Data Center
m/z	RELATIVE INTENSITY
12	10
13	40
14	130
15	490
16	20
17	20
18	20
19	20
25	60
26	831
27	5625
28	1631
29	1832
30	230
31	1141
32	70
35	50
36	30
37	70
38	150
39	1181
40	210
41	3013
42	681
43	9999
44	751
45	270
46	10
47	40
48	60
49	561
50	80
51	190
53	20
55	931
56	40
57	130
58	50
59	250
60	10
61	90
63	5405
64	190
65	1661
66	40
71	20
73	4784
74	230
75	10
79	20
81	20
86	10
93	2132
94	90
95	691
96	30
122	470
123	40
124	140
