Mass Spectrum: Benzene, 1-iodo-2,4-dimethyl-
Formula: C8 H9 I
CAS: 4214-28-2
Molecular weight: 232
Origin: Japan AIST/NIMC Database- Spectrum MS-IW-3843
m/z	RELATIVE INTENSITY
26	10
27	169
28	30
37	30
38	90
39	399
40	40
41	30
49	20
50	249
51	519
52	189
53	159
54	10
61	70
62	199
63	469
64	119
65	169
66	20
73	20
74	129
75	109
76	109
77	1689
78	669
79	1889
80	119
85	20
86	40
87	40
88	10
89	169
90	129
91	30
98	20
101	30
102	169
103	1469
104	719
105	4649
106	419
107	30
115	40
116	119
121	10
122	20
127	209
128	80
165	10
217	109
218	10
231	219
232	9999
233	889
234	30
