Mass Spectrum: 5-Chloro-2-pyridinol
Formula: C5 H4 Cl N O
CAS: 4214-79-3
Molecular weight: 129
Origin: NIST Mass Spectrometry Data Center
m/z	RELATIVE INTENSITY
12	50
13	80
14	150
16	90
17	70
24	30
25	240
26	470
27	320
28	2402
29	721
30	40
31	10
32	100
35	270
36	561
37	2142
38	3003
39	4194
40	430
41	881
42	270
43	120
44	60
47	681
48	230
49	951
50	1431
51	781
52	290
53	240
54	70
55	70
56	40
59	40
60	270
61	210
62	340
63	290
64	500
65	350
66	1792
67	200
68	80
69	100
71	180
72	450
73	2342
74	2803
75	1111
76	1291
77	150
80	50
84	120
85	130
86	60
92	50
94	631
95	100
101	9999
102	861
103	3173
104	210
106	50
108	10
129	7237
130	581
131	2412
132	190
