Mass Spectrum: 2-Amino-5-nitropyridine
Formula: C5 H5 N3 O2
CAS: 4214-76-0
Molecular weight: 139
Origin: Japan AIST/NIMC Database- Spectrum MS-NW-1407
m/z	RELATIVE INTENSITY
12	20
13	10
14	80
15	60
16	40
18	20
24	10
25	50
26	199
27	259
28	249
29	99
30	489
32	50
36	50
37	559
38	1309
39	4089
40	609
41	609
42	179
43	309
44	159
45	20
46	50
48	20
49	90
50	839
51	669
52	799
53	469
54	989
55	139
56	10
57	20
58	20
60	20
62	60
63	149
64	469
65	819
66	9299
67	769
68	60
69	30
70	10
71	10
75	50
76	80
77	70
78	209
79	239
80	90
81	1209
82	139
83	30
84	10
85	10
86	10
89	10
90	20
91	50
92	289
93	1899
94	129
95	90
96	20
106	10
107	10
108	10
109	2419
110	179
111	139
112	20
122	99
123	299
124	20
138	10
139	9999
140	669
141	60
142	10
