Mass Spectrum: Decanoic acid, phenylmethyl ester
Formula: C17 H26 O2
CAS: 42175-41-7
Molecular weight: 262
Origin: G.GERCKEN UNIV. HAMBURG, 2 HAMBURG 13, GERMANY, F.R.G.
m/z	RELATIVE INTENSITY
26	190
27	750
29	1320
39	630
40	220
41	2030
42	500
43	3600
44	750
45	190
50	130
51	350
52	130
53	190
54	160
55	1410
56	410
57	1970
58	130
59	130
60	310
63	220
65	1060
67	470
68	190
69	1880
70	280
71	1660
73	280
77	500
78	250
79	810
80	160
81	590
82	130
83	780
84	310
85	810
87	190
89	380
90	970
91	9999
92	2970
93	350
95	560
96	160
97	720
98	310
101	160
103	130
104	160
105	310
106	130
107	630
108	7200
109	780
110	160
111	590
112	130
115	160
117	130
123	130
131	160
135	780
136	90
137	130
149	130
150	130
152	250
153	1000
154	190
155	690
156	130
170	110
171	810
172	140
173	90
177	80
178	60
179	60
180	110
191	80
244	90
262	160
