Mass Spectrum: Benzene, 1-ethyl-4-(1-methylethyl)-
Formula: C11 H16
CAS: 4218-48-8
Molecular weight: 148
Origin: NIST Mass Spectrometry Data Center, 1990.
m/z	RELATIVE INTENSITY
15	166
26	76
27	501
28	378
29	312
32	66
39	725
40	116
41	569
43	131
50	327
51	822
52	228
53	278
55	97
58	140
59	50
62	196
63	741
64	357
65	895
66	99
74	187
75	237
76	268
77	1924
78	712
79	1133
80	94
87	85
89	491
91	3822
92	361
93	83
101	75
102	358
103	1064
104	75
105	6500
106	572
115	1389
116	483
117	1600
118	455
119	2417
120	250
127	123
128	239
129	114
130	114
131	340
132	114
133	9999
134	1061
148	2687
149	310
