Mass Spectrum: 3-Hexenoic acid
Formula: C6 H10 O2
CAS: 4219-24-3
Molecular weight: 114
Origin: James Little,Eastman Chem.Co.,Kingsport,TN
m/z	RELATIVE INTENSITY
27	4704
28	9749
29	4344
31	1471
39	4914
41	9999
42	2022
43	9959
44	3463
45	2793
53	2272
55	2312
57	3133
58	1732
59	1611
67	2272
68	1441
69	8468
71	1922
73	440
74	500
81	470
83	410
85	1211
86	1301
87	470
95	390
96	841
97	1581
99	991
113	771
114	3793
115	500
