Mass Spectrum: Propanal, pentafluoro-
Formula: C3 H F5 O
CAS: 422-06-0
Molecular weight: 148
Origin: G.O.PRITCHARD UNIV.OF CALIFORNIA SANTA BARBARA CALIFORNIA USA
m/z	RELATIVE INTENSITY
12	110
13	60
19	20
20	20
24	30
25	20
28	140
29	9999
31	1210
32	150
43	20
44	60
50	320
51	1320
63	20
69	1400
78	10
79	10
81	60
82	40
83	40
100	1390
101	240
119	110
120	40
