Mass Spectrum: 1-Benzylpyrene
Formula: C23 H16
CAS: 42211-34-7
Molecular weight: 292
Origin: Japan AIST/NIMC Database- Spectrum MS-IW-4943
m/z	RELATIVE INTENSITY
27	10
39	20
50	10
51	30
63	30
65	30
74	10
75	10
77	10
86	10
87	30
88	10
89	20
91	60
93	10
94	10
95	10
96	50
97	20
98	10
99	10
100	20
105	30
106	30
111	20
112	30
113	50
117	40
118	99
119	80
120	20
122	10
123	10
124	40
125	70
126	159
129	30
130	159
131	299
132	169
133	99
135	10
136	20
137	70
138	589
139	80
141	20
142	90
143	419
144	939
145	839
146	739
147	20
148	10
149	20
150	20
151	10
161	10
162	10
163	30
164	10
174	30
175	20
176	10
185	10
186	20
187	99
188	60
189	299
190	50
198	30
199	40
200	179
201	129
202	90
203	10
210	10
211	90
212	50
213	519
214	289
215	2699
216	489
217	40
221	60
222	20
223	20
224	50
225	30
226	40
227	10
235	20
236	20
237	60
238	30
239	60
240	10
248	20
249	10
250	40
251	10
252	20
253	10
259	20
260	20
261	80
262	40
263	139
264	40
265	40
266	10
274	40
275	10
276	459
277	259
278	50
282	10
285	80
287	389
288	119
289	2219
290	1019
291	2639
292	9999
293	2429
294	289
295	50
296	10
