Mass Spectrum: 1-Chloroeicosane
Formula: C20 H41 Cl
CAS: 42217-02-7
Molecular weight: 316
Origin: Japan AIST/NIMC Database- Spectrum MS-NW-5653
m/z	RELATIVE INTENSITY
15	20
26	30
27	959
28	249
29	2639
30	50
36	40
38	10
39	659
40	139
41	5659
42	1319
43	8559
44	289
45	20
49	50
51	20
52	20
53	369
54	569
55	5739
56	2009
57	9999
58	469
59	50
60	30
62	10
63	139
65	70
66	60
67	759
68	579
69	3589
70	1439
71	5699
72	329
73	40
75	40
76	10
77	109
78	10
79	119
80	50
81	479
82	699
83	2409
84	959
85	3279
86	239
87	20
89	20
90	20
91	2719
92	129
93	869
94	50
95	289
96	429
97	1759
98	749
99	1099
100	80
101	10
103	10
104	169
105	949
106	99
107	309
108	20
109	169
110	199
111	819
112	579
113	699
114	70
115	10
117	30
118	70
119	419
120	50
121	139
122	20
123	109
124	129
125	409
126	469
127	519
128	50
129	10
130	10
131	50
132	60
133	349
134	40
135	119
136	20
137	60
138	80
139	189
140	329
141	379
142	40
143	10
144	20
145	50
146	50
147	309
148	40
149	109
150	10
151	20
152	50
153	99
154	249
155	279
156	30
157	10
158	10
159	40
160	60
161	249
162	40
163	70
164	10
165	10
166	30
167	70
168	169
169	219
170	30
172	10
173	30
174	70
175	229
176	40
177	70
178	10
179	10
180	20
181	40
182	119
183	169
184	20
186	10
187	30
188	80
189	189
190	50
191	60
192	10
194	10
195	30
196	80
197	129
198	20
200	10
201	20
202	80
203	179
204	50
205	60
206	10
208	10
209	20
210	40
211	80
212	20
214	10
215	20
216	80
217	179
218	50
219	60
220	10
223	10
224	20
225	40
226	10
229	10
230	70
231	169
232	50
233	50
234	10
237	10
238	10
239	20
243	10
244	60
245	169
246	50
247	60
248	10
250	10
251	10
252	20
253	10
257	10
258	60
259	149
260	40
261	50
262	10
271	10
272	30
273	109
274	30
275	40
276	10
280	99
281	30
286	109
287	90
288	50
289	30
314	30
315	20
316	539
317	119
318	189
319	40
