Mass Spectrum: 5-Methyl-N-nitro-1H-1,2,4-triazol-3-amine
Formula: C3 H5 N5 O2
CAS: 42216-41-1
Molecular weight: 143
Origin: Div. of Experiment Therapeutics WRAIR, WRAMC, Washington DC 20307
m/z	RELATIVE INTENSITY
41	1063
42	9999
43	603
44	39
45	7
46	515
48	4
51	32
52	23
53	577
54	6
55	347
56	215
57	76
58	4
60	16
65	11
66	31
67	987
68	480
69	45
70	9
71	31
73	16
77	8
79	6
80	5
81	18
82	13
83	220
84	29
85	4
87	3
93	3
95	4
97	5912
98	1086
99	58
106	4
107	4
109	14
110	12
111	8
112	4
113	149
114	11
123	5
125	6
126	98
127	19
142	31
143	1008
144	57
145	29
