Mass Spectrum: Acetic acid, (amino(nitroamino)methylene)hydrazide
Formula: C3 H7 N5 O3
CAS: 42216-29-5
Molecular weight: 161
Origin: Div. of Experiment Therapeutics WRAIR, WRAMC, Washington DC 20307
m/z	RELATIVE INTENSITY
41	838
42	3052
43	9999
44	1256
45	263
46	864
49	79
53	151
54	40
55	68
56	317
57	179
58	114
59	160
60	91
67	132
68	49
69	34
72	93
73	415
74	34
83	45
84	163
85	1050
86	34
97	353
98	108
99	350
100	136
115	162
116	100
119	23
126	21
143	31
144	21
161	85
