Mass Spectrum: Hexanoic acid, 6-bromo-
Formula: C6 H11 Br O2
CAS: 4224-70-8
Molecular weight: 194
Origin: RADIAN CORP
m/z	RELATIVE INTENSITY
14	20
15	160
26	420
27	2810
28	620
29	1160
30	40
31	320
37	60
38	200
39	2130
40	380
41	3580
42	660
43	870
44	100
45	2550
46	30
47	10
48	100
50	60
51	60
52	30
53	270
54	450
55	2090
56	100
59	90
60	9999
61	460
62	50
63	10
65	40
67	170
68	120
69	1180
71	60
73	2580
74	130
79	70
80	60
81	100
82	60
87	240
93	210
95	230
96	20
97	1170
98	70
99	20
107	270
109	240
115	230
