Mass Spectrum: 2,4-Azetidinedione, 3,3-diethyl-
Formula: C7 H11 N O2
CAS: 42282-85-9
Molecular weight: 141
Origin: A.Pleshkova, Nesmeyanov Inst.Org.Elem.Cpds, Moscow
m/z	RELATIVE INTENSITY
39	2322
40	320
41	2342
42	1021
43	330
44	120
51	220
52	60
53	661
54	320
55	9549
56	420
57	70
67	120
69	340
70	420
71	60
83	9999
84	540
85	60
98	9028
99	641
100	80
141	140
