Mass Spectrum: Furan, 2-propyl-
Formula: C7 H10 O
CAS: 4229-91-8
Molecular weight: 110
Origin: NIST Mass Spectrometry Data Center, 1990.
m/z	RELATIVE INTENSITY
14	35
15	99
18	22
25	26
26	203
27	1461
28	123
29	398
32	31
37	132
38	320
39	1114
40	172
41	485
42	87
43	91
49	44
50	405
51	587
52	410
53	2822
54	236
55	104
57	34
61	36
62	56
63	124
65	231
66	189
67	188
68	107
74	40
77	197
78	58
79	226
80	40
81	9999
82	735
83	56
94	91
95	150
110	1915
111	156
