Mass Spectrum: Perfluorodecyl iodide
Formula: C10 F21 I
CAS: 423-62-1
Molecular weight: 646
Origin: Japan AIST/NIMC Database- Spectrum MS-IW- 44
m/z	RELATIVE INTENSITY
31	249
50	50
51	109
69	9999
70	139
74	10
81	60
93	229
100	1169
101	50
112	90
113	10
119	4249
120	90
124	20
127	2349
128	99
131	3579
132	109
143	99
150	70
151	10
155	10
158	40
162	129
169	3749
170	119
177	2019
178	20
181	1349
182	60
189	10
193	60
208	129
212	10
219	2839
220	109
227	459
228	10
231	709
232	30
239	239
243	30
258	10
269	1599
270	80
277	90
281	479
282	30
289	20
319	289
320	10
327	10
331	289
332	20
369	20
381	50
431	339
432	30
481	199
482	20
519	1079
520	109
627	70
646	159
647	10
