Mass Spectrum: Octanoic acid, 2-propenyl ester
Formula: C11 H20 O2
CAS: 4230-97-1
Molecular weight: 184
Origin: Japan AIST/NIMC Database- Spectrum MS-NW-3477
m/z	RELATIVE INTENSITY
14	10
15	119
17	10
18	40
25	10
26	129
27	1299
28	389
29	1819
30	50
31	109
32	40
36	10
37	40
38	119
39	1779
40	359
41	7389
42	1089
43	3889
44	149
45	249
46	10
50	30
51	60
52	20
53	209
54	919
55	4369
56	1179
57	9999
58	1099
59	379
60	199
61	70
63	20
65	40
66	20
67	539
68	129
69	749
70	259
71	369
72	119
73	219
74	30
75	20
77	40
78	10
79	99
80	60
81	489
82	539
83	2149
84	449
85	279
86	30
87	159
88	10
89	40
91	30
92	10
93	40
94	10
95	179
96	70
97	1089
98	409
99	379
100	3739
101	499
102	80
103	40
105	10
106	10
107	149
108	30
109	579
110	70
111	60
112	20
113	1349
114	139
115	40
117	10
119	10
121	10
122	10
123	40
124	80
125	569
126	80
127	6359
128	599
129	60
135	10
137	10
141	279
142	50
143	50
144	10
145	129
146	10
153	20
155	309
156	30
157	10
169	60
170	20
183	10
184	30
185	10
