Mass Spectrum: Phenol, 2,4-dinitro-, acetate (ester)
Formula: C8 H6 N2 O6
CAS: 4232-27-3
Molecular weight: 226
Origin: Japan AIST/NIMC Database- Spectrum MS-IW-3902
m/z	RELATIVE INTENSITY
14	30
15	219
26	20
28	139
29	20
30	239
37	70
38	129
39	70
41	30
42	419
43	9999
44	419
45	50
46	10
50	109
51	259
52	60
53	279
54	20
55	10
60	20
61	109
62	429
63	809
64	159
65	30
66	20
67	20
68	20
73	20
74	109
75	90
76	40
77	40
78	10
79	199
80	30
90	10
91	299
92	199
93	119
94	10
96	10
105	10
107	189
108	30
120	10
121	10
122	10
134	10
138	30
151	20
154	139
155	10
167	50
168	139
169	10
184	459
185	30
226	379
227	30
