Mass Spectrum: 5-Hepten-1-ol, 2,6-dimethyl-
Formula: C9 H18 O
CAS: 4234-93-9
Molecular weight: 142
Origin: NIST Mass Spectrometry Data Center, 2010
m/z	RELATIVE INTENSITY
27	450
31	991
39	2042
41	8638
42	761
43	1641
45	160
53	1481
54	641
55	3894
56	2212
57	1211
58	1361
66	250
67	6596
68	3693
69	9999
70	1171
71	2272
77	460
79	550
80	701
81	2692
82	8348
95	3994
96	460
109	5825
110	641
124	400
142	2702
143	390
