Mass Spectrum: 6-Tridecane
Formula: C13 H24
CAS: 42371-66-4
Molecular weight: 180
Origin: S.A. Rang et al., IR & MS of Unsatd. Hydrocarbons, 1977
m/z	RELATIVE INTENSITY
15	19
24	5
25	19
26	176
27	2716
29	4568
30	110
31	24
37	19
38	52
39	1869
40	467
41	6914
42	968
43	3704
44	72
45	14
49	5
50	57
51	362
52	784
53	1902
54	9383
55	6296
56	868
57	884
58	43
59	14
62	14
63	76
64	43
65	634
66	601
67	9999
68	3827
69	3704
70	467
71	129
72	10
74	10
76	14
77	717
78	200
79	1268
80	484
81	8395
82	3457
83	1151
84	100
85	24
89	10
90	10
91	343
92	57
93	372
94	200
95	6543
96	2346
97	417
98	38
99	5
100	5
102	10
103	19
104	10
105	48
106	10
107	95
108	72
109	3086
110	951
111	129
112	14
115	10
117	5
119	5
121	19
122	19
123	501
124	281
125	38
126	5
128	5
135	10
137	305
138	91
139	19
151	651
152	95
153	10
165	48
166	10
180	67
181	10
182	5
