Mass Spectrum: Phenol, 2-chloro-6-(1,1-dimethylethyl)-
Formula: C10 H13 Cl O
CAS: 4237-37-0
Molecular weight: 184
m/z	RELATIVE INTENSITY
49	30
50	170
51	741
52	150
53	250
54	20
55	200
56	40
57	270
58	50
59	90
60	30
61	50
62	150
63	550
64	180
65	380
66	550
67	60
68	20
69	20
72	30
73	180
74	100
75	220
76	70
77	1041
78	230
79	230
80	20
81	10
83	20
84	70
85	70
86	40
87	60
88	30
89	530
90	120
91	380
92	70
93	80
94	50
95	70
97	30
98	20
99	140
100	30
101	90
102	80
103	210
104	50
105	350
106	60
107	290
108	40
109	40
110	20
111	50
112	120
113	80
114	50
115	480
116	150
117	170
118	80
119	80
120	30
121	60
123	20
125	230
126	40
127	110
128	230
129	400
130	180
131	240
132	90
133	140
134	170
135	550
136	60
137	10
138	20
139	110
140	40
141	7267
142	671
143	2382
144	220
145	30
149	90
150	130
151	30
152	20
153	130
154	60
155	100
156	50
157	170
158	20
165	20
167	30
168	70
169	9999
170	1031
171	3293
172	320
183	20
184	3403
185	390
186	1121
187	120
