Mass Spectrum: 1H-Imidazole, 1-(phenylmethyl)-
Formula: C10 H10 N2
CAS: 4238-71-5
Molecular weight: 158
Origin: Japan AIST/NIMC Database- Spectrum MS-NW-7268
m/z	RELATIVE INTENSITY
13	10
14	20
15	10
26	189
27	269
28	329
29	20
37	40
38	159
39	869
40	339
41	299
42	20
43	10
44	30
45	20
49	20
50	259
51	589
52	219
53	80
54	80
55	10
57	10
61	40
62	129
63	399
64	119
65	1679
66	209
67	10
73	10
74	60
75	70
76	80
77	299
78	199
79	60
81	20
85	10
86	20
87	30
88	10
89	279
90	109
91	9999
92	779
93	30
101	20
102	50
103	129
104	50
116	10
117	10
128	20
129	30
130	50
131	10
143	10
155	10
156	40
157	20
158	3159
159	399
160	30
