Mass Spectrum: Cyclohexyl methylphosphonothionofluoridate
Formula: C7 H14 F O P S
CAS: 4241-34-3
Molecular weight: 196
Origin: VERIFINN
m/z	RELATIVE INTENSITY
26	70
27	961
28	220
29	701
39	1071
41	2042
42	170
43	190
45	230
47	180
51	130
53	490
54	1271
55	2302
56	100
63	120
65	210
66	80
67	3253
68	150
77	300
79	300
81	881
82	1131
83	490
96	60
97	1091
98	60
99	220
114	901
115	9999
116	130
117	480
196	320
