Mass Spectrum: Benzeneacetonitrile, .alpha.-(benzoyloxy)-
Formula: C15 H11 N O2
CAS: 4242-46-0
Molecular weight: 237
Origin: Dennis Rohrbaugh, CBDCOM/ERDEC, Edgewood, MD
m/z	RELATIVE INTENSITY
38	40
39	1699
50	869
51	4639
52	229
63	1719
64	239
65	719
77	9069
78	699
88	60
89	4759
90	979
105	9999
106	949
114	379
115	1239
116	4919
117	259
237	1079
