Mass Spectrum: cis-3-Hexenyl phenyl acetate
Formula: C14 H18 O2
CAS: 42436-07-7
Molecular weight: 218
Origin: Japan AIST/NIMC Database- Spectrum MS-NW-9472
m/z	RELATIVE INTENSITY
18	20
26	10
27	199
28	30
29	229
38	20
39	509
40	70
41	1189
42	90
43	119
44	10
45	10
50	40
51	129
52	40
53	179
54	259
55	1239
56	60
57	10
62	30
63	139
64	50
65	839
66	90
67	4649
68	279
69	169
70	10
75	10
77	50
78	10
79	70
80	20
81	339
82	9999
83	729
84	20
89	209
90	179
91	7259
92	689
93	30
97	20
99	10
105	10
118	80
119	409
120	60
121	20
136	70
137	90
138	20
