Mass Spectrum: Acrylic acid isoamyl ester
Formula: C8 H14 O2
CAS: 4245-35-6
Molecular weight: 142
Origin: Vladimir Zaikin,TIPS RAS, Moscow, Russia
m/z	RELATIVE INTENSITY
36	300
38	180
39	480
40	80
41	1050
42	1201
43	1421
44	470
45	320
46	70
51	100
53	110
54	90
55	9999
56	600
57	180
58	30
59	30
61	40
63	220
64	20
65	40
66	20
67	30
68	50
69	680
70	5134
71	520
72	400
73	1601
74	60
85	330
99	270
100	40
