Mass Spectrum: Benzene, 1-methyl-4-[(2-propenyloxy)methyl]-
Formula: C11 H14 O
CAS: 42463-79-6
Molecular weight: 162
Origin: JACSAT, 99(13)4372(1977); 20; R. G. SALOMON
m/z	RELATIVE INTENSITY
65	1000
77	2700
78	1000
79	1200
91	3400
93	1800
103	1100
105	9999
106	6600
119	2700
120	4100
121	1400
132	1000
162	1800
