Mass Spectrum: Disulfide, methyl (methylthio)methyl
Formula: C3 H8 S3
CAS: 42474-44-2
Molecular weight: 140
Origin: J. MADSEN,DEP. ORG. CHEM.,TECH. UNIV. DENMARK,LYNGBY,DENMARK
m/z	RELATIVE INTENSITY
35	1300
45	2900
46	1200
47	800
61	9999
63	600
79	600
140	1300
