Mass Spectrum: Ethane, 2-chloro-1,1,2-trifluoro-1-methoxy-
Formula: C3 H4 Cl F3 O
CAS: 425-87-6
Molecular weight: 148
Origin: Japan AIST/NIMC Database- Spectrum MS-NW-2955
m/z	RELATIVE INTENSITY
13	20
14	40
15	3789
16	40
26	10
27	20
28	30
29	399
30	50
31	329
32	129
33	40
35	99
36	30
43	20
44	40
45	20
46	10
47	449
48	70
49	80
50	40
51	829
52	10
55	10
56	10
57	30
59	40
60	80
62	10
63	539
64	10
66	40
67	1649
68	30
69	529
78	10
79	189
80	10
81	9999
82	429
83	30
85	50
94	10
95	209
97	80
98	70
99	10
100	20
113	119
116	60
117	469
118	20
119	149
129	129
131	40
