Mass Spectrum: Benzene, 1,1'-(1,1,2,2-tetrafluoro-1,2-ethanediyl)bis-
Formula: C14 H10 F4
CAS: 425-32-1
Molecular weight: 254
Origin: J. L. COTTER
m/z	RELATIVE INTENSITY
39	200
50	200
51	700
57	100
63	100
75	200
76	100
77	1600
78	100
101	100
107	200
125	100
126	100
127	9999
128	800
165	100
254	300
