Mass Spectrum: 4H-Pyran, 4-(2,6-diphenyl-4H-pyran-4-ylidene)-2,6-diphenyl-
Formula: C34 H24 O2
CAS: 42506-57-0
Molecular weight: 464
Origin: N.ISHIBE KYOTO INST. OF TECH., MATSUGASAKI, KYOTO, JAPAN
m/z	RELATIVE INTENSITY
77	2820
91	2240
104	1770
105	4420
232	2600
253	620
254	620
257	680
341	360
359	1140
435	360
464	9999
465	3740
466	720
