Mass Spectrum: Hydrazine, (2-methylpropyl)-
Formula: C4 H12 N2
CAS: 42504-87-0
Molecular weight: 88
Origin: ATLAS OF MASS SPECTRA OF ORGANIC COMPOUNDS, V. A. KOPTYUG, ED.
m/z	RELATIVE INTENSITY
26	100
27	870
28	1670
29	1200
30	670
31	1070
32	870
38	90
39	770
40	110
41	1200
42	330
43	530
44	410
45	9999
46	520
53	60
54	110
55	150
56	270
57	300
58	70
59	130
70	50
71	110
73	70
87	60
88	2800
89	460
