Mass Spectrum: 5-Dodecyne, 12-chloro-
Formula: C12 H21 Cl
CAS: 42513-36-0
Molecular weight: 200
Origin: NIST Mass Spectrometry Data Center, 1990.
m/z	RELATIVE INTENSITY
27	1787
28	109
29	977
39	2571
40	758
41	5816
42	572
43	1286
49	355
50	339
51	1156
52	1497
53	3009
54	9069
55	4772
56	383
57	142
62	119
63	674
65	1792
66	888
67	9999
68	2257
69	1343
75	214
77	1801
78	502
79	3009
80	1015
81	8923
82	2058
83	304
89	157
91	1265
92	239
93	1238
94	157
95	4111
96	1086
97	307
102	97
103	127
104	85
105	272
106	82
107	642
108	153
109	903
110	216
115	134
116	178
117	103
121	192
122	130
123	534
128	72
129	484
130	738
131	260
132	241
137	350
138	140
143	549
144	205
145	189
151	76
157	317
158	143
159	124
171	123
