Mass Spectrum: Methyltriacetoxysilane
Formula: C7 H12 O6 Si
CAS: 4253-34-3
Molecular weight: 220
Origin: NIST Mass Spectrometry Data Center
m/z	RELATIVE INTENSITY
13	10
14	150
15	891
16	10
18	40
27	70
28	120
31	20
41	30
42	811
43	3813
44	150
45	1021
46	100
47	70
55	30
57	40
58	40
59	320
60	90
61	250
62	280
63	450
64	40
74	120
76	1191
77	5155
78	430
79	1882
80	110
81	70
90	70
92	50
93	150
102	30
103	140
104	80
119	9999
120	1101
121	4564
122	310
123	190
135	120
136	150
137	40
160	1301
161	3964
162	530
163	1351
164	100
165	80
178	140
205	140
