Mass Spectrum: Disulfide, bis(1-methylethyl)
Formula: C6 H14 S2
CAS: 4253-89-8
Molecular weight: 150
Origin: Japan AIST/NIMC Database- Spectrum MS-NW-9721
m/z	RELATIVE INTENSITY
15	20
26	20
27	939
28	70
29	30
32	30
33	10
34	20
35	10
37	20
38	50
39	729
40	99
41	2639
42	239
43	9999
44	489
45	239
46	40
47	189
49	50
57	20
58	109
59	629
60	99
61	70
64	159
65	50
66	1759
67	30
68	149
69	10
71	20
73	189
74	409
75	179
76	60
77	10
78	10
79	30
92	10
93	269
94	10
95	20
106	10
107	119
108	7269
109	409
110	659
111	30
112	10
135	10
150	7739
151	699
152	709
153	50
154	20
