Mass Spectrum: R-(-)-1,2-propanediol
Formula: C3 H8 O2
CAS: 4254-14-2
Molecular weight: 76
Origin: NIST Mass Spectrometry Data Center, 1994
m/z	RELATIVE INTENSITY
12	40
13	49
14	201
15	646
16	44
17	39
18	123
19	804
25	50
26	196
27	1011
28	796
29	1747
30	257
31	629
32	107
33	197
37	52
38	83
39	179
40	67
41	69
42	341
43	1978
44	806
45	9999
46	250
47	39
53	25
55	61
57	212
58	70
60	39
61	592
75	32
76	63
