Mass Spectrum: Aletamine
Formula: C11 H15 N
CAS: 4255-23-6
Molecular weight: 161
Origin: Finnigan MAT: Toxicological Library (LIBR-TX)
m/z	RELATIVE INTENSITY
41	399
42	279
43	1123
51	189
59	105
60	195
65	397
70	9999
71	409
77	295
91	979
92	216
93	104
103	388
118	99
119	98
120	3170
121	213
