Mass Spectrum: Silane, [[(3.alpha.,5.beta.)-pregn-20-ene-3,17,20,21-tetrayl]tetrakis(oxy)]tetrakis[trimethyl-
Formula: C33 H66 O4 Si4
CAS: 42599-94-0
Molecular weight: 638
m/z	RELATIVE INTENSITY
71	571
72	487
73	9999
74	1100
75	4178
76	515
77	849
145	348
146	376
147	3537
148	696
149	599
169	2033
170	418
331	4429
332	1629
333	822
334	390
548	1086
549	543
550	320
638	1657
639	1072
640	599
641	306
