Mass Spectrum: Propanoic acid, pentafluoro-, ethyl ester
Formula: C5 H5 F5 O2
CAS: 426-65-3
Molecular weight: 192
Origin: Japan AIST/NIMC Database- Spectrum MS-NW-6102
m/z	RELATIVE INTENSITY
13	10
14	70
15	249
16	10
18	20
19	10
20	20
25	10
26	239
27	2079
28	799
29	9999
30	219
31	369
32	30
33	209
41	10
42	40
43	169
44	50
45	109
46	10
47	119
50	159
51	50
59	20
62	10
65	10
67	10
69	979
70	10
71	10
73	40
78	30
81	40
93	10
95	70
97	70
99	10
100	199
101	10
109	10
117	40
119	1629
120	40
128	30
145	20
147	399
148	20
149	229
150	10
163	70
165	20
177	109
191	40
