Mass Spectrum: Chromate(1-), (.eta.7-cycloheptatrienylium)(.eta.5-2,4-cyclopentadien-1-yl)-
Formula: C12 H12 Cr
CAS: 42612-76-0
Molecular weight: 208
Origin: R.B.KING UNIVERSITY OF GEORGIA, ATHENS, GEORGIA, USA
m/z	RELATIVE INTENSITY
39	640
52	9999
65	640
66	320
76	50
77	430
78	570
91	3000
117	3400
129	360
130	180
141	100
143	210
182	820
208	9999
