Mass Spectrum: Benzofuran-2-carboxaldehyde
Formula: C9 H6 O2
CAS: 4265-16-1
Molecular weight: 146
Origin: NIST Mass Spectrometry Data Center
m/z	RELATIVE INTENSITY
13	20
14	20
18	40
25	40
26	180
27	140
28	250
29	1071
31	20
32	20
36	40
37	440
38	771
39	1822
40	170
41	30
42	20
43	200
45	160
48	50
49	170
50	911
51	611
52	60
53	220
55	20
59	230
60	80
61	671
62	1802
63	3653
64	741
65	50
66	50
73	110
74	330
75	170
76	60
77	70
84	60
85	220
86	460
87	410
88	340
89	6816
90	2092
91	140
98	20
101	130
102	30
116	30
117	90
118	1201
119	90
145	9068
146	9999
147	901
148	60
