Mass Spectrum: 4-Amino-9-fluorenone
Formula: C13 H9 N O
CAS: 4269-15-2
Molecular weight: 195
Origin: J.E. WILKINSON S-CUBED, SAN DIEGO, CA.
m/z	RELATIVE INTENSITY
40	85
42	11
43	5
44	9
45	1
49	12
50	277
51	335
52	246
53	58
54	45
55	57
56	87
57	154
58	17
61	92
62	369
63	687
64	140
65	150
66	13
67	8
69	1039
70	458
71	56
73	25
74	332
75	303
76	187
77	154
78	37
79	1
83	376
84	1329
85	81
86	275
87	357
88	253
89	327
90	60
91	13
98	632
99	115
100	72
101	64
102	64
103	4
104	1
109	20
110	80
111	95
112	54
113	426
114	297
115	299
116	66
117	12
121	1
122	18
123	9
124	6
125	23
126	74
127	52
128	39
129	2
133	1
134	4
135	3
136	1
137	159
138	244
139	2509
140	1176
141	171
142	6
149	5
150	82
151	33
152	8
153	1
155	1
163	1
164	263
165	114
166	2567
167	3773
168	559
169	30
176	1
177	8
178	1
193	2
194	213
195	9999
196	1484
197	106
198	2
