Mass Spectrum: Desomorphine
Formula: C17 H21 N O2
CAS: 427-00-9
Molecular weight: 271
Origin: Patti Price, Georgia Bureau of Investigation, Decatur, Georgia
m/z	RELATIVE INTENSITY
42	1151
44	590
50	70
51	280
52	110
53	210
54	80
55	410
56	150
57	200
58	230
59	580
60	60
62	40
63	290
64	80
65	420
66	130
67	350
68	170
69	70
70	990
71	110
72	120
74	30
75	80
76	150
77	760
78	270
79	330
80	130
81	180
82	510
83	250
84	200
85	30
86	40
87	30
88	40
89	230
90	90
91	800
92	160
93	150
94	410
95	140
96	250
97	90
98	100
99	80
100	70
101	90
102	200
103	350
104	130
105	230
106	80
107	190
108	230
109	90
110	280
111	50
113	90
115	1481
116	350
117	240
118	150
119	70
120	330
121	240
122	150
123	220
125	20
126	80
127	660
128	990
129	430
130	180
131	630
132	270
133	80
134	450
135	250
136	250
137	90
138	20
139	260
140	100
141	490
142	140
143	250
144	370
145	240
146	510
147	500
148	1931
149	270
150	150
151	130
152	560
153	440
154	170
155	300
156	130
157	470
158	230
159	240
160	270
161	440
162	190
163	130
164	160
165	490
166	190
167	440
168	250
169	290
170	180
171	930
172	330
173	480
174	410
175	140
176	350
177	160
178	80
179	60
180	30
181	430
182	200
183	170
184	290
185	550
186	620
187	410
188	150
189	60
190	110
191	40
192	30
193	70
194	110
195	660
196	270
197	510
198	310
199	700
200	520
201	300
202	400
203	140
204	90
206	10
207	30
209	40
210	110
211	260
212	640
213	1161
214	3252
215	1111
216	360
217	70
221	20
223	70
224	70
225	90
226	320
227	240
228	1871
229	350
230	200
231	30
232	10
238	30
239	60
240	230
241	100
242	860
243	410
244	40
253	20
254	1211
255	250
256	1671
257	280
258	10
268	60
270	4684
271	9999
272	1891
273	220
274	10
