Mass Spectrum: 6-Chlorouracil
Formula: C4 H3 Cl N2 O2
CAS: 4270-27-3
Molecular weight: 146
Origin: NIST Mass Spectrometry Data Center, 1994
m/z	RELATIVE INTENSITY
24	61
25	93
26	115
27	364
35	167
36	92
37	103
38	690
39	1156
40	2768
41	291
42	296
43	629
44	281
47	290
48	254
49	118
50	130
51	93
52	89
53	115
54	89
60	294
61	4
62	511
63	97
64	142
65	69
66	62
67	600
68	9999
69	377
70	274
73	51
74	420
76	163
87	49
90	75
103	1512
104	175
111	144
146	3170
147	198
148	1116
149	61
