Mass Spectrum: 1-Dodecanamine, N,N-diethyl-
Formula: C16 H35 N
CAS: 4271-27-6
Molecular weight: 241
Origin: CARL DJERASSI DEPT OF CHEM STANFORD UNIV STANFORD CALIF 94305
m/z	RELATIVE INTENSITY
15	100
18	100
19	100
27	100
28	100
29	200
30	300
31	100
41	300
42	200
43	300
44	100
45	100
46	100
55	200
56	200
57	200
58	400
59	100
69	100
70	100
71	100
72	400
73	100
83	100
84	100
85	100
86	9999
87	600
98	100
99	100
100	100
112	100
113	100
114	100
126	100
128	100
129	100
140	100
142	100
154	100
156	100
168	100
170	100
184	100
199	100
212	100
213	100
225	100
226	600
227	100
240	100
241	200
