Mass Spectrum: 3-Pyridinol, 2-(methylthio)-, acetate (ester)
Formula: C8 H9 N O2 S
CAS: 42715-30-0
Molecular weight: 183
Origin: K. UNDHEIM
m/z	RELATIVE INTENSITY
39	2600
43	3900
44	500
45	500
65	300
67	600
68	500
70	300
79	300
80	500
95	700
96	400
108	7000
109	500
140	1500
141	9999
142	800
143	500
183	2500
184	200
