Mass Spectrum: Undecanol-4
Formula: C11 H24 O
CAS: 4272-06-4
Molecular weight: 172
Origin: Japan AIST/NIMC Database- Spectrum MS-NW-3854
m/z	RELATIVE INTENSITY
15	60
17	20
18	70
26	40
27	1179
28	169
29	1449
30	50
31	719
32	30
38	20
39	589
40	109
41	2589
42	649
43	3709
44	489
45	289
46	10
50	10
51	30
52	20
53	189
54	159
55	9999
56	1189
57	1279
58	269
59	90
65	30
66	40
67	259
68	169
69	8309
70	949
71	349
72	829
73	8229
74	389
75	20
77	20
79	20
81	99
82	139
83	829
84	379
85	159
86	119
87	40
95	40
96	50
97	239
98	159
99	70
100	20
109	20
110	99
111	2339
112	259
113	20
124	10
125	60
126	60
127	99
128	70
129	2109
130	189
131	10
154	359
155	40
170	10
171	40
