Mass Spectrum: Ethanol, 2,2'-thiobis-, diacetate
Formula: C8 H14 O4 S
CAS: 4275-28-9
Molecular weight: 206
Origin: A.A.Kutin, Moscow, Russia
m/z	RELATIVE INTENSITY
26	200
27	380
29	200
41	120
42	581
43	8978
44	641
45	1051
46	581
47	190
57	80
58	420
59	781
60	1041
61	811
62	60
73	761
74	601
75	120
76	60
77	320
84	60
85	3043
86	9999
87	3363
88	671
89	60
91	410
102	120
103	801
104	80
116	140
119	70
133	90
146	3473
147	380
148	170
