Mass Spectrum: 3-Isopropylcyclopentene
Formula: C8 H14
CAS: 4276-45-3
Molecular weight: 110
Origin: B. Derendyaev, Novosibirsk Institute of Organic Chemistry
m/z	RELATIVE INTENSITY
15	10
25	10
26	50
27	639
28	229
29	159
30	10
31	10
32	20
37	20
38	60
39	1049
40	229
41	1779
42	149
43	429
44	50
45	30
46	10
50	50
51	149
52	70
53	279
54	80
55	249
56	70
57	20
59	10
62	20
63	70
64	20
65	609
66	2099
67	9999
68	999
69	449
70	40
71	10
75	10
77	249
78	60
79	179
80	40
81	159
82	129
83	60
84	10
89	10
91	169
92	20
93	179
94	30
95	429
96	40
97	10
105	10
107	10
108	40
109	90
110	1019
111	90
