Mass Spectrum: 1-(2-Hydroxyphenyl)-3-phenyl-1-propanone
Formula: C15 H14 O2
CAS: 42772-82-7
Molecular weight: 226
Origin: Japan AIST/NIMC Database- Spectrum MS-IW- 560
m/z	RELATIVE INTENSITY
14	40
16	10
17	10
18	30
26	10
27	139
28	99
29	10
38	50
39	709
40	40
41	50
42	10
43	30
44	10
50	90
51	269
52	60
53	99
55	50
61	10
62	50
63	209
64	119
65	1469
66	109
67	10
69	10
74	30
75	60
76	119
77	529
78	189
79	209
80	10
82	10
87	10
88	10
89	139
90	40
91	1269
92	249
93	1089
94	179
95	50
97	10
101	20
102	80
103	319
104	439
105	359
106	30
107	119
108	10
113	50
115	90
116	10
118	20
119	30
120	159
121	9999
122	819
123	80
126	10
127	10
128	20
129	10
130	60
131	769
132	90
133	20
134	20
135	30
136	10
139	20
141	10
146	10
147	179
148	20
149	20
150	10
151	30
152	70
153	30
155	10
163	10
164	20
165	179
166	30
167	10
168	10
176	40
177	40
178	199
179	209
180	109
181	90
182	10
183	30
184	10
189	90
190	30
191	30
192	10
193	30
194	50
195	20
197	20
198	10
205	30
206	30
207	2859
208	4209
209	719
210	90
211	10
221	279
222	189
223	169
224	109
225	179
226	2909
227	489
228	50
