Mass Spectrum: 1H-1,2,4-Triazol-3-amine, 1-ethyl-
Formula: C4 H8 N4
CAS: 42786-04-9
Molecular weight: 112
Origin: ORMSBG,10(11)946(1975); R.G.COOKS
m/z	RELATIVE INTENSITY
26	500
27	4100
28	5100
29	2300
41	900
42	1600
43	3000
55	1400
57	2100
70	4600
84	6600
85	300
97	3700
112	9999
113	600
