Mass Spectrum: 4H-1,2,4-Triazol-3-amine, 4-ethyl-
Formula: C4 H8 N4
CAS: 42786-06-1
Molecular weight: 112
Origin: ORMSBG,10(11)946(1975); R.G.COOKS
m/z	RELATIVE INTENSITY
26	300
27	1510
28	6790
29	380
30	180
39	120
40	210
41	380
42	1040
43	2110
53	240
54	250
55	600
56	1090
57	310
69	220
70	290
84	2980
85	180
97	150
111	200
112	9999
113	1020
