Mass Spectrum: Butane, 2,2-dichloro-
Formula: C4 H8 Cl2
CAS: 4279-22-5
Molecular weight: 126
Origin: GAZ DE FRANCE, DELORME, PARIS, FRANCE
m/z	RELATIVE INTENSITY
24	10
25	90
26	870
27	3820
28	800
29	2500
30	50
35	230
36	550
37	310
38	540
39	2460
40	230
41	1020
42	140
43	1210
44	60
45	20
47	70
48	50
49	630
50	460
51	670
52	160
53	960
54	290
55	7240
56	420
57	90
58	10
59	20
60	120
61	1370
62	500
63	1590
64	170
65	360
66	10
67	10
69	50
70	50
71	30
72	30
73	120
74	20
75	1360
76	140
77	420
78	160
79	10
82	20
83	150
84	20
85	100
86	10
87	20
88	10
89	110
90	490
91	9999
92	600
93	3200
94	140
95	20
96	1200
97	5070
98	850
99	3170
100	190
101	510
102	10
110	30
111	360
112	30
113	230
114	10
115	40
