Mass Spectrum: 2,5-Furandicarboxylic acid, dimethyl ester
Formula: C8 H8 O5
CAS: 4282-32-0
Molecular weight: 184
Origin: Japan AIST/NIMC Database- Spectrum MS-IW-1114
m/z	RELATIVE INTENSITY
15	369
26	30
27	119
28	119
29	40
30	10
31	10
33	30
37	80
38	379
39	129
41	10
43	20
44	10
50	10
51	20
53	129
54	80
55	10
59	439
61	99
65	40
66	199
67	40
68	30
69	259
70	10
81	10
82	70
85	10
93	40
94	179
95	609
96	40
97	40
98	10
108	20
113	40
122	40
123	30
125	329
126	449
127	30
139	149
140	20
153	9999
154	1259
155	149
156	10
184	5189
185	479
186	70
