Mass Spectrum: Propane, 2,2'-[ethylidenebis(oxy)]bis-
Formula: C8 H18 O2
CAS: 4285-59-0
Molecular weight: 146
Origin: D.HENNEBERG, MAX-PLANCK INSTITUTE, MULHEIM, WEST GERMANY
m/z	RELATIVE INTENSITY
26	28
27	437
28	48
29	118
30	4
31	117
37	67
38	10
39	153
40	55
41	766
42	363
43	4508
44	395
45	9999
46	211
47	263
55	12
56	10
57	17
58	237
59	454
60	20
61	402
62	12
63	5
68	40
69	633
70	42
71	16
72	3
73	4
74	5
77	3
85	7
86	106
87	4172
88	237
89	1079
90	50
91	4
103	43
104	3
131	824
132	60
145	13
