Mass Spectrum: Carbamic chloride, methylphenyl-
Formula: C8 H8 Cl N O
CAS: 4285-42-1
Molecular weight: 169
Origin: RADIAN CORP
m/z	RELATIVE INTENSITY
15	570
26	110
27	460
30	110
35	50
37	330
38	810
39	1890
41	90
42	80
49	110
50	1530
51	2960
52	830
53	80
56	70
61	70
62	320
63	2290
64	1030
65	1210
66	120
67	80
73	60
74	460
75	340
76	630
77	8300
78	1280
79	1660
80	30
90	190
91	760
93	260
104	990
105	400
106	4890
119	990
134	9999
135	900
169	2550
170	190
171	850
