Mass Spectrum: 2-Propanol, 1-chloro-3-(1-methylethoxy)-
Formula: C6 H13 Cl O2
CAS: 4288-84-0
Molecular weight: 152
Origin: Japan AIST/NIMC Database- Spectrum MS-NW-7714
m/z	RELATIVE INTENSITY
14	40
15	559
16	10
17	10
18	40
26	90
27	1259
28	159
29	1309
30	40
31	819
32	20
33	30
35	10
36	99
37	20
38	50
39	549
40	109
41	1949
42	549
43	9999
44	4949
45	2159
46	70
47	10
48	10
49	209
50	20
51	70
52	10
55	309
56	30
57	939
58	649
59	589
60	50
61	2929
62	80
63	80
65	50
67	20
68	10
69	10
71	30
72	40
73	6119
74	379
75	80
76	10
77	30
78	60
79	609
80	40
81	209
85	329
86	239
87	30
91	30
92	40
93	829
94	40
95	279
99	30
101	10
103	139
104	10
109	40
110	10
111	20
116	269
117	20
121	50
123	20
135	10
137	90
139	30
