Mass Spectrum: Benzo[b]benzo[3,4]cyclobuta[1,2-e][1,4]dioxin, 4b,10a-dihydro-
Formula: C14 H10 O2
CAS: 42896-18-4
Molecular weight: 210
Origin: ASES Database, Dalian Institute, P.R. China
m/z	RELATIVE INTENSITY
101	150
102	7126
103	660
104	310
105	570
127	210
128	110
151	410
152	1451
153	1411
154	420
155	140
164	110
165	410
166	110
181	9999
182	1871
183	210
209	1000
210	9258
211	1591
212	210
