Mass Spectrum: Tetrabutylammonium tetrafluoroborate
Formula: C16 H36 B F4 N
CAS: 429-42-5
Molecular weight: 329
Origin: Japan AIST/NIMC Database- Spectrum MS-NW-8270
m/z	RELATIVE INTENSITY
15	40
20	80
25	10
26	109
27	549
28	779
29	1529
30	809
31	10
32	10
33	10
37	10
38	30
39	379
40	70
41	1889
42	659
43	619
44	989
45	30
46	10
47	30
48	159
49	629
50	30
51	30
52	10
53	80
54	60
55	529
56	609
57	1029
58	609
59	40
61	10
67	30
68	70
69	50
70	199
71	50
72	169
73	10
79	10
80	10
81	10
82	40
83	20
84	369
85	30
86	319
87	20
96	30
97	10
98	579
99	60
100	3409
101	239
110	10
112	80
113	10
114	80
124	10
126	50
128	169
129	30
138	20
140	229
141	30
142	9999
143	1049
144	50
154	20
156	70
157	40
160	10
168	40
170	10
181	10
182	20
183	20
184	3039
185	1209
186	149
187	10
212	20
226	30
232	10
240	60
241	20
242	1089
243	199
244	10
246	20
260	10
