Mass Spectrum: trans, cis-2-Methyl-1-thiadecalin
Formula: C10 H18 S
CAS: 42900-29-8
Molecular weight: 170
Origin: V.G.Zaikin, TIPS, Russian Acad. Sci.
m/z	RELATIVE INTENSITY
39	5585
40	820
41	9558
42	800
43	650
44	380
45	3453
46	270
47	1351
49	110
50	390
51	950
52	470
53	2762
54	1281
55	4203
56	310
57	280
58	810
59	2282
60	1371
61	2161
62	230
63	350
64	110
65	1221
66	730
67	6325
68	1611
69	1080
70	110
71	1000
72	310
73	1030
74	2472
75	1361
76	240
77	1861
78	650
79	4744
80	1781
81	5985
82	750
83	190
84	210
85	1050
86	450
87	1311
88	350
89	260
91	1020
92	200
93	3002
94	2452
95	3202
96	1050
97	940
98	200
99	940
100	400
101	4423
102	430
103	290
104	80
105	110
107	1611
108	2001
109	1271
110	450
111	150
112	100
113	1351
114	1141
115	990
116	150
117	430
121	1661
122	190
124	170
125	80
126	160
127	9548
128	2212
129	650
130	50
136	520
137	380
140	130
141	3292
142	540
143	190
154	130
155	3773
156	490
157	220
168	170
169	450
170	9999
171	1200
172	500
173	50
