Mass Spectrum: Cyclohexane, 1-methyl-3-propyl-
Formula: C10 H20
CAS: 4291-80-9
Molecular weight: 140
Origin: D.HENNEBERG, MAX-PLANCK INSTITUTE, MULHEIM, WEST GERMANY
m/z	RELATIVE INTENSITY
23	4
26	38
27	751
28	165
29	929
30	26
31	39
33	6
36	5
38	27
39	786
40	35
41	2311
42	606
43	925
45	7
46	13
47	15
48	4
49	31
50	19
51	75
52	24
53	295
54	319
55	9999
56	1182
57	495
58	29
59	3
62	5
63	19
64	16
65	49
66	61
67	447
68	258
69	1592
70	324
71	49
72	4
74	4
75	8
76	4
77	78
78	14
79	65
80	19
81	688
82	409
83	1085
84	136
85	15
91	30
94	13
95	104
96	1586
97	8259
98	717
99	31
105	8
109	12
111	40
112	17
125	78
126	63
139	4
140	701
141	92
