Mass Spectrum: Cyclopentene, 1-pentyl-
Formula: C10 H18
CAS: 4291-98-9
Molecular weight: 138
Origin: S.A. Rang et al., IR & MS of Unsatd. Hydrocarbons, 1977
m/z	RELATIVE INTENSITY
15	20
16	2
25	7
26	53
27	892
28	478
29	892
30	20
31	11
37	7
38	27
39	991
40	195
41	2130
42	195
43	354
44	29
45	10
50	42
51	187
52	144
53	885
54	531
55	1062
56	115
57	134
58	21
59	6
60	2
62	7
63	39
64	15
65	354
66	694
67	9999
68	941
69	230
70	81
71	62
72	9
73	3
74	4
75	15
76	7
77	545
78	134
79	1239
80	644
81	1932
82	2778
83	743
84	106
85	27
86	6
89	6
90	2
91	159
92	27
93	230
94	91
95	1585
96	336
97	177
98	35
99	18
100	4
101	4
103	8
104	3
105	15
106	5
107	29
108	17
109	159
110	77
111	32
112	12
113	6
114	5
115	5
116	3
117	5
119	5
121	20
122	4
123	27
124	9
134	3
135	8
136	100
137	29
138	1635
139	206
140	12
