Mass Spectrum: Cyclopentene,1-heptyl-
Formula: C12 H22
CAS: 4292-00-6
Molecular weight: 166
Origin: S.A. Rang et al., IR & MS of Unsatd. Hydrocarbons, 1977
m/z	RELATIVE INTENSITY
15	32
25	8
26	59
27	1046
28	214
29	1395
30	34
31	91
37	5
38	22
39	938
40	209
41	3293
42	337
43	1356
44	28
45	32
50	26
51	129
52	143
53	1007
54	571
55	1317
56	270
57	249
58	14
59	40
63	25
64	11
65	367
66	806
67	9999
68	1162
69	969
70	79
71	21
74	23
75	17
76	5
77	530
78	133
79	1472
80	510
81	2286
82	5281
83	1395
84	153
85	48
91	189
92	31
93	204
94	219
95	2054
96	398
97	94
98	39
103	6
105	17
106	6
107	19
108	19
109	311
110	204
111	28
115	5
121	11
122	14
123	255
124	114
125	14
136	5
137	100
138	73
139	8
166	1201
167	163
168	11
