Mass Spectrum: 4-Ethyl-2-methylthiazoline
Formula: C6 H11 N S
CAS: 4293-61-2
Molecular weight: 129
Origin: Japan AIST/NIMC Database- Spectrum MS-NW-3141
m/z	RELATIVE INTENSITY
14	50
15	529
16	10
17	20
18	109
25	20
26	349
27	1959
28	629
29	999
30	40
32	189
33	50
34	50
35	20
36	10
37	90
38	219
39	1809
40	399
41	1699
42	4499
43	329
44	159
45	2499
46	4159
47	1819
48	219
49	90
50	129
51	219
52	209
53	649
54	5629
55	9999
56	789
57	259
58	1289
59	5949
60	6779
61	479
62	299
63	40
64	30
65	60
66	40
67	50
68	4589
69	229
70	70
71	1109
72	219
73	2479
74	159
75	119
76	70
77	10
78	10
80	20
81	30
82	1239
83	1629
84	139
85	779
86	379
87	499
88	8889
89	519
90	419
91	419
92	309
93	30
94	20
96	60
97	10
98	10
99	289
100	5229
101	879
102	269
103	40
106	10
112	359
113	50
114	80
115	10
125	10
126	969
127	1379
128	189
129	6409
130	499
131	299
132	20
