Mass Spectrum: Urea, heptyl-
Formula: C8 H18 N2 O
CAS: 42955-46-4
Molecular weight: 158
Origin: J.E. WILKINSON S-CUBED, SAN DIEGO, CA.
m/z	RELATIVE INTENSITY
41	3769
42	1364
43	3672
44	5866
45	394
53	12
54	6
55	1491
56	879
57	115
58	206
60	91
61	1770
69	79
70	36
72	6
73	9999
74	4709
87	1285
88	394
99	12
101	988
102	224
115	1109
116	6
129	67
158	370
