Mass Spectrum: 5-Acetyl-2-methylpyridine
Formula: C8 H9 N O
CAS: 42972-46-3
Molecular weight: 135
Origin: Philip Morris R&D
m/z	RELATIVE INTENSITY
37	28
38	122
39	653
40	56
41	25
42	180
43	881
44	44
45	1
46	93
47	1
49	13
50	267
51	365
52	112
53	156
54	1
55	8
57	1
60	40
61	45
62	107
63	266
64	263
65	1719
66	276
67	25
73	22
74	20
75	9
76	27
77	115
78	116
79	27
80	20
81	1
86	16
87	15
89	37
90	15
91	94
92	5588
93	716
94	25
105	4
106	42
107	4
116	1
118	3
119	26
120	9999
121	784
122	45
133	9
134	3
135	6581
136	631
137	5
