Mass Spectrum: 1,2-Dichloro-1-fluoroethylene
Formula: C2 H Cl2 F
CAS: 430-58-0
Molecular weight: 114
Origin: T.J. Bruno, Cent. Chem. Technol., NIST, Boulder, CO 80303, USA
m/z	RELATIVE INTENSITY
19	100
20	124
24	559
25	1144
31	1967
35	1545
36	211
37	508
38	64
43	355
44	4819
45	94
47	1304
48	916
49	448
50	294
51	3
57	157
58	107
59	425
60	1100
61	157
62	351
63	3
66	321
67	298
68	104
69	97
70	10
72	3
76	3
78	1515
79	7485
80	679
81	2428
82	94
83	763
84	17
85	498
94	127
95	314
96	94
97	201
98	13
114	9999
115	17
116	6582
117	164
118	1017
119	27
