Mass Spectrum: N-(2-Cyanoethyl)-pyrrole
Formula: C7 H8 N2
CAS: 43036-06-2
Molecular weight: 120
Origin: Japan AIST/NIMC Database- Spectrum MS-NW-8543
m/z	RELATIVE INTENSITY
14	20
15	30
25	10
26	269
27	1029
28	769
29	20
30	10
36	10
37	189
38	469
39	1279
40	579
41	569
42	70
49	40
50	309
51	629
52	649
53	3479
54	449
55	10
59	10
60	10
62	20
63	70
64	139
65	349
66	339
67	739
68	60
75	10
76	30
77	20
78	769
79	209
80	9999
81	599
82	10
90	10
91	50
92	649
93	149
94	30
103	10
105	40
118	40
119	209
120	5099
121	449
122	10
