Mass Spectrum: Thietane, 2,4-dimethyl-
Formula: C5 H10 S
CAS: 43044-24-2
Molecular weight: 102
Origin: CARL DJERASSI DEPT OF CHEM STANFORD UNIV STANFORD CALIF 94305
m/z	RELATIVE INTENSITY
41	606
42	101
44	101
45	909
47	101
53	202
55	101
58	101
59	909
60	9999
61	909
62	202
67	101
69	303
85	101
87	303
102	1919
103	101
104	101
