Mass Spectrum: 4-Chlorobenzoic acid, 2-phenylethyl ester
Formula: C15 H13 Cl O2
CAS: 43047-95-6
Molecular weight: 260
Origin: V.Zaikin,Topchiev Inst.Petrochem.Synth.,Moscow
m/z	RELATIVE INTENSITY
26	40
27	50
28	20
29	40
36	70
39	120
40	60
41	40
50	240
51	290
52	80
63	100
64	30
65	280
74	140
75	751
76	290
77	540
78	410
79	180
85	80
89	100
90	50
91	781
92	90
102	90
103	681
104	9999
105	2162
106	100
110	60
111	2793
112	240
113	831
114	70
130	40
139	7527
140	550
141	2422
142	170
156	90
165	40
