Mass Spectrum: .gamma.-Chloro-2-butyrothienone
Formula: C8 H9 Cl O S
CAS: 43076-59-1
Molecular weight: 188
Origin: NIST Mass Spectrometry Data Center
m/z	RELATIVE INTENSITY
13	10
14	40
15	120
17	10
25	40
26	250
27	801
28	150
29	30
32	20
33	10
34	10
35	40
36	70
37	260
38	751
39	4624
40	270
41	1091
42	200
43	40
45	851
46	30
47	70
49	520
50	280
51	340
53	310
55	150
57	691
58	240
59	30
60	30
61	90
62	130
63	140
64	30
65	60
66	30
67	30
68	40
69	210
70	40
71	40
72	10
73	20
74	20
75	50
76	50
77	160
78	50
79	70
81	200
82	290
83	971
84	300
85	70
86	20
89	20
91	20
92	10
93	30
94	10
95	30
96	40
97	210
98	30
99	10
104	10
105	30
106	10
107	20
108	20
111	9999
112	661
113	490
114	30
121	70
122	40
123	80
126	3703
127	290
128	150
129	10
133	20
135	10
139	10
151	80
152	200
153	50
154	10
188	510
189	60
190	180
191	10
192	10
