Mass Spectrum: Ethyl 2-amino-4-methylthiophene-3-carboxylate
Formula: C8 H11 N O2 S
CAS: 43088-42-2
Molecular weight: 185
Origin: NIST Mass Spectrometry Data Center, 1994
m/z	RELATIVE INTENSITY
15	336
16	12
18	52
19	37
26	267
27	1276
28	891
29	1268
30	114
31	57
32	2
37	124
38	385
39	1509
40	265
41	578
42	334
43	157
44	120
45	1632
46	353
47	135
49	36
50	138
51	357
52	405
53	378
54	175
55	42
56	45
57	71
58	152
59	140
60	282
61	57
62	37
63	38
64	85
65	295
66	2359
67	671
68	1212
69	401
70	180
71	274
72	291
73	61
75	30
76	51
77	34
78	279
79	79
80	78
81	59
82	58
83	174
84	443
85	386
86	65
87	25
93	31
94	136
95	85
96	93
97	50
99	24
100	37
106	39
110	480
111	2581
112	535
113	223
114	25
122	23
124	41
128	29
139	9999
140	1879
141	574
142	75
156	71
157	55
185	2916
186	292
187	143
188	11
