Mass Spectrum: 2-Propanone, 1,1,1,3,3-pentafluoro-
Formula: C3 H F5 O
CAS: 431-71-0
Molecular weight: 148
Origin: J.B.HYNES HYNES CHEM. RES. CORP., DURHAM, N. C., USA
m/z	RELATIVE INTENSITY
12	210
13	260
29	1260
31	1480
32	1020
50	1080
51	9999
59	320
69	4820
78	860
79	4190
97	490
100	110
101	1040
148	140
