Mass Spectrum: 1,1,1,2,3,3-Hexafluoropropane
Formula: C3 H2 F6
CAS: 431-63-0
Molecular weight: 152
Origin: Thomas J.Bruno
m/z	RELATIVE INTENSITY
31	7306
32	2051
33	3393
51	9999
52	450
64	4243
69	9408
82	9008
83	1341
113	590
133	3653
134	110
150	60
151	50
