Mass Spectrum: Propene, 1,2-dichloro-3,3,3-trifluoro-
Formula: C3 H Cl2 F3
CAS: 431-27-6
Molecular weight: 164
m/z	RELATIVE INTENSITY
12	20
24	40
25	170
26	10
27	20
28	150
29	10
31	731
32	40
35	220
36	80
37	110
38	20
39	10
43	30
44	160
45	100
46	20
47	230
48	100
50	150
51	130
55	250
56	210
59	130
60	821
61	90
62	280
63	30
64	10
65	380
66	50
67	220
68	20
69	3273
70	40
71	20
72	20
73	30
74	210
75	1041
76	30
77	10
78	60
79	150
80	30
81	30
82	40
83	70
84	20
85	1692
86	20
87	550
90	40
91	30
92	20
93	370
94	150
95	1151
96	70
97	741
98	100
99	120
100	30
101	40
103	20
109	440
110	20
111	180
112	10
113	20
114	941
115	30
116	621
117	10
118	100
128	30
129	9999
130	340
131	3383
132	120
133	70
145	1291
146	60
147	831
148	30
149	140
150	10
163	30
164	4924
165	170
166	3113
167	100
168	490
169	20
