Mass Spectrum: 1-Octen-3-one
Formula: C8 H14 O
CAS: 4312-99-6
Molecular weight: 126
Origin: FOOD RESEARCH REPORT 122, K.E. MURRAY & COLLEAGUES, DIV OF FOOD RESEARCH, CSIRO, AUSTRALIA
m/z	RELATIVE INTENSITY
27	5300
28	900
29	1700
38	100
39	1300
40	200
41	1900
42	900
43	2800
44	200
53	200
54	100
55	9999
56	500
57	200
67	100
68	100
69	200
70	7800
71	800
72	100
79	100
82	100
83	800
84	200
97	300
98	100
99	100
111	100
126	30
