Mass Spectrum: Hydroperoxide, hexyl
Formula: C6 H14 O2
CAS: 4312-76-9
Molecular weight: 118
Origin: J.Polzer ET AL.J.Chromatogr.,653,283(1993)
m/z	RELATIVE INTENSITY
26	120
27	1651
28	671
29	4054
31	2112
32	571
39	3863
40	390
41	9048
42	4824
43	9999
44	2662
45	881
51	100
53	250
54	490
55	6126
56	9248
57	2752
67	490
69	2212
71	370
72	150
82	120
83	300
84	641
85	510
