Mass Spectrum: 2,4-Heptadienal, (E,E)-
Formula: C7 H10 O
CAS: 4313-03-5
Molecular weight: 110
Origin: Japan AIST/NIMC Database- Spectrum MS-IW-2339
m/z	RELATIVE INTENSITY
14	10
15	40
26	99
27	919
28	159
29	439
30	10
31	60
37	60
38	169
39	1649
40	449
41	1919
42	169
43	149
44	10
45	30
49	30
50	269
51	499
52	239
53	1909
54	369
55	519
56	90
57	169
58	30
59	119
61	30
62	70
63	139
64	30
65	529
66	379
67	1199
68	929
69	139
70	40
71	90
73	20
74	50
75	40
76	10
77	619
78	109
79	959
80	129
81	9999
82	739
83	119
84	20
85	20
91	249
92	40
93	50
94	70
95	549
96	60
105	40
106	20
107	50
108	20
109	359
110	2269
111	189
112	10
