Mass Spectrum: 1,4-Cyclohexadiene, 1-methyl-
Formula: C7 H10
CAS: 4313-57-9
Molecular weight: 94
Origin: NIST Mass Spectrometry Data Center, 1990.
m/z	RELATIVE INTENSITY
15	175
26	220
27	814
28	716
37	179
38	425
39	2128
40	324
41	398
45	151
46	112
50	674
51	1153
52	479
53	599
54	171
61	171
62	345
63	734
64	160
65	1134
66	462
67	161
77	6804
79	9999
80	641
91	4232
92	784
93	1251
94	5782
95	439
