Mass Spectrum: 2H-Thiopyran-3(4H)-one, dihydro-6-methyl-
Formula: C6 H10 O S
CAS: 43152-90-5
Molecular weight: 130
Origin: CARL DJERASSI DEPT OF CHEM STANFORD UNIV STANFORD CALIF 94305
m/z	RELATIVE INTENSITY
41	3800
42	2700
43	800
44	500
45	1800
46	2300
47	900
48	100
50	200
51	200
52	100
53	500
54	400
55	2500
56	5800
57	200
58	400
59	1000
60	2800
61	500
62	100
67	200
68	300
69	300
71	200
73	300
74	1200
75	9200
76	500
77	500
82	100
83	400
84	700
85	100
87	2400
88	200
89	100
101	300
102	300
115	200
116	200
125	100
126	100
128	100
130	9999
131	800
132	500
