Mass Spectrum: 2H-Pyran-3(4H)-one, dihydro-6-methyl-
Formula: C6 H10 O2
CAS: 43152-89-2
Molecular weight: 114
Origin: CARL DJERASSI DEPT OF CHEM STANFORD UNIV STANFORD CALIF 94305
m/z	RELATIVE INTENSITY
41	9100
42	7700
43	3700
44	200
45	200
50	200
51	200
52	100
53	400
54	300
55	2600
56	9999
57	900
58	200
59	6400
60	200
67	100
69	400
70	300
71	1200
72	100
83	300
84	2800
85	300
97	200
99	400
113	100
114	8200
115	700
