Mass Spectrum: 1-Hexene, 3,5,5-trimethyl-
Formula: C9 H18
CAS: 4316-65-8
Molecular weight: 126
Origin: Japan AIST/NIMC Database- Spectrum MS-NW-2204
m/z	RELATIVE INTENSITY
15	70
26	50
27	1039
28	99
29	1999
30	40
37	10
38	40
39	1079
40	149
41	3279
42	359
43	4449
44	139
46	10
50	50
51	119
52	50
53	429
54	159
55	5069
56	1529
57	9999
58	459
59	10
62	10
63	20
65	50
66	20
67	219
68	159
69	2699
70	4499
71	2599
72	139
77	50
78	10
79	60
80	10
81	70
82	20
83	339
84	119
85	10
91	20
93	10
95	109
96	10
97	50
98	119
99	10
109	10
110	10
111	499
112	50
126	10
