Mass Spectrum: Pyrimidine, 4,6-dichloro-5-nitro-
Formula: C4 H Cl2 N3 O2
CAS: 4316-93-2
Molecular weight: 193
Origin: Japan AIST/NIMC Database- Spectrum MS-NW-6744
m/z	RELATIVE INTENSITY
12	109
13	30
14	50
16	20
24	169
25	60
26	99
27	239
28	399
29	40
30	9159
31	40
32	10
35	359
36	249
37	129
38	1069
39	609
40	30
41	40
42	20
43	80
44	60
46	2049
47	2029
48	80
49	679
50	809
51	1359
52	149
53	99
54	119
55	20
56	30
57	50
59	289
60	80
61	269
62	269
63	149
64	169
65	99
66	10
67	20
68	10
69	20
70	30
71	119
72	10
73	619
74	969
75	309
76	659
77	459
78	30
81	10
82	10
84	10
85	6289
86	9999
87	2519
88	3179
89	639
90	60
91	169
92	20
94	40
95	10
96	30
97	10
98	10
99	20
100	99
101	40
102	2919
103	129
104	949
105	40
106	70
108	299
109	10
110	179
111	189
112	139
113	80
114	40
115	10
116	119
117	10
118	50
120	4029
121	149
122	2599
123	119
124	439
125	20
127	10
128	10
134	10
135	3089
136	149
137	1929
138	99
139	339
140	20
147	1879
148	109
149	1179
150	70
151	209
152	20
163	309
164	20
165	199
166	10
167	40
177	159
178	10
179	99
181	20
193	8969
194	549
195	5909
196	369
197	949
198	70
