Mass Spectrum: Amitriptylinoxide
Formula: C20 H23 N O
CAS: 4317-14-0
Molecular weight: 293
Origin: AAFS Toxicology Section MS DB Committee, U. Alberta, Canada
m/z	RELATIVE INTENSITY
41	50
42	580
43	220
44	120
45	20
51	40
52	20
53	20
55	30
56	150
58	9999
59	380
63	40
65	70
67	20
68	20
69	20
70	40
71	60
73	20
75	30
76	40
77	130
78	40
79	20
81	10
82	40
84	50
87	20
88	20
89	80
90	20
91	190
92	20
94	20
101	40
102	50
103	30
105	30
107	20
113	20
114	20
115	230
116	40
126	30
127	60
128	130
129	60
139	60
140	10
141	20
150	50
151	70
152	140
153	30
163	60
164	50
165	240
166	40
175	20
176	120
177	70
178	340
179	120
187	50
188	50
189	290
190	120
191	210
192	50
193	20
200	70
201	110
202	650
203	300
204	90
205	80
206	20
207	30
213	90
215	420
216	150
217	180
218	60
219	70
220	20
228	20
229	30
231	20
233	40
234	20
293	30
