Mass Spectrum: 3,4-Pyridinediamine, 5-nitro-
Formula: C5 H6 N4 O2
CAS: 4318-68-7
Molecular weight: 154
Origin: Div. of Experiment Therapeutics WRAIR, WRAMC, Washington DC 20307
m/z	RELATIVE INTENSITY
41	938
42	281
43	178
44	114
46	467
51	702
52	5495
53	3022
54	9114
55	803
56	102
57	305
64	888
65	414
66	637
67	824
68	106
69	248
77	101
79	466
80	746
81	1121
82	181
91	1190
92	231
94	1573
106	2486
107	491
108	1185
109	1081
136	710
137	1074
154	9999
155	1371
