Mass Spectrum: N-Methylhomopiperazine
Formula: C6 H14 N2
CAS: 4318-37-0
Molecular weight: 114
Origin: Japan AIST/NIMC Database- Spectrum MS-NW-1211
m/z	RELATIVE INTENSITY
14	40
15	809
16	10
26	109
27	599
28	1569
29	389
30	899
31	80
32	70
37	10
38	30
39	399
40	149
41	1179
42	4159
43	4009
44	4069
45	179
46	159
50	30
51	20
52	50
53	30
54	229
55	209
56	1029
57	3589
58	9999
59	409
66	10
67	40
68	259
69	769
70	2669
71	1269
72	3189
73	169
74	10
80	20
81	30
82	229
83	1189
84	1899
85	1049
86	169
87	80
95	10
96	20
97	90
98	40
99	259
100	30
109	20
110	20
111	40
112	80
113	329
114	3869
115	299
116	10
