Mass Spectrum: Arsine, tris(trifluoromethyl)-
Formula: C3 As F9
CAS: 432-02-0
Molecular weight: 282
Origin: A.Pleshkova, Nesmeyanov Inst.Org.Elem.Cpds, Moscow
m/z	RELATIVE INTENSITY
31	1181
32	20
50	420
51	10
69	9999
70	110
75	1221
94	3073
106	220
113	4994
125	961
126	10
131	80
144	1922
145	20
163	3203
164	40
175	1221
176	30
194	1661
195	40
263	1121
264	40
282	260
283	10
