Mass Spectrum: Phosphine, tris(trifluoromethyl)-
Formula: C3 F9 P
CAS: 432-04-2
Molecular weight: 238
Origin: A.Pleshkova, Nesmeyanov Inst.Org.Elem.Cpds, Moscow
m/z	RELATIVE INTENSITY
31	621
32	10
50	591
51	10
62	210
69	9999
70	120
81	290
82	10
100	691
101	10
131	1291
132	30
150	450
151	10
219	711
220	20
238	380
239	10
