Mass Spectrum: Zopiclone
Formula: C17 H17 Cl N6 O3
CAS: 43200-80-2
Molecular weight: 388
Origin: Drug Lab
m/z	RELATIVE INTENSITY
40	50
41	90
42	971
43	540
44	380
45	10
49	10
50	120
51	150
52	320
53	60
54	100
55	140
56	2112
57	430
58	540
59	10
60	10
61	30
62	60
63	50
64	120
65	40
66	10
68	30
69	30
70	1021
71	270
72	200
73	70
74	20
75	60
76	921
77	280
78	270
79	170
80	20
81	10
82	50
83	90
84	90
85	190
86	30
87	50
88	20
90	10
91	20
92	20
95	40
96	20
97	320
98	651
99	3003
100	240
101	50
102	30
103	100
104	120
105	30
106	30
107	20
111	20
112	3033
113	360
114	971
115	110
116	10
119	30
124	10
126	30
127	130
128	110
129	40
130	20
131	20
132	20
133	10
135	10
136	20
137	20
138	60
139	2252
140	180
141	751
142	210
143	9999
144	751
145	70
146	10
154	130
155	220
156	50
157	20
161	10
162	20
163	80
164	40
165	30
166	10
170	10
177	10
178	10
181	140
182	320
183	50
187	20
188	10
189	40
190	130
191	120
192	60
193	40
197	10
201	50
202	10
204	10
205	10
210	80
211	20
215	60
216	70
217	2202
218	300
219	701
220	80
233	10
245	5115
246	991
247	1742
248	300
249	40
258	10
259	10
260	10
261	80
262	10
263	30
274	10
