Mass Spectrum: 1,2'-Binaphthalene
Formula: C20 H14
CAS: 4325-74-0
Molecular weight: 254
Origin: M.C. HAMMING CONTINENTAL OIL CO., PONCA CITY, OKLA., USA
m/z	RELATIVE INTENSITY
12	1
13	4
14	13
15	20
24	2
25	4
26	31
27	182
28	78
29	39
30	4
36	3
37	11
38	53
39	275
40	30
41	53
42	14
43	57
44	10
46	2
47	1
48	3
49	4
50	194
51	275
52	56
53	16
54	5
55	40
56	17
57	38
58	4
60	6
61	19
62	108
63	267
64	31
65	32
66	4
67	13
68	9
69	29
70	11
71	18
72	3
73	19
74	178
87	170
88	144
89	66
90	15
91	14
92	4
93	12
94	20
95	13
96	6
97	17
98	150
99	150
100	277
102	86
103	23
104	22
105	21
106	29
107	22
108	9
109	19
110	63
111	109
112	381
113	945
114	289
115	61
116	9
117	9
118	26
119	67
120	104
121	10
122	52
123	47
124	198
125	970
126	2737
127	976
128	75
129	11
130	10
131	9
132	5
133	12
134	23
135	22
136	5
137	28
138	17
139	68
140	8
141	11
142	2
145	1
146	12
147	10
148	4
149	32
150	134
151	99
152	78
153	18
154	8
155	5
156	2
157	2
158	5
159	6
160	3
161	24
162	30
163	112
164	30
165	26
166	5
167	4
168	2
169	3
170	4
171	3
172	2
173	10
174	72
175	52
176	89
177	25
178	10
179	4
181	2
182	2
183	2
184	3
185	15
186	25
187	102
188	35
189	56
190	10
191	4
192	2
193	3
194	1
196	2
197	4
198	49
199	51
200	156
201	57
202	77
203	19
204	6
210	12
211	56
212	29
213	113
214	26
215	65
216	14
217	5
221	9
222	40
223	62
224	268
225	187
226	156
227	100
228	44
229	14
230	3
234	5
235	15
236	17
237	79
238	34
239	312
240	69
248	213
249	254
250	1256
251	748
252	5344
253	7168
254	9999
255	1943
256	182
