Mass Spectrum: Tetrahexylammonium bromide
Formula: C24 H52 Br N
CAS: 4328-13-6
Molecular weight: 433
Origin: Japan AIST/NIMC Database- Spectrum MS-NW-8927
m/z	RELATIVE INTENSITY
26	10
27	279
28	109
29	409
30	209
39	169
40	30
41	939
42	389
43	2989
44	609
45	10
53	40
54	20
55	909
56	429
57	569
58	679
59	20
67	30
68	20
69	139
70	119
71	40
72	20
80	10
81	20
82	30
83	70
84	229
85	849
86	60
91	10
93	10
95	10
96	20
97	10
98	279
99	20
100	50
107	40
109	40
110	10
112	99
113	10
114	199
115	10
124	10
126	329
127	40
128	2509
129	229
130	10
135	599
136	20
137	589
138	20
140	40
142	10
154	40
156	20
164	40
166	40
168	20
170	40
182	10
184	119
185	20
194	20
196	229
197	30
198	9999
199	1489
200	99
212	20
222	10
224	189
225	30
226	40
240	30
254	20
265	10
266	10
267	30
268	119
269	299
270	60
