Mass Spectrum: 2-Pyridinemethanamine, N-phenyl-
Formula: C12 H12 N2
CAS: 4329-81-1
Molecular weight: 184
Origin: J.E. WILKINSON S-CUBED, SAN DIEGO, CA.
m/z	RELATIVE INTENSITY
41	565
50	476
51	2009
52	1112
53	126
62	114
63	518
65	2466
66	103
74	49
75	47
76	37
77	402
78	3600
79	3499
80	400
84	59
86	3
89	444
91	5053
92	304
104	210
106	9999
107	1593
115	35
127	119
128	82
140	7
154	279
155	42
156	87
166	57
167	175
168	141
181	283
183	2866
184	6325
185	543
186	3
