Mass Spectrum: .alpha.,.alpha.,.alpha.-Trifluoro-o-toluic acid
Formula: C8 H5 F3 O2
CAS: 433-97-6
Molecular weight: 190
Origin: Japan AIST/NIMC Database- Spectrum MS-NW-9599
m/z	RELATIVE INTENSITY
20	70
26	10
27	50
28	99
29	10
31	70
37	70
38	129
39	179
40	10
41	10
42	10
43	20
44	30
45	209
49	60
50	629
51	359
52	40
53	60
56	20
57	179
61	80
62	99
63	229
64	20
65	40
66	10
68	60
69	309
70	40
71	20
72	20
73	60
74	349
75	1109
76	359
77	229
78	20
79	10
80	30
81	70
82	10
83	10
84	10
85	30
86	20
87	30
88	50
91	10
92	20
93	80
94	229
95	1489
96	509
97	30
99	209
100	80
101	30
104	139
105	30
106	20
107	149
108	10
112	10
113	90
114	249
115	20
117	10
118	20
119	119
120	10
121	70
122	109
123	269
124	30
125	859
126	1039
127	419
128	30
133	10
141	80
142	269
143	119
144	139
145	6009
146	509
147	20
148	10
150	519
151	819
152	70
162	40
164	10
169	30
170	599
171	70
172	40
173	9999
174	889
175	50
189	20
190	7309
191	659
192	60
