Mass Spectrum: Ethanol, 2,2,2-trifluoro-, 4-methylbenzenesulfonate
Formula: C9 H9 F3 O3 S
CAS: 433-06-7
Molecular weight: 254
Origin: Japan AIST/NIMC Database- Spectrum MS-IW- 763
m/z	RELATIVE INTENSITY
18	10
20	10
27	50
28	169
29	40
30	10
31	10
32	10
33	50
37	10
38	50
39	519
40	40
41	159
43	10
44	30
45	30
48	10
50	139
51	239
52	70
53	40
61	20
62	99
63	379
64	129
65	1579
66	90
67	20
69	60
74	30
75	30
76	20
77	209
78	60
79	139
80	10
83	199
85	10
86	20
87	20
88	10
89	419
90	219
91	9999
92	809
93	30
106	10
107	329
108	30
109	10
111	10
121	10
139	119
140	10
147	30
154	10
155	7019
156	599
157	359
158	20
189	20
235	10
253	10
254	2859
255	319
256	159
257	10
