Mass Spectrum: Ethanol, 1-ethoxy-2,2,2-trifluoro-
Formula: C4 H7 F3 O2
CAS: 433-27-2
Molecular weight: 144
Origin: Japan AIST/NIMC Database- Spectrum MS-NW-2709
m/z	RELATIVE INTENSITY
12	99
13	119
14	169
15	419
16	50
17	399
18	1759
19	199
20	50
24	40
25	119
26	489
27	1559
28	589
29	9999
30	549
31	8649
32	359
33	40
39	20
40	30
41	60
42	269
43	1009
44	129
45	3919
46	1509
47	169
48	70
50	2869
51	5339
52	60
58	50
59	50
61	20
62	10
63	60
67	10
69	1929
70	30
74	30
75	30
78	119
79	329
80	10
81	10
82	60
85	30
98	929
99	20
103	40
127	50
