Mass Spectrum: Benzene, 1,2-bis(trifluoromethyl)-
Formula: C8 H4 F6
CAS: 433-95-4
Molecular weight: 214
m/z	RELATIVE INTENSITY
50	2550
51	869
69	3188
74	2029
75	2608
76	580
97	1159
100	869
125	1304
127	869
144	580
145	9999
146	725
164	2464
195	8260
196	725
213	725
214	9274
215	725
