Mass Spectrum: 2-Nitrobenzenesulfonyl fluoride
Formula: C6 H4 F N O4 S
CAS: 433-98-7
Molecular weight: 205
Origin: Japan AIST/NIMC Database- Spectrum MS-IW- 690
m/z	RELATIVE INTENSITY
20	20
26	50
27	80
28	669
29	30
30	8799
31	40
32	70
33	10
34	20
36	10
37	189
38	539
39	529
40	30
41	10
42	20
44	239
45	179
46	359
47	10
48	70
49	99
50	3259
51	559
52	1129
53	239
54	30
55	80
57	179
58	20
59	70
60	20
61	109
62	279
63	2499
64	5229
65	319
66	80
67	299
68	40
69	269
70	90
71	80
72	20
73	169
74	1189
75	2639
76	1389
77	139
78	159
79	169
80	6299
81	379
82	90
83	639
84	50
85	10
86	10
87	10
88	20
89	20
90	20
91	99
92	6899
93	529
94	209
95	8589
96	619
97	10
98	10
99	99
100	10
101	10
102	10
103	20
104	10
105	10
106	10
107	40
108	2349
109	139
110	50
111	1889
112	129
113	20
114	10
115	60
122	139
123	10
125	10
126	10
127	10
131	20
132	10
143	10
145	20
146	10
147	90
148	10
149	10
155	10
156	10
157	20
158	10
159	90
160	30
175	1249
176	90
177	70
179	10
181	10
186	40
189	279
190	20
191	20
205	9999
206	789
207	569
208	40
209	10
