Mass Spectrum: 3-Benzylidene-2,4-pentanedione
Formula: C12 H12 O2
CAS: 4335-90-4
Molecular weight: 188
Origin: NIST Mass Spectrometry Data Center, 1992
m/z	RELATIVE INTENSITY
12	6
13	14
14	107
15	978
16	24
17	2
18	10
26	36
27	173
28	182
29	39
32	46
37	36
38	110
39	467
40	41
41	47
42	36
43	9999
44	233
45	35
50	699
51	1078
52	353
53	199
54	9
55	22
58	14
61	64
62	307
63	689
64	96
65	167
66	18
67	29
69	16
73	54
74	514
75	587
76	781
77	1277
78	209
79	19
85	32
86	86
87	120
88	56
89	215
90	48
91	197
92	18
97	17
98	88
99	46
101	218
102	1170
103	3003
104	312
105	45
110	10
113	47
115	691
116	167
117	327
118	52
126	71
127	311
128	265
129	277
130	47
131	8139
132	832
133	61
134	7
141	26
142	14
145	2515
146	443
147	44
155	183
156	19
157	10
159	42
160	12
169	52
170	19
171	12
172	10
173	1148
174	144
175	12
187	4026
188	4917
189	630
190	69
