Mass Spectrum: Maleimide, N-(p-nitrophenyl)-
Formula: C10 H6 N2 O4
CAS: 4338-06-1
Molecular weight: 218
Origin: A.A.Kutin, Moscow, Russia
m/z	RELATIVE INTENSITY
33	40
38	1041
39	2813
42	70
43	130
44	250
46	270
50	901
53	1591
54	7927
55	120
56	10
60	50
61	400
62	1071
63	3423
64	881
65	400
66	150
68	100
70	60
71	30
74	470
75	761
76	641
77	480
78	350
79	250
80	290
81	90
82	3673
83	60
88	350
89	2732
90	2552
91	300
93	430
94	50
95	30
96	40
97	20
98	30
102	320
103	230
104	370
105	180
106	701
107	60
111	20
114	200
115	330
116	4114
117	380
118	320
120	50
121	10
128	190
132	641
134	210
137	30
143	90
144	1251
145	180
147	20
148	210
149	150
160	1641
161	60
170	30
171	160
172	1391
173	340
174	420
188	4114
189	420
201	30
202	170
218	9999
219	1201
220	30
