Mass Spectrum: 1-Hexyn-3-ol, 3-methyl-
Formula: C7 H12 O
CAS: 4339-05-3
Molecular weight: 112
Origin: NIST Mass Spectrometry Data Center, 1990.
m/z	RELATIVE INTENSITY
26	143
27	623
28	1098
29	295
31	76
32	339
38	214
39	1205
40	342
41	1151
42	421
43	3447
44	120
45	171
50	422
51	593
52	200
53	893
54	121
55	964
56	100
57	112
62	91
63	155
65	212
66	184
67	300
68	91
69	9999
70	590
71	148
77	574
78	93
79	451
83	112
84	689
91	98
93	85
97	1778
98	105
