Mass Spectrum: 2-Chloro-6-fluorobenzoic acid
Formula: C7 H4 Cl F O2
CAS: 434-75-3
Molecular weight: 174
Origin: NIST Mass Spectrometry Data Center
m/z	RELATIVE INTENSITY
12	30
16	20
17	130
18	30
19	50
20	10
24	20
25	80
26	150
27	80
28	140
31	621
33	70
35	210
36	300
37	1061
38	520
39	330
40	10
41	20
42	10
44	370
45	1481
47	230
48	140
49	561
50	1521
51	380
52	30
53	90
55	140
56	200
57	621
58	10
60	180
61	811
62	611
63	971
64	150
66	180
68	1631
69	500
70	70
71	140
72	180
73	761
74	2012
75	1651
76	150
77	130
78	300
80	130
81	220
82	210
83	601
84	320
85	120
86	110
87	70
89	10
90	100
91	180
92	561
93	1571
94	2462
95	1261
96	160
97	80
98	130
99	50
100	20
101	30
102	100
103	170
104	80
105	80
106	10
107	20
109	871
110	380
111	410
112	90
113	10
115	10
117	60
118	40
119	10
120	10
121	20
122	30
123	10
126	180
127	50
129	2682
130	561
131	881
132	150
133	10
137	10
139	150
140	10
141	20
146	290
147	40
148	70
154	120
155	100
157	9999
158	1021
159	3433
160	270
161	20
174	5585
175	561
176	1692
177	140
178	10
