Mass Spectrum: Ethanone, 2,2,2-trifluoro-1-phenyl-
Formula: C8 H5 F3 O
CAS: 434-45-7
Molecular weight: 174
Origin: Japan AIST/NIMC Database- Spectrum MS-NW-2205
m/z	RELATIVE INTENSITY
25	10
26	50
27	249
28	50
29	10
31	50
32	10
36	20
37	159
38	279
39	199
40	20
41	20
43	40
44	10
45	60
48	10
49	119
50	1229
51	3089
52	229
53	70
55	10
57	20
58	10
60	10
61	60
62	70
63	50
65	20
66	20
68	10
69	359
73	80
74	409
75	299
76	339
77	8489
78	599
79	30
80	10
81	10
85	20
86	10
87	10
89	10
91	40
94	70
95	99
96	10
99	20
103	60
104	149
105	9999
106	779
107	70
115	20
117	70
118	60
123	50
125	10
174	769
175	70
