Mass Spectrum: Ethyl 2-butynoate
Formula: C6 H8 O2
CAS: 4341-76-8
Molecular weight: 112
Origin: NIST Mass Spectrometry Data Center, 1990.
m/z	RELATIVE INTENSITY
14	28
15	75
26	179
27	514
28	33
29	461
36	84
37	527
38	815
39	1745
40	244
41	120
42	85
43	282
44	63
45	320
53	168
54	120
55	262
56	266
65	120
66	1206
67	9999
68	1094
69	1570
70	93
82	448
83	481
84	149
85	199
94	295
97	256
111	230
