Mass Spectrum: Disilane, 1,2-dichloro-1,1,2,2-tetramethyl-
Formula: C4 H12 Cl2 Si2
CAS: 4342-61-4
Molecular weight: 186
Origin: Vladimir Zaikin, TIPS RAS, Moscow, Russia
m/z	RELATIVE INTENSITY
41	140
42	440
43	3763
44	670
45	1060
46	150
47	150
53	270
55	390
57	260
58	9999
59	1181
60	400
63	1911
64	230
65	2582
66	250
67	770
68	120
69	170
71	220
72	520
73	8097
74	780
75	340
77	200
78	300
79	280
80	230
92	390
93	9218
94	850
95	3142
96	230
97	150
113	250
115	200
119	180
121	170
135	190
151	970
152	260
153	430
171	210
173	110
186	730
187	160
188	450
