Mass Spectrum: Benzenamine, 4-butoxy-
Formula: C10 H15 N O
CAS: 4344-55-2
Molecular weight: 165
Origin: Japan AIST/NIMC Database- Spectrum MS-NW-2849
m/z	RELATIVE INTENSITY
15	10
26	40
27	299
28	109
29	499
30	30
38	30
39	279
40	30
41	389
42	40
43	20
44	10
50	30
51	60
52	189
53	389
54	149
55	80
56	30
57	109
61	10
62	20
63	60
64	60
65	329
66	60
67	20
68	20
77	30
78	30
79	40
80	1179
81	279
82	70
91	50
92	189
93	50
94	90
95	10
106	20
107	20
108	2009
109	9999
110	699
111	40
120	30
121	20
122	199
123	60
134	10
135	50
136	10
148	10
164	50
165	2529
166	289
167	20
