Mass Spectrum: Butanoic acid, phenyl ester
Formula: C10 H12 O2
CAS: 4346-18-3
Molecular weight: 164
Origin: V.Zaikin,Inst.Petrochem.Synth.,RAS,Moscow
m/z	RELATIVE INTENSITY
25	30
26	340
27	1581
28	30
29	270
39	2672
40	490
41	1862
42	520
43	9128
44	160
50	90
51	150
54	50
55	1031
56	30
61	60
62	130
63	370
64	190
65	1321
66	591
67	20
70	320
71	5785
72	280
73	50
77	881
78	270
79	60
80	70
81	30
82	40
83	20
91	70
92	20
93	160
94	9999
95	1031
96	50
105	80
106	10
121	70
122	10
164	1411
165	160
