Mass Spectrum: Ergostan-3-ol, acetate, (3.beta.,5.alpha.)-
Formula: C30 H52 O2
CAS: 4356-09-6
Molecular weight: 444
Origin: CARL DJERASSI DEPT OF CHEM STANFORD UNIV STANFORD CALIF 94305
m/z	RELATIVE INTENSITY
41	3400
42	400
43	7600
55	4600
56	1300
57	4300
67	3200
68	4900
70	1200
71	3600
77	500
78	100
79	2600
80	900
81	4300
82	1900
83	3200
84	1200
85	2300
87	500
91	2000
92	700
93	3200
94	1800
95	4100
96	1500
97	3200
98	500
99	600
105	2500
106	1900
107	3900
108	3100
109	4100
110	900
111	3600
112	300
113	400
115	100
117	300
118	200
119	2500
120	1500
121	3700
122	1800
123	3400
124	700
125	1000
126	200
127	300
128	200
131	500
132	200
133	2000
134	800
135	2300
136	1100
137	1200
138	300
139	400
140	200
141	100
145	1600
146	400
147	4900
148	1300
149	2200
150	400
151	500
152	100
153	100
159	700
160	700
161	1400
162	700
163	1300
164	200
165	400
166	200
167	100
173	700
174	400
175	700
176	500
177	400
178	200
179	300
187	500
188	600
189	400
190	100
191	600
192	100
193	100
201	2200
202	500
203	500
204	100
205	100
206	200
207	100
215	9999
216	7600
217	3700
218	600
219	100
222	200
229	500
230	4000
231	1300
232	200
243	100
244	100
248	200
257	1000
258	100
259	100
260	300
261	700
262	200
274	300
275	5200
276	6900
277	1200
278	100
285	300
289	200
290	900
291	200
300	100
301	100
302	100
315	100
316	100
329	100
330	300
331	100
341	100
342	300
343	100
369	4400
370	1300
371	100
383	200
384	9999
385	3400
386	500
401	100
429	1000
430	300
444	9700
445	4300
