Mass Spectrum: 1,3-Dioxolane, 2-butyl-
Formula: C7 H14 O2
CAS: 4360-76-3
Molecular weight: 130
Origin: D.H.WILLIAMS CHEMISTRY DEPT., UNIVERSITY OF CAMBRIDGE
m/z	RELATIVE INTENSITY
26	150
27	500
29	400
30	100
31	200
39	300
40	280
41	480
42	200
43	280
44	280
45	1500
46	100
55	200
57	300
58	200
69	100
70	100
71	380
72	100
73	9999
74	400
75	100
78	100
85	100
88	100
99	100
100	100
101	100
129	380
130	100
