Mass Spectrum: 2-Bromomethyl-1,3-dioxolane
Formula: C4 H7 Br O2
CAS: 4360-63-8
Molecular weight: 166
Origin: Japan AIST/NIMC Database- Spectrum MS-NW-8578
m/z	RELATIVE INTENSITY
13	10
14	119
15	689
16	20
18	10
19	70
25	10
26	179
27	1089
28	179
29	1049
30	80
31	839
32	10
33	10
39	10
41	90
42	339
43	1369
44	169
45	3199
46	70
47	10
57	619
58	40
59	80
61	20
71	20
72	10
73	9999
74	349
75	50
79	40
80	40
81	40
82	40
86	30
87	299
88	10
91	10
92	30
93	239
94	70
95	219
96	50
105	50
106	50
107	99
108	40
109	60
120	10
121	209
122	20
123	229
124	10
125	20
136	10
137	10
138	10
139	10
165	119
167	129
169	10
