Mass Spectrum: Ajmaline
Formula: C20 H26 N2 O2
CAS: 4360-12-7
Molecular weight: 326
Origin: Patti Price, Georgia Bureau of Investigation, Decatur, Georgia
m/z	RELATIVE INTENSITY
43	980
52	430
53	560
54	960
55	1431
56	880
57	870
63	460
65	1020
67	970
68	740
69	1201
70	860
72	510
76	220
77	1901
78	690
79	830
81	1040
82	890
83	490
84	1000
88	170
89	690
91	1571
93	680
95	350
96	570
97	200
98	430
100	90
101	360
102	1141
103	700
104	380
107	330
108	640
110	840
111	190
115	2191
117	2272
118	670
120	260
124	310
126	620
127	580
128	1581
129	780
130	3363
131	3823
132	3553
134	230
139	460
140	550
142	530
143	2252
144	9388
145	3423
146	1111
150	100
152	370
153	300
154	1691
155	370
156	2021
157	3833
158	3753
159	1070
160	1771
163	230
164	180
166	350
167	2071
168	2532
169	1351
170	2161
171	750
172	1481
173	880
174	360
179	280
180	1070
181	1521
182	6746
183	6645
184	2101
185	730
187	180
191	230
194	1361
195	790
196	770
198	910
199	1141
200	2242
201	260
202	440
204	120
206	260
207	750
208	540
210	1020
212	450
223	640
224	450
225	200
227	140
234	470
237	320
250	270
253	510
266	150
279	500
295	140
297	1441
298	440
309	240
310	180
311	1901
324	240
325	1731
326	9999
327	1861
328	220
329	190
