Mass Spectrum: Cyclohexanepropanol, .alpha.,2,2,6-tetramethyl-
Formula: C13 H26 O
CAS: 4361-23-3
Molecular weight: 198
Origin: Insect Chem. Ecol. Lab., USDA, Beltsville, MD 20705
m/z	RELATIVE INTENSITY
41	6383
42	158
43	6246
45	6973
47	386
48	125
49	1462
51	629
52	15
53	1587
54	78
55	8025
56	3116
57	2565
58	1250
59	511
60	20
61	5
63	59
65	401
66	57
67	4121
68	4488
69	9999
70	624
71	2889
72	302
73	51
75	9
77	497
79	951
80	612
81	6260
82	6253
83	3998
84	1913
85	1473
86	428
87	100
88	82
89	3
91	349
93	585
94	389
95	7319
96	3044
97	1250
98	82
99	672
100	5
101	273
102	4
103	23
105	97
107	383
109	7463
110	1931
111	739
112	61
113	387
114	13
115	68
116	5
117	14
119	37
121	211
122	182
123	6332
124	5698
125	1621
126	60
127	133
128	29
129	13
131	15
133	16
134	4
135	63
136	143
137	1052
138	3407
139	453
140	125
141	43
142	8
143	4
147	5
149	36
150	12
151	145
152	43
153	17
154	70
155	123
156	15
159	11
161	9
163	280
165	4589
166	502
167	37
169	9
170	8
171	3
174	3
175	4
176	3
177	16
178	12
179	63
180	1673
181	332
183	283
184	33
198	64
199	7
