Mass Spectrum: 2H-1,4-Ethanoquinoline, 3,4-dihydro-
Formula: C11 H13 N
CAS: 4363-25-1
Molecular weight: 159
m/z	RELATIVE INTENSITY
42	400
43	2402
44	400
77	1001
78	200
91	801
98	1001
102	200
103	601
104	601
115	500
116	300
117	1001
118	601
128	300
129	400
130	5005
131	3503
132	2502
133	300
142	200
143	500
144	2002
145	300
156	300
157	300
158	3003
159	9999
160	1001
