Mass Spectrum: Tetraheptylammonium bromide
Formula: C28 H60 Br N
CAS: 4368-51-8
Molecular weight: 489
Origin: Japan AIST/NIMC Database- Spectrum MS-NW-7187
m/z	RELATIVE INTENSITY
15	10
26	20
27	369
28	99
29	729
30	219
38	10
39	239
40	50
41	1359
42	479
43	1549
44	509
45	10
51	10
53	70
54	50
55	1029
56	399
57	2369
58	489
59	20
65	10
67	60
68	40
69	369
70	249
71	80
72	20
77	10
79	10
80	10
81	20
82	40
83	40
84	219
85	30
86	10
89	10
91	10
93	10
94	10
95	20
96	30
97	30
98	419
99	40
100	10
107	40
109	40
110	20
112	299
113	30
114	30
124	10
126	99
127	10
128	199
129	20
135	599
136	30
137	599
138	30
140	329
141	40
142	1129
143	119
149	40
151	40
154	40
156	10
166	10
168	50
170	10
178	20
180	20
182	30
184	20
196	30
198	10
210	20
212	109
213	30
222	20
224	289
225	60
226	9999
227	1719
228	139
229	10
240	30
250	10
252	199
253	40
254	10
266	10
268	40
278	30
282	50
283	10
296	30
307	10
308	10
309	30
310	179
311	239
312	50
313	10
