Mass Spectrum: Tris(dimethylamino)borane
Formula: C6 H18 B N3
CAS: 4375-83-1
Molecular weight: 143
Origin: Japan AIST/NIMC Database- Spectrum MS-NW-8552
m/z	RELATIVE INTENSITY
12	10
13	50
14	60
15	479
16	10
25	20
26	199
27	859
28	1839
29	349
30	639
31	10
32	10
37	10
38	90
39	239
40	739
41	599
42	1339
43	629
44	4329
45	2169
46	70
47	10
48	60
49	269
50	10
51	20
52	70
53	149
54	479
55	1169
56	4649
57	209
58	409
59	20
61	10
62	159
63	299
64	30
65	30
66	40
67	129
68	80
69	289
70	779
71	109
72	30
73	10
75	10
77	10
80	10
81	70
82	549
83	1929
84	359
85	919
86	40
87	10
93	30
95	20
96	139
97	549
98	2899
99	9999
100	509
101	10
103	10
105	10
109	10
110	50
111	169
112	169
113	20
114	20
121	30
123	20
124	60
125	70
126	129
127	30
128	90
130	10
137	10
139	30
140	109
141	20
142	959
143	3799
144	289
