Mass Spectrum: 1H-Indole, octahydro-
Formula: C8 H15 N
CAS: 4375-14-8
Molecular weight: 125
Origin: Japan AIST/NIMC Database- Spectrum MS-NW-7547
m/z	RELATIVE INTENSITY
15	70
26	30
27	389
28	549
29	249
30	719
31	10
37	10
38	40
39	519
40	90
41	739
42	269
43	309
44	159
45	20
46	10
50	30
51	80
52	50
53	249
54	269
55	449
56	809
57	139
58	10
63	20
64	10
65	80
66	50
67	399
68	1159
69	1059
70	279
71	50
77	80
78	20
79	159
80	189
81	289
82	9999
83	689
84	139
85	10
91	70
92	30
93	70
94	109
95	229
96	339
97	50
98	10
107	10
108	30
109	10
110	30
120	10
121	10
122	80
123	70
124	929
125	1639
126	159
127	20
