Mass Spectrum: 4-Methyl-2-heptyn-4-ol
Formula: C8 H14 O
CAS: 4376-16-3
Molecular weight: 126
Origin: NIST Mass Spectrometry Data Center, 1994
m/z	RELATIVE INTENSITY
14	38
15	423
18	7
19	12
26	143
27	1336
28	193
29	568
30	16
31	10
32	2
36	16
37	85
38	278
39	1820
40	278
41	970
42	257
43	5879
44	175
45	120
49	16
50	150
51	310
52	107
53	371
54	84
55	475
56	33
57	163
58	29
61	28
62	73
63	196
64	57
65	315
66	117
67	615
68	67
69	596
70	23
71	111
75	14
77	254
78	57
79	150
80	53
81	69
82	14
83	9999
84	534
85	41
86	26
91	138
92	20
93	113
95	44
97	13
98	67
107	13
108	22
109	17
111	602
112	51
