Mass Spectrum: Benzenemethanol, .alpha.-methyl-.alpha.-propyl-
Formula: C11 H16 O
CAS: 4383-18-0
Molecular weight: 164
Origin: NIST Mass Spectrometry Data Center, 1990.
m/z	RELATIVE INTENSITY
14	17
15	246
26	151
27	1459
28	1022
29	497
32	236
38	223
39	1760
40	342
41	1034
43	8071
44	239
45	213
50	1114
51	3031
52	659
53	796
55	134
57	248
58	131
62	369
63	1239
64	569
65	1419
66	173
67	437
69	115
71	516
74	514
75	595
76	845
77	4642
78	2361
79	772
87	219
89	743
91	6676
92	598
101	191
102	996
103	2533
104	836
105	1519
106	210
107	154
115	4176
116	2106
117	3944
118	8384
119	868
121	9891
122	785
127	520
128	1209
129	1689
131	9999
132	1063
145	831
146	3871
147	466
149	350
164	141
