Mass Spectrum: 2-Methyl-1-phenyl-2-propen-1-ol
Formula: C10 H12 O
CAS: 4383-08-8
Molecular weight: 148
Origin: NIST Mass Spectrometry Data Center, 1990.
m/z	RELATIVE INTENSITY
15	167
16	85
17	104
18	290
26	196
27	1422
28	363
29	712
31	239
37	116
38	548
39	3264
40	420
41	1987
42	461
43	850
44	156
50	1599
51	3800
52	940
53	786
54	116
55	3609
56	143
58	83
61	111
62	475
63	1258
64	561
65	760
66	223
69	693
70	297
71	183
73	90
74	618
75	414
76	90
77	8685
78	2449
79	9999
80	645
86	153
87	159
88	99
89	669
90	90
91	2196
92	280
102	414
103	583
105	6292
106	943
107	3769
108	279
113	89
115	3364
116	510
117	520
118	139
119	286
120	656
126	191
127	672
128	1332
129	2469
130	2221
131	579
132	139
133	4167
134	357
145	139
147	3759
148	2961
149	330
