Mass Spectrum: 3,5-Dimethoxy-4-hydroxyphenylacetic acid
Formula: C10 H12 O5
CAS: 4385-56-2
Molecular weight: 212
Origin: NIST Mass Spectrometry Data Center, 1994
m/z	RELATIVE INTENSITY
14	43
15	217
26	23
27	157
28	205
29	119
31	36
32	45
37	28
38	108
39	425
40	67
41	79
42	74
43	95
44	41
45	245
50	138
51	272
52	200
53	598
54	93
55	190
57	23
59	26
61	25
62	75
63	201
64	154
65	255
66	273
67	232
68	64
69	200
70	22
71	26
74	39
75	50
76	80
77	248
78	301
79	257
80	89
81	262
82	113
83	32
84	30
85	130
90	26
91	50
92	110
93	113
94	124
95	160
96	61
97	101
98	38
104	25
105	88
106	413
107	150
108	74
109	116
110	131
111	25
112	27
120	70
121	244
122	409
123	776
124	202
125	195
126	37
127	152
133	28
134	123
135	100
136	81
137	287
138	53
139	56
141	50
147	23
148	28
149	29
150	45
151	260
152	98
153	165
154	25
155	186
165	89
167	9999
168	1120
169	127
179	39
196	35
197	126
198	24
212	5421
213	600
214	29
