Mass Spectrum: Bisphenol A, 2TMS derivative
Formula: C21 H32 O2 Si2
CAS: 4387-16-0
Molecular weight: 372
Origin: NIST Mass Spectrometry Data Center
m/z	RELATIVE INTENSITY
29	10
39	10
41	40
43	70
44	30
45	360
46	20
47	30
50	10
51	10
53	10
55	20
57	20
58	30
59	70
60	10
61	30
63	10
65	30
67	10
68	10
69	10
70	10
71	10
73	3343
74	300
75	310
76	40
77	70
78	20
79	20
81	10
82	110
83	30
85	20
87	10
88	20
89	30
90	20
91	200
92	20
93	10
94	10
95	30
96	20
97	10
99	10
101	10
102	40
103	70
104	30
105	70
106	10
107	30
108	10
109	40
111	10
112	10
113	10
115	160
116	40
117	90
118	30
119	80
120	30
121	50
122	10
123	30
124	10
126	20
127	20
128	30
129	20
131	40
132	10
133	90
134	20
135	230
136	30
137	40
138	10
139	20
140	10
141	20
142	20
143	40
145	30
146	10
147	40
148	20
149	170
150	70
151	330
152	140
153	50
154	10
155	30
156	60
157	30
159	20
160	10
161	80
162	20
163	160
164	60
165	180
166	50
167	40
168	10
169	10
171	510
174	10
175	100
176	50
177	160
178	120
179	140
180	20
181	30
182	10
183	10
184	10
185	20
186	20
187	10
189	50
190	20
191	520
192	110
193	60
194	20
195	40
196	10
197	10
198	10
199	20
200	10
201	10
203	10
205	20
207	881
208	170
209	80
210	10
211	60
212	10
213	10
217	10
219	10
220	10
221	20
222	10
223	30
224	10
225	30
226	10
227	10
233	10
235	40
236	10
237	30
238	10
239	30
240	10
241	30
242	10
243	10
249	20
250	10
251	120
252	30
253	60
254	20
255	30
256	20
257	10
265	10
266	10
267	50
268	40
269	120
270	30
271	20
272	10
281	10
282	10
283	30
284	50
285	30
286	10
299	60
300	20
307	10
311	10
312	10
323	10
325	10
327	70
328	20
329	10
339	10
341	160
342	60
343	50
344	10
353	10
354	10
355	40
357	9999
358	4734
359	1872
360	380
361	70
362	10
372	2102
373	711
374	260
375	50
376	10
