Mass Spectrum: 4H-Benz[de]anthracene, 5,6-dihydro-
Formula: C17 H14
CAS: 4389-09-7
Molecular weight: 218
Origin: Organic Synthesis Lab, MSU, Moscow.TRC 377
m/z	RELATIVE INTENSITY
27	50
29	30
38	10
39	90
40	30
41	30
43	40
44	20
50	40
51	70
52	10
55	20
57	10
60	10
62	50
63	140
64	10
65	20
68	10
69	30
71	30
72	10
73	10
74	70
75	100
76	50
77	20
81	40
82	40
83	20
86	50
87	120
88	210
89	70
93	40
94	250
95	340
96	60
98	40
99	50
100	230
101	911
102	70
105	20
106	190
107	510
108	1001
109	581
110	20
111	30
112	10
113	30
115	40
122	20
123	10
125	10
126	30
127	10
134	10
135	10
137	20
138	10
139	70
140	10
141	10
149	20
150	90
151	70
152	90
153	10
161	40
162	50
163	210
164	70
165	170
166	20
174	50
175	50
176	150
177	40
178	100
179	20
185	20
186	60
187	330
188	200
189	701
190	180
191	160
192	20
198	10
199	30
200	260
201	310
202	2953
203	2973
204	470
205	30
207	30
209	10
210	10
211	170
212	110
213	1071
214	340
215	4264
216	1862
217	4054
218	9999
219	1782
220	150
