Mass Spectrum: 2-Amino-3-methylbenzoic acid
Formula: C8 H9 N O2
CAS: 4389-45-1
Molecular weight: 151
Origin: NIST Mass Spectrometry Data Center, 1990.
m/z	RELATIVE INTENSITY
14	53
17	76
18	61
26	74
27	415
28	529
29	103
30	78
37	175
38	346
39	795
40	137
41	170
42	119
43	37
44	148
45	209
49	65
50	623
51	1378
52	1064
53	613
54	207
55	82
61	63
62	245
63	539
64	179
65	417
66	340
73	88
74	163
75	230
76	508
77	2700
78	2089
79	1173
80	162
89	249
90	113
102	149
104	6653
105	9999
106	1359
107	179
132	903
133	4098
134	560
135	81
151	6043
152	557
