Mass Spectrum: Nonane, 2,2,4,4,6,8,8-heptamethyl-
Formula: C16 H34
CAS: 4390-04-9
Molecular weight: 226
Origin: Japan AIST/NIMC Database- Spectrum MS-NW-4582
m/z	RELATIVE INTENSITY
15	10
27	119
28	50
29	419
30	10
37	10
39	179
40	30
41	929
42	70
43	719
44	20
51	10
53	60
54	10
55	389
56	609
57	9999
58	459
59	10
65	10
67	30
68	10
69	179
70	70
71	999
72	60
77	10
81	20
82	10
83	239
84	40
85	849
86	60
95	10
96	10
97	159
98	319
99	879
100	70
111	10
112	279
113	739
114	60
127	50
141	10
153	10
154	40
155	139
156	20
