Mass Spectrum: 3-Bromo-1-phenyl-1-propene
Formula: C9 H9 Br
CAS: 4392-24-9
Molecular weight: 196
Origin: NIST Mass Spectrometry Data Center
m/z	RELATIVE INTENSITY
13	30
18	10
25	40
26	220
27	210
36	40
37	220
38	731
39	2232
40	230
41	20
49	180
50	1221
51	1672
52	430
53	90
55	30
58	1031
60	40
61	300
62	851
63	1511
64	450
65	881
66	70
73	80
74	190
75	290
76	330
77	420
78	260
79	250
80	90
81	280
82	60
83	40
85	110
86	210
87	300
88	190
89	891
91	2752
92	250
95	20
98	30
102	360
103	70
110	20
113	120
115	5705
116	2262
117	9999
118	1041
119	70
196	250
198	210
199	50
