Mass Spectrum: Benzene, cyclobutyl-
Formula: C10 H12
CAS: 4392-30-7
Molecular weight: 132
m/z	RELATIVE INTENSITY
38	120
39	780
40	140
49	380
50	980
51	300
52	180
58	120
62	120
63	380
64	200
65	380
74	120
75	120
76	180
77	1020
78	1800
79	320
91	920
92	60
102	260
103	1320
104	9999
105	960
106	320
115	260
116	40
117	140
132	1240
133	100
