Mass Spectrum: Benzenemethanamine, 2,3-dimethoxy-
Formula: C9 H13 N O2
CAS: 4393-09-3
Molecular weight: 167
Origin: Chuck Anderson, Aldrich Chemical Co.
m/z	RELATIVE INTENSITY
15	233
26	101
27	384
28	1592
29	387
30	5139
31	172
37	139
38	429
39	1899
40	446
41	705
42	213
43	142
44	101
45	128
47	42
49	30
50	687
51	1564
52	977
53	1214
54	635
55	352
60	115
61	89
62	282
63	862
64	628
65	2415
66	799
67	415
68	137
69	82
74	223
75	296
76	750
77	3239
78	1424
79	1550
80	2360
81	949
82	226
83	140
89	272
90	642
91	2625
92	1745
93	2080
94	893
95	907
96	124
97	182
102	156
103	141
104	2136
105	2946
106	2876
107	3421
108	2192
109	2122
110	1424
111	87
116	78
117	97
118	474
119	610
120	747
121	1913
122	1578
123	963
124	1256
125	432
131	223
132	583
133	715
134	3309
135	1633
136	9999
137	3477
138	719
139	485
140	24
148	223
149	858
150	3114
151	1801
152	6088
153	544
154	34
165	15
166	3365
167	5250
168	548
169	28
