Mass Spectrum: Hexafluoromethanediamine
Formula: C F6 N2
CAS: 4394-93-8
Molecular weight: 154
Origin: A.Pleshkova, Nesmeyanov Inst.Org.Elem.Cpds, Moscow
m/z	RELATIVE INTENSITY
19	310
26	220
28	160
31	2082
32	20
33	1391
34	10
45	691
46	10
50	2442
51	30
52	3914
53	20
64	1381
65	20
69	9999
70	110
83	7066
84	120
102	1651
103	20
