Mass Spectrum: Benzaldehyde, 4-(phenylmethoxy)-
Formula: C14 H12 O2
CAS: 4397-53-9
Molecular weight: 212
Origin: Japan AIST/NIMC Database- Spectrum MS-NW-9452
m/z	RELATIVE INTENSITY
27	10
28	20
38	30
39	279
40	10
41	70
50	50
51	149
52	20
62	30
63	149
64	60
65	949
66	50
74	10
75	10
76	40
77	80
78	10
89	139
90	80
91	9999
92	819
93	50
105	20
121	10
152	10
153	10
181	10
212	1069
213	159
214	10
