Mass Spectrum: Cyclobutyl bromide
Formula: C4 H7 Br
CAS: 4399-47-7
Molecular weight: 134
Origin: NIST Mass Spectrometry Data Center, 1990.
m/z	RELATIVE INTENSITY
13	38
14	55
15	48
16	8
25	112
26	923
27	2963
28	833
29	1610
32	30
37	168
38	318
39	1637
40	132
41	119
49	117
50	463
51	427
52	151
53	898
54	117
55	9999
56	406
79	140
80	51
81	147
82	50
93	49
95	38
106	1559
108	1550
109	49
119	31
134	92
136	107
