Mass Spectrum: 2-Propanol, 1-(diethylamino)-
Formula: C7 H17 N O
CAS: 4402-32-8
Molecular weight: 131
Origin: Japan AIST/NIMC Database- Spectrum MS-NW-3160
m/z	RELATIVE INTENSITY
15	109
18	10
26	30
27	319
28	399
29	529
30	1389
31	129
32	10
39	70
40	20
41	259
42	479
43	149
44	289
45	99
50	20
54	50
55	30
56	399
57	109
58	1989
59	219
60	70
68	20
70	119
71	50
72	239
73	20
84	80
85	30
86	9999
87	589
88	70
98	139
99	10
100	149
101	20
102	20
112	10
113	50
114	119
115	10
116	729
117	50
130	119
131	229
132	20
