Mass Spectrum: Ethylene glycol, TMS derivative
Formula: C5 H14 O2 Si
CAS: 4403-13-8
Molecular weight: 134
Origin: NIST Mass Spectrometry Data Center, 2007
m/z	RELATIVE INTENSITY
14	10
15	90
18	10
19	10
26	20
27	100
28	90
29	300
30	40
31	490
32	10
39	10
41	30
42	140
43	871
44	240
45	1251
46	90
47	410
48	20
49	10
51	10
53	60
54	20
55	110
56	30
57	90
58	571
59	410
60	100
61	450
62	30
63	30
69	10
70	30
71	40
72	140
73	5115
74	520
75	9999
76	751
77	480
78	20
79	10
85	10
86	10
87	30
88	220
89	70
90	10
101	100
103	2072
104	220
105	80
117	20
119	1361
120	130
121	50
