Mass Spectrum: 2-Methylbutyl isothiocyanate
Formula: C6 H11 N S
CAS: 4404-51-7
Molecular weight: 129
Origin: NIST Mass Spectrometry Data Center, 1994
m/z	RELATIVE INTENSITY
14	50
15	423
26	545
27	3843
28	1185
29	7170
30	257
32	293
33	49
34	46
37	133
38	422
39	3948
40	900
41	9999
42	1499
43	7872
44	605
45	1334
46	422
47	96
49	35
50	238
51	341
52	170
53	475
54	255
55	2015
56	482
57	5065
58	551
59	423
60	307
61	42
62	42
63	39
64	45
65	45
67	73
68	61
69	183
70	1115
71	2109
72	4052
73	3429
74	507
75	170
76	31
78	25
81	71
82	50
84	80
85	70
86	218
87	65
96	161
97	29
98	79
99	29
100	1503
101	153
102	91
114	1309
115	94
116	65
129	3434
130	286
131	159
