Mass Spectrum: 4-(para-Chlorobenzyl)-pyridine
Formula: C12 H10 Cl N
CAS: 4409-11-4
Molecular weight: 203
Origin: NIST Mass Spectrometry Data Center
m/z	RELATIVE INTENSITY
13	30
26	440
27	130
28	841
30	20
35	60
36	80
37	370
38	811
39	2522
40	250
41	90
44	20
47	50
50	2252
51	3523
52	500
53	120
54	430
55	100
56	100
57	200
58	50
61	360
62	1101
63	2522
64	631
65	791
66	100
67	90
70	430
72	60
73	480
74	480
75	1211
76	320
77	350
78	380
79	40
83	881
85	230
86	400
87	561
88	420
89	2202
90	611
91	160
92	80
96	60
97	90
99	741
100	120
101	390
102	150
103	50
104	40
109	40
110	90
111	150
112	110
113	440
114	470
115	1101
116	170
117	40
122	30
123	100
125	2532
126	310
127	911
128	160
136	90
137	100
139	1802
140	861
141	861
142	110
149	290
150	60
151	120
152	50
153	60
154	40
162	40
164	100
167	7377
168	9999
169	1251
170	100
173	50
174	20
175	110
176	50
177	30
200	60
203	6836
204	1431
205	2162
206	290
