Mass Spectrum: Ethylmethylthiambutene
Formula: C15 H19 N S2
CAS: 441-61-2
Molecular weight: 277
Origin: R.E.Ardrey ET AL.Pharmaceutical Mass Spectra,L.,1985
m/z	RELATIVE INTENSITY
27	100
29	300
30	200
39	200
42	1201
43	100
44	200
45	400
51	100
56	901
57	200
58	500
63	100
65	100
69	100
70	200
77	200
85	100
86	1201
91	400
97	2002
98	400
108	100
109	200
111	3003
112	200
113	100
115	200
121	200
123	300
134	300
135	500
138	100
147	100
152	100
171	300
178	200
179	100
184	200
185	400
186	200
190	100
192	100
203	200
204	200
217	100
218	100
219	2702
220	400
221	200
232	100
248	400
262	9999
263	1702
264	901
265	100
277	601
278	100
