Mass Spectrum: Phenethyl mercaptan
Formula: C8 H10 S
CAS: 4410-99-5
Molecular weight: 138
Origin: Dr. Jiri Zamecnik, DCIEM, North York, Canada, GP Library
m/z	RELATIVE INTENSITY
39	460
41	70
45	150
47	220
50	220
51	690
52	120
59	110
60	50
61	70
62	60
63	200
65	680
74	80
75	40
76	50
77	550
78	380
79	160
88	30
89	130
90	50
91	9999
92	1260
93	60
102	60
103	430
104	1190
105	290
120	40
124	80
134	20
135	60
138	1930
139	170
140	70
