Mass Spectrum: 3-Methyl-2-furoic acid
Formula: C6 H6 O3
CAS: 4412-96-8
Molecular weight: 126
Origin: NIST Mass Spectrometry Data Center, 1994
m/z	RELATIVE INTENSITY
12	118
13	81
14	240
15	317
16	58
17	104
18	133
19	108
24	52
25	315
26	1945
27	5930
28	856
29	1758
30	36
31	92
32	63
36	144
37	928
38	964
39	2059
40	331
41	788
42	552
43	345
44	223
45	2332
46	131
48	142
49	738
50	2843
51	3280
52	5338
53	6267
54	998
55	512
56	93
60	34
61	56
62	63
63	59
65	281
66	185
67	130
68	109
69	872
70	196
71	62
75	55
77	98
79	209
80	1293
81	4642
82	290
83	32
95	45
97	884
98	205
99	36
108	2064
109	4519
110	308
111	56
123	43
126	9999
127	651
128	100
