Mass Spectrum: Benzene, (1-cyclohexylethyl)-
Formula: C14 H20
CAS: 4413-16-5
Molecular weight: 188
Origin: CONTINENTAL OIL CO., PONCA CITY, OKLA, USA
m/z	RELATIVE INTENSITY
26	54
27	818
28	167
29	419
30	10
33	2
36	2
37	13
38	39
39	758
40	90
41	1532
42	93
43	111
44	6
49	5
50	115
51	435
52	128
53	281
54	170
55	1917
56	107
57	13
58	9
60	8
61	5
62	28
63	141
64	48
65	246
66	44
67	404
68	33
69	78
70	13
71	15
72	3
73	3
74	28
75	101
76	118
77	1612
78	659
79	1055
80	95
81	158
82	423
83	1836
84	136
85	8
86	13
87	27
88	16
89	135
90	56
91	2716
92	231
93	22
94	5
95	30
96	5
97	5
98	8
99	6
100	5
101	46
102	168
103	738
104	1519
105	9999
106	8195
107	725
108	33
109	14
110	23
111	21
112	3
113	16
114	23
115	477
116	161
117	330
118	76
119	27
120	18
121	3
125	4
126	14
127	86
128	234
129	203
130	62
131	96
132	16
133	3
138	1
139	13
140	5
141	48
142	22
143	41
144	17
145	20
146	3
151	3
152	11
153	9
154	5
155	7
156	3
157	8
158	3
159	8
160	2
163	1
165	10
166	3
167	10
168	3
169	5
170	3
171	20
172	8
173	10
174	3
178	3
179	2
180	3
182	5
183	2
184	6
185	3
186	32
187	11
188	1769
189	273
190	20
