Mass Spectrum: Cyclopentane, 1,1'-ethylidenebis-
Formula: C12 H22
CAS: 4413-21-2
Molecular weight: 166
m/z	RELATIVE INTENSITY
36	10
37	30
38	110
39	2252
40	440
41	5415
42	861
43	601
44	20
45	10
46	10
47	10
49	10
50	50
51	190
52	110
53	821
54	400
55	7687
56	500
57	90
58	10
59	10
60	10
61	10
62	10
63	50
64	20
65	220
66	350
67	2813
68	3323
69	1682
70	150
71	20
72	10
74	10
75	10
76	10
77	210
78	50
79	240
80	70
81	1051
82	260
83	280
84	30
85	10
86	10
87	10
89	10
90	10
91	100
92	20
93	70
94	40
95	550
96	2963
97	9999
98	791
99	30
100	10
102	10
103	10
104	10
105	10
106	10
107	20
108	20
109	390
110	110
111	10
112	10
115	10
116	10
117	10
118	10
119	10
120	10
121	10
122	10
123	70
124	30
125	10
126	10
128	10
133	10
135	10
136	10
137	30
138	10
139	10
149	10
150	10
151	30
152	10
162	10
164	10
165	10
166	150
167	20
168	10
