Mass Spectrum: 1H-Tetrazol-5-amine
Formula: C H3 N5
CAS: 4418-61-5
Molecular weight: 85
Origin: Japan AIST/NIMC Database- Spectrum MS-NW- 319
m/z	RELATIVE INTENSITY
12	90
13	209
14	99
15	169
16	169
17	70
18	20
26	279
27	1789
28	9999
29	1449
30	519
31	40
32	20
36	139
38	40
40	70
41	459
42	1739
43	1149
44	30
54	30
55	30
57	4989
58	109
59	40
69	20
85	3749
86	119
