Mass Spectrum: Beclomethasone
Formula: C22 H29 Cl O5
CAS: 4419-39-0
Molecular weight: 408
Origin: Patti Price, Georgia Bureau of Investigation, Decatur, Georgia
m/z	RELATIVE INTENSITY
41	2682
42	590
43	3533
44	790
45	300
50	160
51	340
52	310
53	1151
54	270
55	2462
56	250
57	960
58	270
59	190
60	300
63	210
64	160
65	870
66	280
67	950
68	210
69	1411
70	220
71	660
72	170
73	190
74	80
75	170
76	150
77	1891
78	480
79	1341
80	270
81	830
82	210
83	550
84	240
85	320
86	150
87	330
88	120
89	360
90	130
91	3833
92	600
93	940
94	290
95	890
96	400
97	440
98	240
99	340
100	140
101	250
102	230
103	660
104	340
105	1271
106	310
107	1691
108	780
109	1010
110	390
111	610
112	230
113	280
114	140
115	1711
116	700
117	1851
118	350
119	860
120	640
121	9999
122	3733
123	930
124	530
125	610
126	200
127	740
128	1281
129	1191
130	430
131	1641
132	570
133	1791
134	3042
135	3633
136	640
137	700
138	240
139	600
140	210
141	860
142	440
143	720
144	720
145	1741
146	1010
147	4343
148	760
149	550
150	240
151	570
152	660
153	880
154	330
155	850
156	270
157	800
158	620
159	2071
160	1921
161	1611
162	320
163	500
164	160
165	780
166	370
167	470
168	230
169	490
170	260
171	1321
172	450
173	920
174	370
175	660
176	240
177	330
178	410
179	610
180	290
181	560
182	260
183	480
184	440
185	720
186	620
187	1321
188	330
189	580
190	290
191	440
192	200
193	370
194	290
195	780
196	360
197	820
198	300
199	510
200	180
201	300
202	300
203	360
204	120
205	540
206	210
207	490
208	700
209	820
210	450
211	760
212	350
213	760
214	300
215	300
216	80
217	90
219	200
220	150
221	970
222	460
223	5354
224	1321
225	840
226	370
227	560
228	180
229	240
231	150
233	240
234	130
235	370
236	600
237	910
238	1331
239	980
240	350
241	530
242	520
243	170
245	110
246	100
247	210
248	170
249	200
250	120
251	360
252	180
253	660
254	300
255	700
256	310
257	210
258	100
259	240
260	120
261	280
262	310
263	340
264	140
265	170
266	160
267	330
268	390
269	360
270	90
273	100
274	160
275	240
276	150
277	930
278	300
279	1020
280	290
281	210
283	110
284	80
285	130
289	90
291	180
292	110
293	150
294	200
295	970
296	280
297	320
298	300
299	150
300	90
305	190
307	190
309	110
310	90
311	110
312	710
313	830
314	210
315	160
321	100
322	140
323	590
324	290
325	400
326	180
327	150
331	640
332	140
333	230
336	130
339	140
340	540
341	200
342	950
343	280
349	1341
350	340
351	440
352	110
354	280
355	90
359	440
360	120
361	260
372	410
373	110
390	120
408	150
