Mass Spectrum: Benzamide, 4-fluoro-N-(1-naphtyl)-
Formula: C17 H12 F N O
CAS: 442-72-8
Molecular weight: 265
Origin: Zaikin V.G., TIPS RAS, Moscow, Russia
m/z	RELATIVE INTENSITY
28	10
39	40
50	40
51	40
63	70
65	30
74	30
75	280
76	40
88	30
89	100
94	60
95	2242
96	180
113	60
114	110
115	811
116	140
122	30
123	9999
124	671
125	40
126	30
127	40
140	130
141	70
142	60
143	320
144	380
145	30
234	30
235	40
264	20
265	4664
266	821
267	80
