Mass Spectrum: 1-Propanethiol, 3-(trimethoxysilyl)-
Formula: C6 H16 O3 S Si
CAS: 4420-74-0
Molecular weight: 196
Origin: Japan AIST/NIMC Database- Spectrum MS-NW-7590
m/z	RELATIVE INTENSITY
14	10
15	99
27	70
28	109
29	119
30	30
31	189
32	99
33	10
34	10
35	10
38	10
39	199
40	20
41	279
42	99
43	40
44	40
45	419
46	90
47	359
48	20
49	10
53	10
55	20
56	10
57	20
58	60
59	1709
60	389
61	1149
62	90
63	109
64	10
65	10
66	10
68	20
69	20
71	50
72	10
73	30
74	349
75	129
76	119
77	389
78	40
79	60
81	10
83	10
85	40
86	10
87	99
88	10
89	40
90	759
91	5679
92	539
93	689
94	70
95	70
96	10
97	10
98	40
99	109
100	30
101	119
102	50
103	99
104	419
105	189
106	609
107	169
108	80
109	50
110	10
111	10
113	10
115	20
116	10
117	279
118	50
119	60
120	119
121	9999
122	979
123	5379
124	459
125	499
126	40
127	20
129	10
130	40
131	339
132	259
133	1349
134	189
135	189
136	2109
137	469
138	219
139	30
147	20
148	10
149	50
150	10
151	20
152	10
153	20
154	30
155	20
156	10
157	30
159	10
161	10
162	40
163	159
164	8629
165	1109
166	809
167	119
168	30
169	10
171	10
178	20
180	10
181	10
193	10
194	10
195	20
196	60
197	20
198	10
