Mass Spectrum: 9H-Fluorene, 9-methylene-
Formula: C14 H10
CAS: 4425-82-5
Molecular weight: 178
Origin: ASES Database, Dalian Institute, P.R. China
m/z	RELATIVE INTENSITY
51	650
52	440
63	1000
74	650
75	550
76	1121
77	430
87	660
88	540
89	1541
90	750
102	870
114	440
115	880
126	880
127	650
139	780
140	430
150	860
151	1331
152	1871
153	540
175	540
176	3002
177	1761
178	9999
179	2191
