Mass Spectrum: Heptane, 1-isothiocyanato-
Formula: C8 H15 N S
CAS: 4426-83-9
Molecular weight: 157
Origin: RADIAN CORP
m/z	RELATIVE INTENSITY
26	140
27	920
28	320
29	1020
30	120
32	60
37	20
38	130
39	1340
40	440
41	3940
42	1030
43	2680
44	290
45	370
46	50
50	50
51	110
52	90
53	380
54	380
55	2500
56	1160
57	2930
58	380
59	390
60	460
61	40
62	80
65	60
66	30
67	280
68	410
69	940
70	880
71	340
72	3630
73	480
74	640
75	260
76	60
77	30
79	110
80	40
81	270
82	770
83	270
84	190
85	190
86	400
87	110
88	70
94	70
95	110
96	490
97	350
98	190
99	130
100	1570
101	1070
102	160
103	50
107	160
108	30
109	50
110	10
114	2420
115	9999
116	910
117	480
122	70
124	2900
125	300
128	330
129	380
130	40
142	270
156	200
157	110
