Mass Spectrum: Butane, 2-isothiocyanato-
Formula: C5 H9 N S
CAS: 4426-79-3
Molecular weight: 115
Origin: NIST Mass Spectrometry Data Center
m/z	RELATIVE INTENSITY
25	10
26	100
27	621
28	220
29	971
30	20
32	80
33	10
36	10
37	50
38	110
39	971
40	210
41	3423
42	200
44	120
45	120
46	20
49	20
50	110
51	170
52	120
53	190
54	110
55	641
56	2793
57	2772
58	571
59	871
60	1081
61	70
62	60
64	20
67	20
68	20
69	70
70	180
71	150
72	931
73	70
74	50
82	50
83	130
84	270
85	80
86	4034
87	190
88	190
96	10
98	40
99	10
100	260
101	10
102	10
114	40
115	9999
116	671
117	470
118	30
