Mass Spectrum: Hexadecyl isothiocyanate
Formula: C17 H33 N S
CAS: 4426-87-3
Molecular weight: 283
Origin: NIST Mass Spectrometry Data Center, 1994
m/z	RELATIVE INTENSITY
18	99
27	1640
28	234
29	4533
30	487
39	1397
41	9999
42	1798
43	9269
44	550
45	190
53	560
54	984
55	8851
56	1909
57	4412
58	295
59	172
60	229
62	88
65	94
67	1050
68	654
69	3832
70	1240
71	1330
72	2099
73	144
74	315
75	242
76	107
77	82
79	251
80	107
81	472
82	897
83	1703
84	640
85	547
86	295
87	128
88	90
89	55
93	153
94	70
95	397
96	2463
97	800
98	312
99	170
100	481
101	1000
102	141
103	64
107	94
108	108
109	207
110	992
111	228
112	266
113	64
114	1053
115	9194
116	766
117	424
121	90
122	107
123	143
124	387
125	69
126	133
127	69
128	1203
129	1382
130	172
131	64
135	59
136	74
138	224
140	109
142	268
143	73
152	241
154	55
156	119
166	299
168	70
170	81
180	310
181	56
184	68
194	354
195	57
198	61
208	435
209	79
222	229
226	70
240	92
250	8613
251	1764
252	153
254	89
282	170
283	61
