Mass Spectrum: Cycloheptadecanol
Formula: C17 H34 O
CAS: 4429-77-0
Molecular weight: 254
m/z	RELATIVE INTENSITY
13	10
15	10
17	50
18	20
19	30
25	10
26	90
27	1051
28	350
29	2983
30	70
31	581
32	50
35	10
36	10
37	10
38	10
39	811
40	320
41	8257
42	2392
43	6296
44	1271
45	721
46	10
48	10
49	10
51	50
52	20
53	721
54	2362
55	9999
56	2492
57	8277
58	861
59	160
60	30
62	10
63	20
64	10
65	120
66	1131
67	4854
68	5345
69	5665
70	1651
71	2853
72	470
73	160
74	10
75	10
76	10
77	110
78	70
79	400
80	530
81	4664
82	9749
83	5165
84	1151
85	1321
86	170
87	30
88	10
89	20
90	30
91	90
92	20
93	190
94	400
95	3703
96	6986
97	3473
98	741
99	480
100	50
101	20
103	10
104	20
105	10
107	70
108	210
109	2172
110	2292
111	1331
112	390
113	220
114	40
115	20
116	10
117	20
118	10
119	20
120	10
121	60
122	170
123	1371
124	1431
125	571
126	180
127	120
128	20
129	10
130	10
131	10
132	10
133	10
135	50
136	140
137	901
138	961
139	210
140	180
141	80
142	10
143	10
145	20
146	10
147	30
149	40
150	10
151	310
152	460
153	70
154	220
155	50
156	30
158	20
159	10
160	10
161	10
162	10
163	10
164	10
165	150
166	340
167	80
168	150
169	70
170	20
171	10
173	10
174	10
175	10
177	10
178	20
179	240
180	430
181	70
182	70
183	30
184	30
185	10
186	10
187	10
189	10
190	10
191	20
192	10
193	150
194	250
195	60
196	20
197	40
200	20
202	10
203	10
205	20
207	140
208	981
209	160
210	210
211	50
212	20
215	10
216	10
218	10
221	10
222	10
223	10
225	10
226	10
232	10
234	30
235	10
236	3573
237	651
238	100
239	20
252	70
253	70
254	80
255	20
259	10
