Mass Spectrum: 1,4-Butane diisothiocyanate
Formula: C6 H8 N2 S2
CAS: 4430-51-7
Molecular weight: 172
Origin: NIST Mass Spectrometry Data Center, 1994
m/z	RELATIVE INTENSITY
13	17
14	32
15	164
26	424
27	2478
28	1112
29	1330
30	347
31	32
32	359
33	52
34	46
36	16
37	96
38	263
39	1910
40	439
41	1283
42	259
43	116
44	454
45	1334
46	163
47	73
49	25
50	116
51	217
52	166
53	457
54	351
55	2465
56	193
57	162
58	1084
59	1008
60	762
61	68
62	37
64	82
66	34
67	97
68	185
69	106
70	352
71	34
72	9999
73	400
74	1010
75	45
76	52
78	156
79	36
80	151
81	68
82	47
83	49
84	36
85	3621
86	514
87	274
88	27
95	28
96	290
97	72
98	255
99	29
100	45
105	24
106	16
107	57
108	90
111	100
112	156
113	380
114	476
115	71
116	25
117	36
125	87
126	47
131	69
139	1311
140	109
141	64
142	47
143	441
144	76
145	80
171	455
172	1414
173	175
174	119
175	14
