Mass Spectrum: N-tert-Butylethylamine
Formula: C6 H15 N
CAS: 4432-77-3
Molecular weight: 101
Origin: Japan AIST/NIMC Database- Spectrum MS-NW-3359
m/z	RELATIVE INTENSITY
14	20
15	239
26	50
27	449
28	329
29	779
30	1689
31	90
32	30
37	10
38	30
39	389
40	80
41	1069
42	909
43	139
44	949
45	50
46	50
50	20
51	20
52	20
53	40
54	50
55	189
56	219
57	979
58	3709
59	229
67	10
68	30
69	20
70	209
71	99
72	80
78	10
82	10
84	119
85	70
86	9999
87	619
88	20
100	20
101	309
102	20
