Mass Spectrum: 4-Morpholineethanol, .alpha.-phenyl-
Formula: C12 H17 N O2
CAS: 4432-34-2
Molecular weight: 207
m/z	RELATIVE INTENSITY
15	131
18	56
27	119
28	391
29	216
30	128
31	29
32	26
39	99
40	21
41	161
42	316
43	200
44	97
45	63
50	69
51	223
52	53
53	35
54	69
55	51
56	1066
57	135
58	42
63	59
64	21
65	120
66	21
68	21
70	184
71	46
72	85
73	26
74	33
75	29
76	37
77	583
78	134
79	229
80	22
85	21
86	91
87	27
89	61
90	54
91	629
92	61
93	33
98	39
100	9999
101	626
102	92
103	297
104	119
105	569
106	65
107	97
108	29
110	28
115	38
117	116
118	109
119	40
120	59
121	41
130	72
131	27
132	39
137	46
138	46
139	23
165	26
169	23
172	38
174	41
176	4257
177	571
178	50
184	32
206	39
207	96
