Mass Spectrum: [1,1'-Biphenyl]-4,4'-diol, 3,3'-dimethoxy-
Formula: C14 H14 O4
CAS: 4433-09-4
Molecular weight: 246
Origin: Y. NAKAGAWA, SHIONOGI RES. LAB., FUKUSHIMA-KU, OSAKA, JAPAN
m/z	RELATIVE INTENSITY
51	270
53	140
55	140
63	180
65	130
77	260
80	370
89	170
94	210
102	140
103	140
105	130
109	120
115	380
123	840
124	260
131	350
157	140
160	630
171	210
185	240
188	720
189	140
199	140
203	2860
204	390
216	160
217	190
231	2320
232	750
246	9999
247	1570
248	190
