Mass Spectrum: 9-Undecen-2-one, 6,10-dimethyl-
Formula: C13 H24 O
CAS: 4433-36-7
Molecular weight: 196
m/z	RELATIVE INTENSITY
41	7006
42	3103
43	9999
44	1501
53	3203
54	901
55	6005
56	5005
57	2202
58	4504
59	2202
67	3303
68	4004
69	7507
70	4004
71	5705
72	1101
73	1401
74	400
81	3003
82	4604
83	4104
84	1501
85	3503
93	1802
94	1001
95	5005
96	3503
97	3003
107	1101
108	1601
109	4504
110	1501
111	3403
112	1001
113	1101
121	1301
122	1101
123	3703
124	801
125	1101
126	1001
135	801
136	1201
137	500
138	1802
139	1301
140	400
141	500
142	300
153	601
154	100
163	1001
164	200
178	500
179	100
196	1001
197	100
