Mass Spectrum: Furan, 2,2'-[oxybis(methylene)]bis-
Formula: C10 H10 O3
CAS: 4437-22-3
Molecular weight: 178
m/z	RELATIVE INTENSITY
27	971
29	230
38	130
39	821
41	490
50	100
51	280
52	230
53	1972
54	430
69	380
80	180
81	9999
82	4684
83	260
95	330
96	130
97	871
110	380
178	671
179	70
