Mass Spectrum: 3,4-Hexanedione
Formula: C6 H10 O2
CAS: 4437-51-8
Molecular weight: 114
Origin: NIST Mass Spectrometry Data Center
m/z	RELATIVE INTENSITY
12	10
13	20
14	80
15	120
17	10
18	10
19	10
26	941
27	3433
28	771
29	6256
30	170
37	50
38	100
39	200
40	30
41	90
42	410
43	100
50	20
51	20
52	10
53	110
54	20
55	220
57	9999
58	430
67	10
71	50
85	30
99	20
114	1371
115	90
116	10
