Mass Spectrum: 2-Bromo-4,6-difluoroaniline
Formula: C6 H4 Br F2 N
CAS: 444-14-4
Molecular weight: 207
Origin: NIST Mass Spectrometry Data Center
m/z	RELATIVE INTENSITY
12	40
13	10
16	110
17	20
18	30
19	20
20	40
24	30
25	120
26	160
27	110
28	1091
31	3323
32	120
33	190
36	190
37	721
38	460
39	200
40	100
41	40
44	360
46	170
47	50
48	110
49	360
50	1621
51	1942
52	2182
53	300
55	500
56	1311
57	1351
58	100
59	40
60	240
61	1081
62	731
64	1161
65	170
66	20
67	50
68	390
69	250
70	440
71	80
72	160
73	90
74	410
75	1882
76	1121
77	350
78	550
79	951
80	1051
81	2893
82	871
83	380
84	60
86	90
87	80
88	140
89	110
90	40
91	60
92	130
93	140
94	120
96	130
97	30
99	1672
100	3093
101	5585
102	530
103	821
104	771
106	240
107	951
108	5715
109	520
110	50
111	60
112	70
113	50
115	10
116	40
117	20
118	20
119	30
121	10
124	50
126	581
127	2482
128	4684
129	460
130	70
131	130
132	30
134	40
135	80
136	40
137	90
150	10
153	30
154	10
155	20
156	20
158	20
159	50
160	70
161	100
162	50
163	40
176	40
177	10
178	70
179	440
180	40
181	440
182	30
186	30
187	110
188	70
189	90
203	10
207	9999
208	1171
209	9809
210	681
211	20
