Mass Spectrum: Phenol, 2-(trifluoromethyl)-
Formula: C7 H5 F3 O
CAS: 444-30-4
Molecular weight: 162
Origin: J.E. WILKINSON S-CUBED, SAN DIEGO, CA.
m/z	RELATIVE INTENSITY
50	77
51	190
63	202
69	617
75	196
88	356
92	219
95	89
113	172
114	9999
115	273
120	243
142	5948
143	1394
162	9169
163	208
