Mass Spectrum: Benzene, 1-iodo-2-(trifluoromethyl)-
Formula: C7 H4 F3 I
CAS: 444-29-1
Molecular weight: 272
Origin: Japan AIST/NIMC Database- Spectrum MS-NW-8810
m/z	RELATIVE INTENSITY
26	10
27	40
28	30
31	70
37	60
38	90
39	119
49	60
50	749
51	229
56	20
57	179
61	30
62	60
63	40
68	80
69	389
70	10
73	80
74	469
75	1229
76	369
77	40
79	10
80	40
81	80
82	10
85	10
87	20
88	20
92	20
93	80
94	179
95	1699
96	109
99	239
100	60
101	20
104	10
105	10
106	20
107	70
111	10
114	30
118	40
119	169
120	10
123	30
124	10
125	989
126	459
127	289
128	50
136	279
141	20
143	159
144	249
145	8739
146	669
147	20
161	20
176	10
253	489
254	30
271	10
272	9999
273	759
274	20
