Mass Spectrum: 3-Hexenal
Formula: C6 H10 O
CAS: 4440-65-7
Molecular weight: 98
Origin: NIST Mass Spectrometry Data Center
m/z	RELATIVE INTENSITY
14	10
15	60
25	10
26	200
27	1341
28	250
29	1491
30	30
31	40
36	10
37	170
38	420
39	3523
40	490
41	9999
42	1902
43	1031
44	90
45	10
48	10
49	70
50	460
51	621
52	240
53	1471
54	621
55	3984
56	731
57	240
58	20
60	10
61	90
62	150
63	190
64	30
65	300
66	90
67	701
68	180
69	5165
70	1491
71	90
72	10
73	10
74	20
75	10
77	80
78	40
79	270
80	1581
81	230
83	1501
84	80
85	10
95	20
96	10
97	360
98	931
99	60
