Mass Spectrum: Cyclohexaneethanol
Formula: C8 H16 O
CAS: 4442-79-9
Molecular weight: 128
Origin: NIST Mass Spectrometry Data Center, 1990.
m/z	RELATIVE INTENSITY
14	37
26	120
27	1099
28	304
29	1216
31	1239
39	2555
40	567
41	4326
42	633
43	727
44	223
50	152
51	362
52	209
53	1301
54	2690
55	7792
56	683
57	534
65	397
67	9268
68	2487
69	1239
70	138
77	362
78	129
79	931
81	9999
82	8521
83	1809
91	189
95	1819
96	155
97	107
109	243
110	1780
111	163
