Mass Spectrum: Eicosane, 3-cyclohexyl-
Formula: C26 H52
CAS: 4443-57-6
Molecular weight: 364
m/z	RELATIVE INTENSITY
36	10
37	20
38	30
39	881
40	210
41	7687
42	1621
43	9058
44	310
45	10
47	10
48	10
49	10
50	20
51	50
52	40
53	460
54	981
55	9378
56	2332
57	7056
58	320
59	10
61	10
62	10
63	10
64	10
65	80
66	90
67	2282
68	631
69	5375
70	1491
71	3653
72	200
73	10
74	10
75	10
76	10
77	80
78	30
79	190
80	90
81	901
82	9008
83	9999
84	1121
85	2432
86	160
87	10
88	10
89	10
90	10
91	60
92	20
93	60
94	30
95	400
96	561
97	2502
98	440
99	591
100	50
101	10
102	10
103	10
104	10
105	30
106	10
107	20
108	20
109	220
110	190
111	1281
112	280
113	380
114	40
115	10
116	10
117	10
118	10
119	10
120	10
121	10
122	10
123	80
124	981
125	3103
126	430
127	270
128	30
129	10
130	10
131	10
132	10
133	10
134	10
135	10
136	10
137	40
138	90
139	310
140	140
141	200
142	20
143	10
144	10
145	10
147	10
148	10
149	10
150	10
151	10
152	50
153	190
154	90
155	150
156	20
157	10
158	10
165	10
166	40
167	130
168	80
169	120
170	20
171	10
179	10
180	30
181	100
182	60
183	90
184	10
193	10
194	20
195	80
196	50
197	80
198	10
199	10
200	10
201	10
202	10
203	10
207	10
208	20
209	60
210	40
211	60
212	10
213	10
222	10
223	50
224	40
225	40
226	10
227	10
230	20
231	10
233	10
234	10
235	10
236	10
237	40
238	30
239	40
240	10
241	10
249	10
250	10
251	40
252	140
253	70
254	10
255	10
256	10
263	10
264	10
265	20
266	20
267	10
268	10
269	10
270	10
277	10
278	10
279	30
280	901
281	500
282	90
283	10
284	10
291	10
292	10
293	10
294	10
295	10
306	30
307	80
308	20
309	10
310	10
320	10
321	30
322	10
332	10
333	10
334	260
335	991
336	270
337	40
338	10
339	10
348	10
349	10
350	10
362	10
363	10
364	10
365	10
