Mass Spectrum: Cyclohexane, (1-butylhexadecyl)-
Formula: C26 H52
CAS: 4443-59-8
Molecular weight: 364
m/z	RELATIVE INTENSITY
15	10
16	20
17	10
18	60
24	10
25	20
26	110
27	1061
28	310
29	3303
30	80
37	20
38	20
39	530
40	120
41	6726
42	1351
43	9999
44	330
45	10
50	10
51	20
52	20
53	300
54	921
55	9529
56	2472
57	9649
58	420
59	10
65	50
66	80
67	2332
68	651
69	4144
70	1361
71	5585
72	300
73	10
77	50
78	10
79	150
80	70
81	851
82	7397
83	7867
84	1081
85	3353
86	220
87	10
90	10
91	50
92	10
93	50
94	30
95	400
96	771
97	3833
98	550
99	771
100	60
101	10
103	10
104	10
105	10
106	10
107	20
108	20
109	260
110	180
111	1471
112	300
113	500
114	40
115	10
117	10
118	10
119	10
120	10
121	10
122	10
123	50
124	120
125	591
126	190
127	350
128	40
129	10
133	10
135	10
136	10
137	30
138	90
139	340
140	130
141	260
142	30
143	10
147	10
149	10
150	10
151	20
152	761
153	1581
154	260
155	200
156	20
157	10
165	10
166	60
167	180
168	80
169	150
170	20
171	10
179	10
180	40
181	120
182	70
183	120
184	20
185	10
193	10
194	30
195	80
196	50
197	100
198	10
199	10
203	10
207	10
208	20
209	70
210	40
211	90
212	10
213	10
221	10
222	20
223	60
224	30
225	60
226	10
235	10
236	10
237	40
238	20
239	30
240	10
250	10
251	20
252	70
253	20
254	10
263	10
264	10
265	10
266	10
267	10
278	10
279	10
280	1091
281	641
282	110
292	10
293	20
294	10
295	10
305	10
306	240
307	601
308	140
309	20
310	10
320	10
321	10
322	10
334	10
335	10
336	10
362	10
363	10
364	10
365	10
