Mass Spectrum: Eicosane, 2-cyclohexyl-
Formula: C26 H52
CAS: 4443-56-5
Molecular weight: 364
m/z	RELATIVE INTENSITY
36	10
37	10
38	20
39	540
40	140
41	4654
42	1071
43	5525
44	190
45	10
47	10
48	10
49	10
50	10
51	30
52	20
53	270
54	601
55	5995
56	1541
57	3954
58	180
59	10
60	10
61	10
62	10
63	10
64	10
65	40
66	50
67	1521
68	410
69	3183
70	781
71	1872
72	100
73	10
74	10
75	10
76	10
77	40
78	20
79	100
80	50
81	480
82	9999
83	7647
84	781
85	1161
86	80
87	10
88	10
89	10
90	10
91	40
92	10
93	30
94	10
95	150
96	190
97	1131
98	240
99	260
100	20
101	10
102	10
103	10
104	10
105	20
106	10
107	10
108	10
109	100
110	851
111	3503
112	410
113	170
114	20
115	10
116	10
117	10
118	10
119	10
120	10
121	10
122	10
123	30
124	70
125	250
126	110
127	120
128	10
129	10
130	10
131	10
132	10
133	10
134	10
135	10
136	10
137	10
138	40
139	100
140	70
141	80
142	10
143	10
144	10
145	10
146	10
147	10
149	10
150	10
151	10
152	30
153	60
154	50
155	60
156	10
157	10
158	10
159	10
160	10
161	10
164	10
165	10
166	20
167	50
168	40
169	50
170	10
171	10
177	10
178	10
179	10
180	20
181	30
182	30
183	40
184	10
193	10
194	10
195	20
196	30
197	30
198	10
199	10
200	10
201	10
202	10
203	10
206	10
207	10
208	10
209	20
210	20
211	30
212	10
213	10
214	10
215	10
216	10
217	10
218	10
219	10
222	10
223	10
224	20
225	20
226	10
227	10
228	10
229	10
230	10
231	10
236	10
237	10
238	20
239	10
240	10
241	10
242	10
250	10
251	10
252	50
253	10
254	10
256	10
264	10
265	10
266	10
267	10
268	10
269	10
277	10
278	10
279	10
280	581
281	320
282	60
283	10
292	10
293	10
294	10
295	10
296	10
306	10
307	10
308	10
309	10
320	10
321	10
322	10
334	10
335	20
336	10
348	10
349	20
350	10
351	10
352	10
358	10
362	10
363	10
364	30
365	10
366	10
