Mass Spectrum: Eicosane, 9-cyclohexyl-
Formula: C26 H52
CAS: 4443-61-2
Molecular weight: 364
m/z	RELATIVE INTENSITY
36	10
37	20
38	30
39	691
40	150
41	7056
42	1231
43	9579
44	330
45	10
46	10
48	10
49	10
50	20
51	30
52	30
53	370
54	1021
55	9869
56	2322
57	9999
58	450
59	10
60	10
61	10
62	10
63	10
64	10
65	70
66	100
67	2472
68	701
69	4054
70	1421
71	5555
72	330
73	10
74	10
75	10
76	10
77	80
78	20
79	220
80	100
81	1011
82	6596
83	7257
84	1121
85	3843
86	260
87	10
90	10
91	110
92	20
93	70
94	40
95	470
96	1111
97	4284
98	671
99	1181
100	90
101	10
103	10
104	10
105	20
106	10
107	20
108	20
109	310
110	230
111	2122
112	420
113	771
114	70
115	10
116	10
117	10
118	10
119	10
120	10
121	10
122	10
123	80
124	160
125	1171
126	280
127	530
128	50
129	10
130	10
131	10
132	10
133	10
134	10
135	10
136	10
137	40
138	120
139	631
140	190
141	340
142	40
143	10
144	10
145	10
146	10
147	10
148	10
149	10
150	10
151	20
152	90
153	390
154	140
155	270
156	30
157	10
161	10
163	10
164	10
165	10
166	60
167	230
168	100
169	210
170	30
171	10
179	10
180	60
181	150
182	70
183	150
184	20
185	10
189	10
191	10
192	10
193	10
194	50
195	110
196	50
197	110
198	20
199	10
200	10
201	10
202	10
203	10
204	10
205	10
206	10
207	10
208	410
209	651
210	130
211	90
212	10
213	10
221	10
222	40
223	50
224	20
225	50
226	10
227	10
235	10
236	20
237	40
238	20
239	20
240	10
245	10
249	10
250	250
251	410
252	140
253	20
254	10
263	10
264	10
265	10
266	10
267	10
268	10
273	10
277	10
278	10
279	10
280	701
281	460
282	80
283	10
284	10
292	10
293	10
294	10
295	10
306	10
307	10
308	10
309	10
358	10
362	10
363	10
364	10
365	10
