Mass Spectrum: Cyclohexane, octadecyl-
Formula: C24 H48
CAS: 4445-06-1
Molecular weight: 336
Origin: Japan AIST/NIMC Database- Spectrum MS-NW-6125
m/z	RELATIVE INTENSITY
26	20
27	149
28	60
29	489
30	10
36	10
39	119
40	30
41	1269
42	249
43	1809
44	60
51	10
52	10
53	90
54	239
55	2379
56	509
57	1519
58	80
65	20
66	30
67	709
68	319
69	1009
70	349
71	719
72	50
77	20
78	10
79	50
80	20
81	269
82	9999
83	6919
84	599
85	439
86	30
91	10
93	10
94	10
95	109
96	399
97	949
98	179
99	99
100	10
109	60
110	129
111	479
112	119
113	70
114	10
122	10
123	20
124	70
125	219
126	90
127	40
137	20
138	60
139	179
140	70
141	30
149	10
150	10
151	30
152	40
153	99
154	60
155	30
165	10
166	30
167	70
168	60
169	20
180	30
181	60
182	40
183	20
189	10
194	20
195	50
196	30
197	10
208	20
209	30
210	20
211	10
222	10
223	30
224	70
225	20
236	10
237	20
238	20
239	10
250	10
251	10
252	429
253	179
254	30
264	10
265	10
266	10
278	10
279	10
280	10
293	10
307	10
308	20
309	10
334	20
335	20
336	1949
337	549
338	80
