Mass Spectrum: 5-Fluoro-2-methylbenzenesulphonyl chloride
Formula: C7 H6 Cl F O2 S
CAS: 445-05-6
Molecular weight: 208
Origin: NIST Mass Spectrometry Data Center
m/z	RELATIVE INTENSITY
15	40
16	30
17	40
18	110
25	10
26	150
27	160
28	20
31	300
32	100
33	270
35	320
36	130
37	280
38	380
39	1221
40	40
43	70
44	200
45	330
46	60
48	1261
49	180
50	891
51	901
52	130
53	60
54	70
56	310
57	2762
58	180
59	400
60	70
61	410
62	891
63	1882
64	771
65	561
66	40
67	40
68	210
69	510
70	290
71	80
72	10
73	80
74	170
75	420
76	120
77	290
78	50
79	40
80	240
81	1271
83	6806
84	430
85	180
86	270
87	370
88	170
89	801
90	70
91	10
92	50
93	170
94	140
95	520
96	540
97	180
99	100
100	10
101	30
102	20
103	20
104	40
105	150
107	3413
108	5855
109	9999
110	891
111	50
112	10
113	60
115	20
117	50
119	30
121	10
122	10
123	30
124	70
125	190
127	1732
128	140
129	100
139	200
140	20
141	30
142	60
143	270
144	50
145	110
146	20
155	2943
156	260
157	190
158	20
173	3974
174	360
175	210
176	10
191	40
193	10
208	2562
209	250
210	1031
211	80
212	50
