Mass Spectrum: ortho-Fluorobenzamide
Formula: C7 H6 F N O
CAS: 445-28-3
Molecular weight: 139
Origin: NIST Mass Spectrometry Data Center, 1994
m/z	RELATIVE INTENSITY
27	96
28	89
31	127
37	183
38	184
39	190
43	102
44	924
45	109
49	188
50	931
51	492
52	113
56	102
57	233
61	176
62	175
63	263
64	66
68	487
69	652
70	379
73	210
74	904
75	2875
76	348
77	62
81	75
83	206
90	53
92	134
93	172
94	591
95	4747
96	811
102	93
121	209
123	9999
124	783
139	6994
140	552
