Mass Spectrum: Benzene, 4-bromo-1-chloro-2-(trifluoromethyl)-
Formula: C7 H3 Br Cl F3
CAS: 445-01-2
Molecular weight: 258
Origin: Japan AIST/NIMC Database- Spectrum MS-IW-1262
m/z	RELATIVE INTENSITY
31	80
36	30
37	149
38	109
39	20
43	10
47	10
48	10
49	99
50	359
51	90
55	30
56	40
57	50
60	30
61	99
62	269
63	40
64	10
67	20
68	90
69	479
70	20
71	10
72	80
73	269
74	1009
75	1119
76	60
79	50
80	199
81	80
82	10
84	129
85	149
86	60
87	60
89	379
90	119
91	90
92	80
93	279
94	309
95	60
98	10
99	269
100	20
101	10
102	20
103	30
104	60
105	30
106	20
108	30
109	259
110	179
111	119
112	80
113	10
115	20
116	10
117	40
118	60
119	99
120	109
121	20
122	10
123	129
124	50
125	659
126	50
128	40
129	439
130	159
131	139
132	10
133	10
135	10
137	10
141	10
142	20
143	749
144	1469
145	159
148	10
152	10
153	60
154	20
155	40
159	229
160	159
161	99
162	50
163	10
173	10
177	10
178	80
179	4599
180	469
181	1519
182	139
189	30
191	40
193	10
208	269
209	20
210	349
211	20
212	80
213	10
223	639
224	50
225	639
226	50
229	10
239	609
240	50
241	799
242	60
243	199
244	10
257	30
258	7699
259	629
260	9999
261	779
262	2449
263	189
