Mass Spectrum: 2-Fluorophenylmethylcarbinol
Formula: C8 H9 F O
CAS: 445-26-1
Molecular weight: 140
Origin: NIST Mass Spectrometry Data Center
m/z	RELATIVE INTENSITY
14	10
15	80
19	20
26	30
27	150
28	20
29	190
30	10
31	50
33	20
37	40
38	90
39	260
40	20
41	20
42	40
43	1261
44	80
45	320
46	20
47	10
48	20
49	60
50	571
51	1081
52	120
53	40
54	10
55	20
56	40
57	250
58	10
59	30
60	60
61	90
62	621
64	40
65	120
66	20
68	160
69	280
70	310
71	50
72	10
73	60
74	360
75	1011
76	270
77	2793
78	240
79	20
80	20
81	110
82	20
83	140
84	20
85	20
86	30
87	40
88	10
89	70
90	20
91	240
92	70
93	60
94	170
95	1151
96	1281
97	5635
98	410
99	30
100	20
101	300
102	90
103	290
104	60
105	811
106	70
107	110
108	20
109	250
110	20
111	30
112	10
119	20
120	130
121	180
122	220
123	991
125	9999
126	811
127	50
138	20
139	160
140	1762
141	150
142	10
