Mass Spectrum: Dicyclohexylmethanol
Formula: C13 H24 O
CAS: 4453-82-1
Molecular weight: 196
Origin: Chuck Anderson, Aldrich Chemical Co.
m/z	RELATIVE INTENSITY
18	5
26	20
27	318
28	95
29	498
30	6
31	127
39	322
40	49
41	1272
42	106
43	230
44	40
45	95
51	32
52	17
53	192
54	161
55	1456
56	159
57	272
58	16
65	74
66	81
67	1165
68	651
69	655
70	387
71	132
77	139
78	37
79	375
80	112
81	440
82	728
83	843
84	112
91	63
93	245
94	452
95	9999
96	854
97	609
98	43
109	12
111	43
112	1518
113	3189
114	256
115	118
135	3
178	86
179	3
