Mass Spectrum: Ethyl (methylthio)acetate
Formula: C5 H10 O2 S
CAS: 4455-13-4
Molecular weight: 134
Origin: Chuck Anderson, Aldrich Chemical Co.
m/z	RELATIVE INTENSITY
12	1
13	14
14	153
15	381
16	15
19	21
25	7
26	192
27	2441
28	257
29	4766
30	143
31	319
32	23
33	21
34	27
35	1802
36	18
37	73
39	12
40	3
41	85
42	908
43	439
44	74
45	1496
46	828
47	566
48	171
49	53
50	5
57	21
58	70
59	239
60	832
61	9999
62	414
63	508
64	30
65	2
70	519
71	21
72	9
73	40
74	19
75	181
76	6
77	156
78	3
79	5
87	14
88	5755
89	741
90	115
91	69
92	24
105	35
106	57
107	3
119	31
134	6976
135	428
136	334
137	16
