Mass Spectrum: 1,5-Dibromo-3-methylpentane
Formula: C6 H12 Br2
CAS: 4457-72-1
Molecular weight: 242
Origin: NIST Mass Spectrometry Data Center, 1990.
m/z	RELATIVE INTENSITY
26	296
27	1798
28	298
29	955
38	207
39	1828
40	347
41	2867
42	229
43	635
50	232
51	340
52	158
53	912
54	158
55	9999
56	849
57	241
65	182
67	1056
68	118
69	1193
70	72
79	170
80	117
81	258
82	72
83	7304
84	469
93	248
95	272
107	638
108	95
109	564
119	91
121	235
123	143
135	390
137	307
162	1158
163	437
164	1091
165	421
