Mass Spectrum: Oxacyclohexadecan-2-one, 16-methyl-
Formula: C16 H30 O2
CAS: 4459-57-8
Molecular weight: 254
Origin: HCACAV,61(7)2671(1978); R. KAISER AND D. LAMPARSKY
m/z	RELATIVE INTENSITY
41	7100
43	4300
55	9999
56	3800
69	6600
72	3800
83	4400
84	3400
97	3600
98	3600
111	1700
125	1200
137	500
152	1100
192	500
210	800
218	300
236	1600
254	300
