Mass Spectrum: 3-Fluoro-4-nitrotoluene
Formula: C7 H6 F N O2
CAS: 446-34-4
Molecular weight: 155
Origin: Chuck Anderson, Aldrich Chemical Co.
m/z	RELATIVE INTENSITY
18	19
26	113
27	335
28	71
30	1846
31	450
32	4
33	122
36	31
37	159
38	307
39	1377
40	73
41	24
43	31
44	44
45	42
46	230
47	5
49	83
50	632
51	980
52	175
53	85
55	4
56	181
57	2244
58	111
59	837
60	45
61	333
62	745
63	2016
64	209
65	110
68	328
69	280
70	342
71	223
73	72
74	319
75	358
76	122
77	2386
78	209
79	39
80	184
81	1136
82	347
83	8067
84	454
85	163
86	214
87	214
88	97
89	923
90	87
92	54
93	76
94	154
95	1235
96	561
97	2357
98	150
104	30
105	149
106	48
107	2244
108	539
109	3437
110	257
122	39
124	94
125	4573
126	351
127	4
139	639
140	47
153	4
155	9999
156	745
157	61
