Mass Spectrum: 2,4,5-Trifluorobenzoic acid
Formula: C7 H3 F3 O2
CAS: 446-17-3
Molecular weight: 176
Origin: NIST Mass Spectrometry Data Center, 1994
m/z	RELATIVE INTENSITY
14	35
16	21
17	95
18	24
28	185
29	100
31	1495
32	48
36	108
37	366
38	124
44	241
45	1003
48	34
49	88
50	399
51	192
55	136
56	349
57	310
60	82
61	940
62	878
63	582
64	76
65	58
68	426
69	150
71	58
73	94
74	447
75	736
80	689
81	4293
82	325
86	194
87	199
88	136
92	264
93	159
98	60
99	507
100	379
101	285
106	90
110	117
111	215
112	825
113	89
119	105
128	291
129	57
131	5554
132	590
148	149
155	50
156	188
157	112
158	50
159	9999
160	790
161	52
176	7380
177	610
178	60
