Mass Spectrum: 2-Fluorobenzyl bromide
Formula: C7 H6 Br F
CAS: 446-48-0
Molecular weight: 188
Origin: NIST Mass Spectrometry Data Center
m/z	RELATIVE INTENSITY
18	10
20	10
25	20
26	90
33	90
36	20
37	180
38	310
39	621
40	30
44	180
49	120
50	571
51	400
52	70
54	90
56	170
57	891
58	50
60	20
61	240
62	450
63	741
64	80
65	20
68	80
69	90
70	110
71	10
75	90
76	50
77	10
79	310
80	130
81	721
82	230
83	2332
84	210
85	140
86	90
87	90
88	50
89	340
90	40
92	10
93	20
94	70
95	50
104	10
105	40
107	851
109	9999
110	771
111	30
143	10
188	390
189	50
190	380
191	20
