Mass Spectrum: Methanamine, N-butylidene-, N-oxide
Formula: C5 H11 N O
CAS: 44603-43-2
Molecular weight: 101
Origin: ORMSBG,10(12)1155(1975); O. THORSTAD
m/z	RELATIVE INTENSITY
41	9900
42	9999
43	3500
57	2700
58	200
59	3700
73	1000
86	1000
101	800
