Mass Spectrum: Benzaldehyde, 2,4,5-trimethoxy-
Formula: C10 H12 O4
CAS: 4460-86-0
Molecular weight: 196
Origin: Japan AIST/NIMC Database- Spectrum MS-NW-8007
m/z	RELATIVE INTENSITY
13	10
14	40
15	1039
16	10
18	20
25	10
26	99
27	229
28	369
29	339
30	30
31	119
37	99
38	279
39	829
40	50
41	309
42	40
43	279
44	10
45	119
47	10
49	70
50	579
51	909
52	439
53	989
54	109
55	179
56	30
57	30
59	649
60	20
61	109
62	249
63	349
64	189
65	609
66	319
67	259
68	50
69	989
70	30
71	20
73	20
74	90
75	159
76	139
77	569
78	159
79	589
80	269
81	229
82	319
83	80
84	50
85	40
89	10
90	30
91	90
92	219
93	649
94	209
95	749
96	90
97	209
98	109
99	10
102	10
103	10
104	40
105	80
106	60
107	439
108	189
109	709
110	1059
111	109
112	10
113	10
117	10
118	10
119	109
120	119
121	329
122	249
123	449
124	189
125	2019
126	169
127	20
133	60
134	60
135	459
136	529
137	419
138	449
139	619
140	60
141	10
147	10
148	60
149	129
150	2199
151	659
152	229
153	1459
154	159
155	20
162	10
163	70
164	90
165	449
166	129
167	559
168	60
169	10
178	219
179	889
180	289
181	5029
182	549
183	70
184	10
193	10
194	10
195	1249
196	9999
197	1229
198	159
199	10
