Mass Spectrum: Chloroacetyl isocyanate
Formula: C3 H2 Cl N O2
CAS: 4461-30-7
Molecular weight: 119
Origin: NIST Mass Spectrometry Data Center
m/z	RELATIVE INTENSITY
12	230
13	210
14	561
15	80
16	140
17	100
18	80
19	80
24	110
25	130
26	370
27	510
28	1481
29	450
30	250
35	601
36	130
37	270
38	410
39	290
40	651
41	460
42	2042
43	170
44	1481
47	510
48	961
49	2843
50	390
51	901
54	190
56	410
63	90
70	9999
71	280
75	581
77	2833
78	110
79	761
93	110
119	751
121	260
