Mass Spectrum: Benzoyl isocyanate
Formula: C8 H5 N O2
CAS: 4461-33-0
Molecular weight: 147
Origin: NIST Mass Spectrometry Data Center, 1994
m/z	RELATIVE INTENSITY
12	124
13	38
14	31
16	73
25	77
26	426
27	591
28	602
30	34
32	2
36	96
37	863
38	1279
39	975
40	108
41	73
42	664
43	111
44	445
46	65
48	79
49	513
50	3602
51	5277
52	503
53	200
54	48
60	139
61	241
62	303
63	599
64	671
65	145
66	25
70	949
71	25
72	36
73	308
74	1046
75	758
76	1248
77	9891
78	673
79	29
86	25
87	19
88	32
89	16
90	119
91	162
92	29
99	34
103	952
105	9999
106	770
107	49
121	20
147	3802
148	350
149	35
