Mass Spectrum: 3-(2,6-Dichlorophenyl)-5-methyl isoxazole-4-carbonyl chloride
Formula: C11 H6 Cl3 N O2
CAS: 4462-55-9
Molecular weight: 289
Origin: NIST Mass Spectrometry Data Center
m/z	RELATIVE INTENSITY
12	10
13	20
14	150
15	1171
16	10
18	20
25	30
26	170
27	210
28	60
29	20
30	110
35	50
36	90
37	160
38	230
39	170
40	30
43	9999
44	240
45	10
47	90
49	210
50	320
51	170
52	60
53	50
54	20
55	20
56	10
60	50
61	270
62	270
63	300
64	60
65	30
66	30
67	50
68	60
69	10
71	10
72	90
73	470
74	781
75	831
76	120
77	40
78	40
79	10
80	40
81	20
83	30
84	270
85	230
86	260
87	300
88	140
89	30
94	10
95	10
96	50
97	140
98	250
99	230
100	330
101	40
102	10
104	10
106	10
107	30
108	80
109	540
110	200
111	230
112	130
113	60
114	70
115	10
119	10
120	20
121	80
122	110
123	100
124	110
125	70
126	110
127	220
128	140
129	30
131	10
132	10
133	60
134	20
135	70
136	170
137	30
138	60
141	30
144	10
145	120
146	20
147	100
148	701
149	130
150	220
151	30
157	130
158	30
159	120
160	50
161	50
162	20
163	10
170	20
171	140
172	60
173	110
174	30
175	20
176	10
177	10
180	10
182	20
183	90
184	300
185	80
186	200
187	30
188	30
191	10
194	10
196	10
197	10
198	10
199	10
206	30
208	20
209	10
211	440
212	3483
213	581
214	2192
215	270
216	360
217	30
218	10
220	10
250	20
252	10
254	1862
255	250
256	1031
257	140
258	190
259	20
289	90
290	10
291	90
292	10
293	20
