Mass Spectrum: Propane, 2-methyl-2-[(1-methylethyl)thio]-
Formula: C7 H16 S
CAS: 44657-76-3
Molecular weight: 132
m/z	RELATIVE INTENSITY
15	130
26	80
27	1191
29	1992
30	80
35	50
38	100
39	1461
40	140
41	5895
42	490
43	2302
45	250
46	370
47	210
53	110
55	510
56	2442
57	9999
58	460
59	571
60	260
61	480
74	851
75	1481
76	991
77	510
88	60
89	110
117	270
132	1581
