Mass Spectrum: Nylidrin
Formula: C19 H25 N O2
CAS: 447-41-6
Molecular weight: 299
Origin: HOME OFFICE, CENTRAL RES. EST., ALDERMASTON, BERKS., U.K.
m/z	RELATIVE INTENSITY
39	200
41	200
42	500
43	100
44	1700
45	100
51	100
53	100
55	300
56	200
57	300
58	200
63	100
65	1100
68	100
69	100
70	200
71	300
72	300
77	700
78	200
79	100
87	100
90	100
91	9999
92	500
93	100
95	100
103	400
104	100
105	200
107	800
108	200
115	100
117	200
120	100
121	400
122	100
131	100
132	200
133	2000
134	300
148	2500
149	200
160	200
162	100
174	1100
175	200
176	2900
177	600
188	100
266	200
279	100
281	200
