Mass Spectrum: Benzene, 2-bromo-4-methyl-1-(1-methylethyl)-
Formula: C10 H13 Br
CAS: 4478-10-8
Molecular weight: 212
m/z	RELATIVE INTENSITY
27	260
28	450
29	50
39	711
41	530
42	30
43	350
50	240
51	651
52	160
53	160
56	10
57	270
58	671
59	220
62	200
63	611
64	510
65	851
66	120
74	120
75	150
76	100
77	571
78	240
79	120
80	10
89	500
90	290
91	1371
92	200
93	180
102	220
103	360
104	210
105	1291
106	180
107	110
115	1772
116	591
117	2412
118	6646
119	1311
120	90
121	20
128	100
130	20
131	130
132	190
133	1491
134	180
169	190
170	30
171	190
183	160
184	30
185	190
186	110
187	40
188	90
195	60
196	50
197	9999
198	1031
199	9769
200	961
210	50
211	110
212	3753
213	631
214	3643
215	510
