Mass Spectrum: 4'-Fluoro-2'-nitroacetanilide
Formula: C8 H7 F N2 O3
CAS: 448-39-5
Molecular weight: 198
Origin: NIST Mass Spectrometry Data Center
m/z	RELATIVE INTENSITY
14	20
15	350
18	10
26	30
27	40
29	30
30	320
31	210
33	80
37	80
38	130
39	140
40	40
41	60
42	350
43	8748
44	250
45	60
46	60
49	30
50	230
51	230
52	370
53	40
54	10
55	30
56	260
57	801
58	70
59	30
60	10
61	150
62	260
63	581
64	190
65	80
66	10
68	110
69	110
70	400
71	140
72	20
73	20
74	100
75	220
76	280
77	60
78	70
79	20
80	60
81	751
82	1071
83	1702
84	290
85	10
86	10
87	30
88	50
89	100
90	470
91	70
92	40
93	60
94	160
95	370
96	280
97	180
98	1021
99	80
100	30
101	10
102	10
103	20
104	10
106	40
107	40
108	781
109	390
110	4344
111	400
112	20
120	10
121	40
122	190
123	80
124	50
125	120
126	841
127	60
136	20
137	20
138	30
139	380
140	290
141	20
149	571
150	701
151	110
152	280
153	30
156	9999
157	781
158	60
166	20
168	50
169	10
182	10
183	10
198	1281
199	120
200	10
