Mass Spectrum: 2,7,12,17-Tetraethyl-3,8,13,18-tetramethyl-21H,23H-porphin
Formula: C32 H38 N4
CAS: 448-71-5
Molecular weight: 478
Origin: A.S.Moskovkin,I.M.Karnaukh, Russian Center on Disaster Medicine
m/z	RELATIVE INTENSITY
130	10
134	10
140	10
161	10
166	10
168	20
169	10
172	10
173	40
174	10
176	10
180	20
182	30
186	40
187	50
188	70
193	100
194	110
195	60
196	30
200	50
201	180
202	200
207	50
208	140
209	280
210	20
215	50
216	230
217	130
218	50
223	30
224	370
225	20
231	420
233	30
238	20
239	1301
240	30
246	10
247	10
258	10
387	40
388	30
389	40
390	20
391	10
399	20
401	60
402	50
403	120
404	70
405	60
413	20
415	80
416	80
417	250
418	70
419	160
420	50
429	30
430	30
431	220
432	220
433	330
434	120
435	40
445	60
446	60
447	760
448	550
449	240
450	90
451	20
461	90
462	130
463	1761
464	740
465	160
475	20
476	80
477	420
478	9999
479	3640
480	650
481	80
482	10
