Mass Spectrum: Benzene, (1,2-dimethylpropyl)-
Formula: C11 H16
CAS: 4481-30-5
Molecular weight: 148
Origin: Japan AIST/NIMC Database- Spectrum MS-IW-2819
m/z	RELATIVE INTENSITY
27	169
28	20
29	50
38	10
39	169
40	10
41	179
42	20
43	129
50	60
51	199
52	50
53	60
54	10
55	139
56	10
57	30
58	10
62	10
63	70
64	30
65	109
66	10
67	20
69	109
70	40
71	20
74	20
75	20
76	20
77	569
78	189
79	509
80	30
81	10
82	20
83	40
89	40
90	10
91	909
92	90
101	10
102	50
103	389
104	669
105	9999
106	1339
107	70
110	50
111	109
112	10
115	129
116	40
117	99
118	10
119	20
127	10
128	20
129	10
131	30
132	10
133	50
134	10
147	10
148	1719
149	209
150	10
