Mass Spectrum: 3-Heptene, 4-methyl-
Formula: C8 H16
CAS: 4485-16-9
Molecular weight: 112
Origin: NIST Mass Spectrometry Data Center, 1990.
m/z	RELATIVE INTENSITY
15	120
26	137
27	1280
28	500
29	970
32	73
39	2544
40	576
41	4998
42	761
43	600
44	96
50	202
51	440
52	205
53	1142
54	96
55	9999
56	1454
57	145
63	144
65	376
66	169
67	1202
68	144
69	8567
70	3256
71	181
77	290
78	75
79	301
81	273
82	131
83	1070
84	392
95	78
97	544
112	2914
113	270
