Mass Spectrum: 1,4-Methanonaphthalene, 1,2,3,4-tetrahydro-
Formula: C11 H12
CAS: 4486-29-7
Molecular weight: 144
Origin: TAT 0894
m/z	RELATIVE INTENSITY
27	400
39	701
41	400
50	701
51	901
52	400
62	400
63	901
64	500
65	500
66	100
67	400
68	400
69	400
75	901
76	100
77	400
87	400
89	500
91	400
102	400
114	400
115	3203
116	9999
117	1101
118	100
127	500
128	1401
129	3003
130	500
143	400
144	4004
145	701
