Mass Spectrum: Ethanol, 2,2'-[methylenebis(thio)]bis-
Formula: C5 H12 O2 S2
CAS: 44860-68-6
Molecular weight: 168
Origin: VERIFINN
m/z	RELATIVE INTENSITY
27	1341
29	731
31	1201
35	200
43	791
44	370
45	5435
46	1071
47	1872
49	230
58	180
59	651
60	971
61	9999
62	340
63	480
73	140
75	160
77	120
78	300
79	641
80	140
89	130
90	500
91	6146
92	260
93	310
105	190
106	100
123	220
124	2632
125	140
126	230
150	731
152	70
168	1111
169	60
170	100
