Mass Spectrum: 3a,4,5,6,7,7a-Hexahydro-4,7-methanoindene
Formula: C10 H14
CAS: 4488-57-7
Molecular weight: 134
Origin: NIST Mass Spectrometry Data Center, 1990.
m/z	RELATIVE INTENSITY
15	82
26	115
27	820
28	368
29	144
37	50
38	239
39	2139
40	533
41	1174
42	87
50	296
51	770
52	341
53	482
54	79
55	84
58	41
62	111
63	345
64	158
65	1532
66	9999
67	3916
68	323
69	75
74	69
75	54
77	1627
78	766
79	1277
80	547
89	87
91	2437
92	1722
93	1330
94	98
103	190
104	107
105	536
106	332
115	123
117	76
119	458
120	55
134	1658
135	180
