Mass Spectrum: Benzene, (3-methyl-2-butenyl)-
Formula: C11 H14
CAS: 4489-84-3
Molecular weight: 146
Origin: NIST Mass Spectrometry Data Center, 1994
m/z	RELATIVE INTENSITY
15	510
16	18
26	212
27	2085
28	284
29	714
30	23
37	100
38	357
39	2918
40	431
41	1917
42	174
43	95
44	19
50	960
51	2171
52	555
53	1050
54	78
55	146
56	16
58	137
61	73
62	309
63	1003
64	542
65	1906
66	166
67	494
68	399
69	141
70	42
71	49
73	57
74	312
75	312
76	322
77	1482
78	834
79	280
85	18
86	68
87	117
88	18
89	524
90	18
91	6923
92	583
93	23
98	40
101	83
102	398
103	852
104	490
105	374
106	32
113	31
115	1674
116	1510
117	852
118	115
119	30
126	99
127	402
128	924
129	1599
130	30
131	9999
132	1070
133	52
141	49
143	85
146	4500
147	547
148	27
