Mass Spectrum: Tetradecanophenone
Formula: C20 H32 O
CAS: 4497-05-6
Molecular weight: 288
Origin: NIST Mass Spectrometry Data Center, 1994
m/z	RELATIVE INTENSITY
15	11
27	391
29	748
30	23
39	258
41	1403
42	317
43	1142
44	39
50	93
51	436
52	39
53	92
54	39
55	803
56	189
57	340
58	14
63	12
65	44
66	10
67	78
68	42
69	190
70	66
71	58
74	14
75	30
77	2575
78	437
79	85
80	7
81	29
82	20
83	56
84	13
85	19
89	11
91	163
92	44
95	13
96	17
97	25
102	13
103	58
105	6326
106	525
107	85
109	6
110	6
115	59
116	16
117	37
120	9999
121	1183
122	79
123	7
124	6
127	8
128	22
129	46
130	14
131	23
133	1088
134	132
135	11
138	9
143	20
144	24
145	30
146	20
147	70
148	19
157	16
158	11
161	8
162	16
166	17
171	8
175	22
176	15
189	65
190	16
203	12
231	14
245	38
246	13
260	7
270	11
288	763
289	175
290	23
