Mass Spectrum: Dibenz[b,e]oxepin-11(6H)-one
Formula: C14 H10 O2
CAS: 4504-87-4
Molecular weight: 210
Origin: Dr. Jiri Zamecnik, DCIEM, North York, Canada, GP Library
m/z	RELATIVE INTENSITY
38	930
51	1170
52	100
63	1670
64	770
65	70
76	2450
77	610
87	130
89	1440
91	1550
102	210
105	360
113	50
115	240
127	540
128	170
139	100
152	2760
153	1190
154	290
165	680
166	60
168	30
181	5910
182	920
183	90
193	130
210	9999
211	710
