Mass Spectrum: Benzoic acid, 4-fluoro-, ethyl ester
Formula: C9 H9 F O2
CAS: 451-46-7
Molecular weight: 168
Origin: Japan AIST/NIMC Database- Spectrum MS-NW-5483
m/z	RELATIVE INTENSITY
14	10
15	70
26	70
27	369
28	99
29	449
30	10
31	20
37	30
38	50
39	60
42	10
43	40
44	10
45	379
46	10
47	10
49	20
50	299
51	179
52	10
53	10
56	10
57	80
59	10
61	20
62	40
63	50
64	10
65	10
68	119
69	249
70	40
73	30
74	189
75	1149
76	109
77	20
81	10
83	50
84	10
91	20
92	30
93	50
94	249
95	3349
96	329
97	30
103	10
104	10
109	50
110	10
111	10
112	20
121	10
122	50
123	9999
124	949
125	99
139	20
140	3229
141	279
142	20
149	10
150	20
151	10
153	129
154	10
167	109
168	1329
169	129
170	10
