Mass Spectrum: Ethanone, 1,2-diphenyl-
Formula: C14 H12 O
CAS: 451-40-1
Molecular weight: 196
Origin: NIST Mass Spectrometry Data Center, 1994
m/z	RELATIVE INTENSITY
26	13
27	80
28	47
32	5
37	16
38	88
39	452
40	39
41	95
50	405
51	1275
52	100
53	20
61	22
62	101
63	289
64	96
65	729
66	43
70	7
74	113
75	104
77	4091
78	271
82	19
83	23
86	22
87	26
89	240
90	107
91	731
92	62
98	12
101	7
102	14
105	9999
106	734
107	46
113	9
115	39
128	11
139	17
151	13
152	54
153	8
163	14
164	26
165	111
166	29
167	14
196	290
197	43
