Mass Spectrum: 3-Buten-1-ol, 2-methyl-
Formula: C5 H10 O
CAS: 4516-90-9
Molecular weight: 86
Origin: Chuck Anderson, Aldrich Chemical Co.
m/z	RELATIVE INTENSITY
14	4
15	90
19	4
25	22
26	395
27	3183
28	1346
29	5234
30	347
31	4251
32	64
33	14
37	170
38	384
39	4080
40	710
41	5982
42	459
43	1330
44	475
45	177
49	73
50	389
51	470
52	169
53	1388
54	833
55	6324
56	9999
57	1581
58	2029
59	82
61	9
62	26
63	31
65	83
66	40
67	934
68	1084
69	227
70	26
71	769
72	34
83	15
85	23
86	51
