Mass Spectrum: 1,2-Benzenediol, 4-methyl-
Formula: C7 H8 O2
CAS: 452-86-8
Molecular weight: 124
Origin: Japan AIST/NIMC Database- Spectrum MS-NW-4773
m/z	RELATIVE INTENSITY
14	20
15	40
17	10
18	30
25	20
26	119
27	449
28	159
29	189
30	10
31	40
36	10
37	129
38	309
39	1049
40	239
41	499
42	60
43	179
44	10
45	10
46	20
47	80
48	60
49	70
50	419
51	1319
52	639
53	269
54	60
55	659
56	40
57	10
60	10
61	80
62	289
63	269
64	60
65	309
66	319
67	449
68	60
69	60
71	20
73	20
74	60
75	70
76	129
77	1729
78	4549
79	469
80	30
81	189
82	40
84	10
90	10
91	20
92	10
93	20
94	199
95	709
96	149
97	20
104	10
105	609
106	759
107	1119
108	119
109	20
121	20
122	90
123	5419
124	9999
125	789
126	70
