Mass Spectrum: 2,4-Difluorotoluene
Formula: C7 H6 F2
CAS: 452-76-6
Molecular weight: 128
Origin: NIST Mass Spectrometry Data Center, 1994
m/z	RELATIVE INTENSITY
14	26
15	48
25	17
26	121
27	157
31	595
33	89
36	26
37	177
38	266
39	403
40	27
43	64
44	293
45	54
49	116
50	666
51	773
52	61
53	68
54	254
56	222
57	906
58	40
59	36
60	39
61	317
62	362
63	547
64	231
68	162
69	108
70	81
71	22
73	58
74	273
75	766
76	140
77	403
78	127
79	55
80	183
81	567
82	90
83	236
84	49
85	103
86	88
87	79
88	63
89	42
92	47
93	50
94	57
95	32
96	57
99	152
101	1206
102	97
103	22
104	34
105	99
106	22
107	797
108	143
109	408
110	28
123	20
125	433
127	9999
128	4411
129	299
130	15
