Mass Spectrum: 2,4-Difluoroanisole
Formula: C7 H6 F2 O
CAS: 452-10-8
Molecular weight: 144
Origin: NIST Mass Spectrometry Data Center
m/z	RELATIVE INTENSITY
14	10
15	90
26	20
27	10
29	80
30	10
31	250
33	10
37	70
38	60
39	60
43	10
44	20
45	20
49	40
50	360
51	540
52	10
53	60
55	40
56	180
57	450
58	10
60	10
61	180
62	210
63	841
64	40
65	10
68	170
69	110
70	50
71	10
73	60
74	200
75	891
76	30
77	20
79	40
80	80
81	490
82	200
83	150
84	10
86	10
87	50
88	40
92	70
93	150
94	90
95	260
96	260
97	70
98	10
99	300
100	240
101	7527
102	330
110	90
111	30
112	60
113	591
114	190
115	220
116	20
125	10
126	260
127	20
128	70
129	8978
130	510
131	30
141	60
143	70
144	9999
145	661
146	30
