Mass Spectrum: Benzenamine, 4-fluoro-2-methyl-
Formula: C7 H8 F N
CAS: 452-71-1
Molecular weight: 125
Origin: RADIAN CORP
m/z	RELATIVE INTENSITY
14	20
15	80
17	30
26	250
27	600
29	150
30	490
31	360
33	160
37	190
38	380
39	780
40	130
41	310
42	220
44	40
45	120
46	70
48	20
49	120
50	780
51	1290
52	1000
54	250
55	20
56	150
57	820
58	60
59	40
61	210
62	550
64	100
65	160
66	70
68	180
69	260
70	450
71	210
72	60
73	60
74	260
75	560
76	270
77	1550
78	570
79	130
80	80
81	240
82	140
83	360
84	110
85	80
89	80
93	40
94	90
95	720
96	700
97	1650
98	530
99	50
102	60
104	430
105	60
106	370
107	950
108	450
109	490
110	30
122	330
124	9999
125	8380
126	580
