Mass Spectrum: 2-Fluoro-5-methylaniline
Formula: C7 H8 F N
CAS: 452-84-6
Molecular weight: 125
Origin: Japan AIST/NIMC Database- Spectrum MS-NW-9728
m/z	RELATIVE INTENSITY
27	40
28	149
29	10
30	40
31	30
32	10
33	10
37	20
38	50
39	139
40	20
41	50
42	50
45	10
46	10
48	10
49	50
50	99
51	309
52	149
53	60
54	30
56	30
57	169
58	20
59	20
60	10
61	80
62	329
63	119
64	30
65	50
66	30
68	20
69	40
70	109
71	60
72	40
73	10
74	40
75	109
76	70
77	699
78	339
79	80
80	30
81	70
82	40
83	139
84	50
85	30
86	10
89	20
90	10
93	10
94	20
95	289
96	249
97	879
98	199
99	20
102	70
103	10
104	429
105	80
106	329
107	239
108	109
109	359
110	30
122	169
123	60
124	9779
125	9999
126	789
127	30
