Mass Spectrum: 2-Aminopurine
Formula: C5 H5 N5
CAS: 452-06-2
Molecular weight: 135
Origin: NIST Mass Spectrometry Data Center
m/z	RELATIVE INTENSITY
14	30
17	10
27	290
28	1461
29	120
38	270
39	280
40	150
41	100
42	190
43	460
51	50
52	420
53	1021
54	1051
55	200
56	90
64	60
65	260
66	450
67	240
68	240
80	310
81	1862
82	90
92	140
93	70
94	270
107	450
108	1071
109	100
119	60
134	1251
135	9999
136	731
