Mass Spectrum: 3,4,5-Trimethoxybenzoyl chloride
Formula: C10 H11 Cl O4
CAS: 4521-61-3
Molecular weight: 230
Origin: J. MADSEN,DEP. ORG. CHEM.,TECH. UNIV. DENMARK,LYNGBY,DENMARK
m/z	RELATIVE INTENSITY
27	100
28	50
29	70
36	40
37	70
38	300
39	130
40	40
41	40
43	70
45	70
49	50
50	330
51	120
52	40
53	240
55	30
59	40
61	50
62	110
63	150
64	50
65	90
66	580
67	50
69	40
73	170
74	50
75	110
76	130
77	560
78	120
79	120
80	20
81	440
82	30
85	30
90	30
91	50
92	190
93	120
94	80
95	70
96	160
99	30
101	40
104	40
105	30
106	80
107	130
108	70
109	310
110	30
113	50
116	40
119	50
120	30
121	60
122	390
123	80
124	240
127	40
129	140
131	50
134	120
135	60
136	40
137	390
138	40
139	160
143	30
144	110
146	40
149	130
150	110
151	100
152	770
153	70
159	150
161	50
165	40
166	30
167	230
179	100
180	30
187	100
189	40
195	9999
196	1110
197	150
230	2310
231	270
232	780
233	80
