Mass Spectrum: Cyclopentanecarbonyl chloride
Formula: C6 H9 Cl O
CAS: 4524-93-0
Molecular weight: 132
Origin: NIST Mass Spectrometry Data Center, 1994
m/z	RELATIVE INTENSITY
12	18
13	37
14	77
15	405
16	5
17	1
26	787
27	2529
28	150
29	338
31	90
35	120
36	107
37	369
38	934
39	4219
40	1294
41	7199
42	903
43	139
47	30
48	30
49	118
50	246
51	313
52	153
53	610
54	369
55	1623
56	71
57	13
60	28
61	95
62	151
63	480
64	13
65	439
66	13
67	1285
68	13
69	9999
70	532
71	12
72	8
73	29
74	15
75	45
76	40
77	44
78	22
79	93
80	8
81	24
83	18
89	20
91	1227
93	377
94	19
95	50
96	8
97	2371
98	147
99	8
103	11
104	65
106	23
114	14
117	11
132	373
133	43
134	133
135	11
