Mass Spectrum: 2-Propanone, 1,3-difluoro-
Formula: C3 H4 F2 O
CAS: 453-14-5
Molecular weight: 94
Origin: J.T. CLERC, ORGANIC CHEM. LAB., ETH, ZURICH, SWITZ.
m/z	RELATIVE INTENSITY
26	381
27	1059
28	297
29	508
31	763
32	805
33	9575
34	42
37	85
38	85
39	85
41	169
42	1568
43	169
44	169
45	1271
46	593
47	297
49	169
51	169
57	85
60	169
61	9999
62	254
64	169
65	381
73	127
75	297
94	6440
95	212
