Mass Spectrum: 1,3-Difluoro-2-propanol
Formula: C3 H6 F2 O
CAS: 453-13-4
Molecular weight: 96
Origin: Chuck Anderson, Aldrich Chemical Co.
m/z	RELATIVE INTENSITY
13	21
14	158
15	2819
16	37
17	3
18	4
19	30
20	1
24	1
25	20
26	145
27	661
28	94
29	988
30	54
31	726
32	139
33	1213
34	34
35	9
36	9
37	41
38	54
39	93
40	8
41	26
42	374
43	3284
44	174
45	247
46	108
47	147
48	4
49	256
50	1
51	210
53	6
55	24
56	21
57	106
58	16
59	154
60	59
61	84
62	237
63	9999
64	261
65	31
67	1
73	30
74	4
75	76
76	16
77	397
78	86
79	12
93	9
94	2
95	11
96	2
97	26
