Mass Spectrum: Methyl fluoroacetate
Formula: C3 H5 F O2
CAS: 453-18-9
Molecular weight: 92
Origin: Japan AIST/NIMC Database- Spectrum MS-NW-2965
m/z	RELATIVE INTENSITY
12	40
13	139
14	469
15	6449
16	80
25	20
26	30
27	70
28	109
29	1619
30	149
31	719
32	389
33	7279
34	90
35	289
36	20
39	10
40	10
41	70
42	529
43	99
44	109
45	169
46	119
47	1319
48	1139
49	40
57	10
59	9999
60	569
61	4869
62	139
63	549
64	10
91	90
92	789
93	20
