Mass Spectrum: Diethyl,3-nitrophenyl phosphate
Formula: C10 H14 N O6 P
CAS: 4532-06-3
Molecular weight: 275
Origin: ASES Database, Dalian Institute, P.R. China
m/z	RELATIVE INTENSITY
81	7396
91	1791
99	2512
109	9999
127	2682
139	5184
149	3092
155	1101
173	2782
201	1901
219	1611
232	880
247	2302
275	5895
