Mass Spectrum: Benzene, (1-ethylundecyl)-
Formula: C19 H32
CAS: 4534-52-5
Molecular weight: 260
Origin: D.HENNEBERG, MAX-PLANCK INSTITUTE, MULHEIM, WEST GERMANY
m/z	RELATIVE INTENSITY
26	38
27	233
28	394
29	673
30	39
36	30
37	32
38	25
39	293
41	1323
42	85
43	997
46	34
50	3
52	57
53	57
54	61
55	499
56	72
57	542
58	50
59	14
63	47
64	14
65	133
66	38
67	14
68	52
69	191
70	110
71	369
72	18
73	1
75	25
76	32
77	251
78	168
79	146
80	38
83	144
84	39
85	275
86	25
87	19
89	65
90	34
91	9999
92	754
93	21
96	19
97	70
101	23
102	36
103	175
104	454
105	1323
106	137
110	30
112	12
113	52
114	38
115	202
117	381
118	360
119	6005
120	807
121	38
127	21
128	70
129	14
131	117
132	36
133	504
134	50
138	32
143	16
147	419
148	59
157	7
159	72
161	323
162	28
171	19
175	117
179	14
189	66
197	12
205	27
207	72
208	19
224	7
227	19
231	693
232	119
254	12
260	322
261	68
