Mass Spectrum: 4-Ethylcyclohexanol
Formula: C8 H16 O
CAS: 4534-74-1
Molecular weight: 128
Origin: Japan AIST/NIMC Database- Spectrum MS-NW-8805
m/z	RELATIVE INTENSITY
15	80
17	10
18	30
26	70
27	1339
28	399
29	1929
30	139
31	519
32	10
37	10
38	40
39	1359
40	239
41	3589
42	909
43	6379
44	1159
45	259
48	10
49	10
50	50
51	159
52	80
53	749
54	919
55	3789
56	1149
57	6519
58	4939
59	359
60	20
62	10
63	30
65	169
66	209
67	1919
68	1019
69	1869
70	1239
71	1919
72	149
73	10
75	10
77	159
78	40
79	759
80	569
81	9999
82	2539
83	319
84	2149
85	579
86	70
87	50
91	40
93	40
94	20
95	1579
96	149
97	139
98	30
99	189
100	70
107	20
109	299
110	2559
111	469
112	40
126	10
127	109
128	50
