Mass Spectrum: Benzene, (1-methyldecyl)-
Formula: C17 H28
CAS: 4536-88-3
Molecular weight: 232
Origin: D.HENNEBERG, MAX-PLANCK INSTITUTE, MULHEIM, WEST GERMANY
m/z	RELATIVE INTENSITY
22	2
26	8
27	237
28	57
29	305
30	6
34	2
35	4
38	7
39	131
40	14
41	492
42	57
43	343
44	2
47	5
49	2
50	11
51	73
52	17
53	36
54	12
55	184
56	58
57	127
58	12
60	6
61	4
62	3
63	20
64	5
65	67
66	6
67	20
68	4
69	45
70	14
71	45
72	3
73	2
74	3
75	15
76	12
77	339
78	135
79	381
80	28
82	30
83	11
84	10
85	19
88	3
89	16
90	14
91	967
92	99
93	5
94	3
96	5
97	1
100	8
101	27
102	29
103	235
104	392
105	9999
106	1147
107	67
108	4
113	2
115	50
116	28
117	71
118	77
119	85
120	50
121	2
126	3
127	3
128	10
129	10
130	3
131	20
132	4
133	32
134	4
145	3
146	3
147	30
148	6
161	13
175	18
203	3
217	26
218	3
230	3
231	4
232	341
233	54
234	9
