Mass Spectrum: Benzene, (1-butylheptyl)-
Formula: C17 H28
CAS: 4537-15-9
Molecular weight: 232
Origin: D.HENNEBERG, MAX-PLANCK INSTITUTE, MULHEIM, WEST GERMANY
m/z	RELATIVE INTENSITY
25	2
26	10
27	241
28	7
29	369
30	9
33	3
36	2
38	5
39	153
40	5
41	582
42	44
43	405
44	2
46	16
49	4
50	9
51	62
52	19
53	48
54	8
55	263
56	39
57	75
58	8
61	5
62	7
63	28
64	12
65	147
66	16
67	21
68	8
69	108
70	14
71	81
72	5
73	1
74	6
75	21
76	15
77	162
78	145
79	115
80	13
81	18
82	7
83	55
84	6
85	6
86	4
87	17
88	6
89	45
90	43
91	9999
92	828
93	40
94	5
95	7
97	38
98	6
99	3
100	3
101	14
102	35
103	135
104	399
105	1558
106	136
107	5
111	5
112	4
113	9
114	7
115	144
116	47
117	219
118	59
119	484
120	49
127	15
128	27
129	20
130	9
131	21
132	17
133	162
134	20
141	3
143	6
144	3
145	12
146	62
147	1500
148	227
149	15
160	3
161	34
162	9
165	3
167	4
169	3
173	4
174	21
175	725
176	114
177	9
178	3
189	5
190	3
203	2
232	313
233	51
