Mass Spectrum: Benzene, (1-butylhexyl)-
Formula: C16 H26
CAS: 4537-11-5
Molecular weight: 218
Origin: CONTINENTAL OIL CO., PONCA CITY, OKLA, USA
m/z	RELATIVE INTENSITY
27	461
28	135
29	619
30	14
38	8
39	211
40	31
41	607
42	45
43	236
44	14
50	22
51	96
52	32
53	60
54	11
55	182
56	20
57	76
58	7
62	6
63	38
64	14
65	145
66	14
67	20
68	8
69	104
70	18
74	19
75	34
76	42
77	380
78	299
79	159
80	13
81	11
83	45
84	6
85	7
86	5
87	9
88	11
89	81
90	55
91	9999
92	832
93	38
99	11
101	34
102	87
103	313
104	930
105	1110
106	103
107	6
113	10
114	14
115	309
116	113
117	450
118	170
119	168
120	21
126	5
127	30
128	76
129	60
130	22
131	46
132	22
133	18
134	5
139	4
141	12
142	5
143	8
145	32
146	65
147	1888
148	279
149	20
159	17
160	45
161	1479
162	224
163	18
169	6
175	7
189	5
200	7
201	5
202	14
204	7
216	12
218	877
219	157
220	14
