Mass Spectrum: Benzene, (1-propylheptyl)-
Formula: C16 H26
CAS: 4537-12-6
Molecular weight: 218
Origin: D.HENNEBERG, MAX-PLANCK INSTITUTE, MULHEIM, WEST GERMANY
m/z	RELATIVE INTENSITY
22	4
27	228
28	89
29	400
30	15
32	31
33	5
36	12
38	1
39	170
41	482
42	47
43	375
45	6
47	25
49	14
50	26
51	89
52	26
53	29
54	11
55	290
56	39
57	26
59	8
60	8
62	34
63	21
65	159
66	25
67	6
69	46
70	8
71	77
72	10
75	14
76	23
77	216
78	167
79	85
80	21
81	34
83	46
84	2
85	10
87	25
88	16
89	67
90	27
91	9999
92	905
93	16
95	2
96	6
97	24
98	6
101	32
102	45
103	119
104	343
105	842
106	91
107	19
109	11
110	4
113	17
114	9
115	127
116	39
117	184
118	50
119	423
120	44
121	10
125	7
128	42
129	28
131	42
132	67
133	1622
134	283
135	21
139	6
141	8
142	2
144	5
145	12
146	23
148	18
150	6
162	2
164	6
171	11
173	10
174	21
175	659
176	117
179	7
189	9
193	8
201	4
205	5
208	11
216	9
218	344
219	78
