Mass Spectrum: Benzaldehyde, 3-(trifluoromethyl)-
Formula: C8 H5 F3 O
CAS: 454-89-7
Molecular weight: 174
Origin: RADIAN CORP
m/z	RELATIVE INTENSITY
27	30
29	360
31	70
37	70
38	100
39	90
49	80
50	840
51	570
52	30
53	30
56	20
57	170
61	100
62	160
63	160
68	70
69	630
70	80
73	160
74	770
75	1570
76	390
77	620
78	30
79	20
80	60
81	140
85	70
86	70
87	70
88	50
92	40
93	90
94	140
95	1350
96	950
97	60
99	440
100	130
101	100
104	30
105	40
106	30
107	210
118	20
119	220
123	60
125	1230
126	600
127	790
128	60
143	140
144	200
145	9999
146	960
147	40
155	1570
156	140
173	8990
174	6300
175	540
176	30
