Mass Spectrum: 6-Bromo-.alpha.,.alpha.,.alpha.-trifluoro-m-toluidine
Formula: C7 H5 Br F3 N
CAS: 454-79-5
Molecular weight: 239
Origin: Chuck Anderson, Aldrich Chemical Co.
m/z	RELATIVE INTENSITY
17	1
26	42
27	47
28	350
31	139
36	24
37	326
38	562
39	403
40	123
41	326
42	26
44	229
45	138
46	156
49	62
50	234
51	209
52	980
53	109
54	199
55	29
56	78
57	302
58	10
59	15
60	60
61	533
62	788
63	1788
64	653
65	499
66	122
68	57
69	447
70	427
71	111
72	43
73	75
74	247
75	475
76	88
77	24
78	10
80	2826
81	331
82	151
83	475
84	61
85	26
86	54
87	146
88	317
89	259
90	586
91	437
92	62
93	104
94	114
95	245
96	84
99	99
100	105
101	34
102	24
104	9
105	4
106	72
107	67
108	99
109	259
110	365
111	165
112	138
113	1519
114	374
115	44
116	18
117	69
118	36
119	147
120	1014
121	124
122	39
123	23
125	16
130	24
131	66
132	1105
133	769
134	55
135	22
137	9
138	102
139	365
140	2422
141	302
142	20
143	231
144	40
145	54
158	215
159	600
160	3384
161	283
163	28
169	9
171	9
189	399
190	10
191	374
192	504
193	13
194	504
195	31
199	18
200	9
201	13
202	4
203	23
205	18
218	34
219	155
220	1115
221	200
222	1086
223	88
225	11
238	82
239	9999
240	644
241	9691
242	629
243	17
