Mass Spectrum: Cyclopentanone, 2,2,5,5-tetramethyl-
Formula: C9 H16 O
CAS: 4541-35-9
Molecular weight: 140
m/z	RELATIVE INTENSITY
26	30
27	480
29	540
30	20
31	10
37	10
38	30
39	671
40	250
41	2943
42	260
43	330
44	130
45	20
46	20
50	30
51	70
52	30
53	210
54	70
55	941
56	9999
57	4334
58	170
59	50
62	10
63	10
65	30
66	10
67	110
68	150
69	1872
70	400
71	70
72	1421
73	60
74	10
77	40
78	10
79	50
80	20
81	60
82	40
83	100
84	110
85	220
86	20
91	20
93	10
94	10
95	10
96	60
97	350
98	30
105	10
107	120
108	10
109	30
110	10
111	50
112	160
113	20
122	110
123	20
124	10
125	200
126	20
127	10
140	2022
141	210
142	20
