Mass Spectrum: Cyclopentanone, 2,2-dimethyl-
Formula: C7 H12 O
CAS: 4541-32-6
Molecular weight: 112
Origin: NIST Mass Spectrometry Data Center, 1990.
m/z	RELATIVE INTENSITY
14	49
15	204
16	10
26	275
27	1467
28	866
29	614
32	65
37	95
38	334
39	2503
40	789
41	4376
42	868
43	414
50	151
51	221
52	97
53	385
54	95
55	1940
56	9999
57	567
63	60
65	95
66	48
67	279
68	513
69	1158
70	272
79	727
80	54
83	165
84	221
94	376
97	638
112	1817
113	160
