Mass Spectrum: Dodecane, 1,1'-oxybis-
Formula: C24 H50 O
CAS: 4542-57-8
Molecular weight: 354
Origin: Japan AIST/NIMC Database- Spectrum MS-NW-2086
m/z	RELATIVE INTENSITY
15	10
17	10
18	30
26	20
27	429
28	139
29	1389
30	30
31	60
39	239
40	60
41	2519
42	779
43	5429
44	179
45	119
51	10
53	109
54	309
55	3009
56	2119
57	9999
58	419
59	10
65	10
66	70
67	419
68	1809
69	3059
70	2089
71	6379
72	359
73	60
79	20
80	20
81	249
82	3049
83	3679
84	2009
85	5029
86	329
87	50
94	10
95	129
96	889
97	3129
98	1439
99	2869
100	219
101	10
109	60
110	369
111	2109
112	939
113	2069
114	179
115	10
123	30
124	159
125	919
126	449
127	769
128	80
137	20
138	80
139	309
140	1309
141	169
143	20
153	10
166	149
167	139
168	3219
169	4929
170	629
171	40
185	80
186	10
187	289
188	40
196	10
197	20
199	109
200	20
201	10
213	10
241	40
255	10
311	20
353	20
354	20
355	10
