Mass Spectrum: Borane, dimethoxy-
Formula: C2 H7 B O2
CAS: 4542-61-4
Molecular weight: 74
Origin: CCC 0008
m/z	RELATIVE INTENSITY
10	60
11	250
12	250
13	330
14	621
15	5135
16	70
17	20
21	20
22	10
23	20
24	30
25	30
26	50
27	190
28	651
29	1972
30	180
31	250
36	60
38	10
39	40
40	160
41	250
42	1882
43	6476
44	110
45	210
46	10
47	10
54	10
55	30
56	170
57	520
58	80
59	150
60	10
61	10
69	10
70	20
71	40
72	2672
73	9999
74	270
75	30
76	10
