Mass Spectrum: 1,10-Dicyanodecane
Formula: C12 H20 N2
CAS: 4543-66-2
Molecular weight: 192
Origin: NIST Mass Spectrometry Data Center, 1994
m/z	RELATIVE INTENSITY
13	40
14	36
15	280
27	3218
28	1412
29	3238
30	423
37	67
39	3243
41	9999
42	1763
43	1811
44	191
48	8
50	85
51	257
52	395
53	1260
54	4084
55	5808
56	876
57	686
58	73
62	13
63	47
64	93
65	245
66	297
67	971
68	1106
69	4465
70	418
71	51
72	41
77	159
79	650
80	356
82	8009
83	8237
84	557
85	25
86	13
91	199
93	408
94	254
96	5951
97	6403
98	437
105	77
107	233
108	204
110	2626
111	345
112	24
117	12
118	13
119	22
120	53
121	49
122	125
123	12
124	597
125	47
129	12
131	16
132	23
133	18
134	29
135	97
136	61
138	144
139	16
145	9
146	43
147	20
148	38
149	150
150	31
151	9
152	1011
153	120
161	8
163	295
164	48
174	68
175	13
177	10
191	134
192	23
193	23
