Mass Spectrum: 2-Chloro-5-nitropyridine
Formula: C5 H3 Cl N2 O2
CAS: 4548-45-2
Molecular weight: 158
Origin: Japan AIST/NIMC Database- Spectrum MS-NW-4641
m/z	RELATIVE INTENSITY
12	30
13	10
14	10
16	20
24	30
25	99
26	459
27	90
28	319
29	40
30	1349
35	60
36	149
37	539
38	599
39	229
40	60
41	10
44	40
46	209
47	189
48	109
49	609
50	3689
51	1709
52	469
53	40
54	10
55	30
59	10
60	229
61	259
62	499
63	219
64	299
65	50
66	20
67	10
68	10
71	20
72	70
73	579
74	119
75	749
76	4729
77	729
78	60
79	10
80	20
81	10
83	40
84	169
85	4689
86	409
87	1519
88	109
92	30
93	10
95	30
98	10
99	30
100	1799
101	109
102	579
103	30
110	20
111	70
112	9999
113	619
114	3159
115	189
123	10
128	119
129	10
130	40
141	109
142	109
143	40
144	40
158	5939
159	389
160	1969
161	129
162	10
