Mass Spectrum: 3-Fluoropropiophenone
Formula: C9 H9 F O
CAS: 455-67-4
Molecular weight: 152
Origin: NIST Mass Spectrometry Data Center, 1994
m/z	RELATIVE INTENSITY
12	15
13	16
14	78
15	164
17	13
18	17
20	15
26	428
27	1636
28	280
29	989
30	34
33	33
36	8
37	126
38	182
39	279
40	19
42	60
44	5
46	11
48	34
49	100
50	950
51	549
52	42
53	92
55	223
56	129
57	496
58	17
60	15
61	116
62	184
63	216
64	21
65	10
66	10
67	17
68	374
69	616
70	145
71	15
73	54
74	395
75	2718
76	274
77	102
78	13
80	17
81	78
82	21
83	118
84	13
85	20
86	19
87	24
88	8
89	21
92	64
93	107
94	512
95	6294
96	537
97	58
98	14
101	46
102	15
103	48
104	23
105	28
107	64
108	18
109	104
110	12
120	24
123	9999
124	738
125	48
133	46
152	1415
153	141
154	6
