Mass Spectrum: Benzene, 1-iodo-4-(trifluoromethyl)-
Formula: C7 H4 F3 I
CAS: 455-13-0
Molecular weight: 272
Origin: RADIAN CORP
m/z	RELATIVE INTENSITY
26	30
27	20
31	130
37	150
38	280
39	30
49	110
50	2570
51	610
52	10
56	20
57	360
61	90
62	160
63	100
69	630
73	190
74	1450
75	3180
76	1030
77	60
80	30
81	130
87	40
88	50
92	50
93	120
94	370
95	3030
96	200
99	530
100	160
101	50
104	30
106	30
107	200
111	130
118	60
119	350
123	100
125	2400
126	870
127	980
128	40
136	100
143	340
145	9999
146	590
152	20
176	30
203	20
222	40
240	30
253	1070
272	9580
273	20
