Mass Spectrum: Benzeneethanol, 3-(trifluoromethyl)-
Formula: C9 H9 F3 O
CAS: 455-01-6
Molecular weight: 190
Origin: Japan AIST/NIMC Database- Spectrum MS-NW-8735
m/z	RELATIVE INTENSITY
15	30
18	20
20	20
26	20
27	199
28	90
29	169
30	20
31	3199
32	30
33	10
37	30
38	109
39	489
40	50
41	80
42	40
43	129
44	189
45	30
47	20
49	20
50	249
51	429
52	70
53	40
55	30
56	20
57	189
59	229
60	20
61	40
62	179
63	529
64	129
65	239
66	20
68	20
69	149
70	60
71	30
72	10
73	10
74	109
75	369
76	90
77	259
78	40
79	50
80	10
81	70
82	10
83	289
84	20
85	20
86	40
87	80
88	109
89	529
90	269
91	5429
92	429
93	50
94	40
95	209
96	129
97	30
98	10
99	199
100	30
101	199
102	99
103	169
104	30
105	20
106	10
107	149
108	90
109	2309
110	179
111	10
112	20
113	169
114	339
115	60
118	20
119	959
120	249
121	159
122	40
123	50
125	80
126	30
127	269
128	30
129	50
131	10
132	60
133	179
134	20
135	10
136	10
137	50
138	139
139	569
140	5939
141	769
142	40
143	40
145	219
146	80
147	10
149	50
150	10
151	279
152	40
153	80
154	10
155	10
156	10
157	40
158	139
159	6729
160	9999
161	859
162	30
167	10
169	109
170	319
171	909
172	329
173	199
174	30
188	40
189	20
190	2129
191	209
192	10
