Mass Spectrum: Benzoic acid, 3-fluoro-
Formula: C7 H5 F O2
CAS: 455-38-9
Molecular weight: 140
Origin: Japan AIST/NIMC Database- Spectrum MS-NW-9229
m/z	RELATIVE INTENSITY
17	10
18	30
26	20
27	40
28	80
29	20
31	109
36	10
37	159
38	139
39	189
44	20
45	269
46	20
47	199
48	20
49	99
50	739
51	359
52	30
53	50
55	10
56	199
57	269
58	10
60	20
61	239
62	149
63	199
64	70
65	30
68	339
69	469
70	459
71	20
73	99
74	479
75	1749
76	219
77	40
81	40
82	20
83	179
84	90
85	10
92	90
93	119
94	499
95	5869
96	709
97	30
110	10
111	30
112	199
113	10
121	20
122	109
123	9999
124	779
125	40
139	60
140	9479
141	739
142	60
