Mass Spectrum: m-Fluorobenzamide
Formula: C7 H6 F N O
CAS: 455-37-8
Molecular weight: 139
Origin: Japan AIST/NIMC Database- Spectrum MS-NW-6919
m/z	RELATIVE INTENSITY
16	50
20	10
25	10
26	40
27	60
28	50
29	20
31	139
32	40
33	10
36	30
37	189
38	159
39	289
40	20
41	40
42	10
43	30
44	1039
45	109
46	30
47	70
48	20
49	159
50	979
51	459
52	90
53	60
54	10
55	189
56	90
57	279
58	30
59	10
60	50
61	159
62	219
63	249
64	70
65	50
66	10
67	10
68	509
69	699
70	419
71	40
72	30
73	139
74	619
75	2559
76	349
77	70
78	20
79	10
80	20
81	90
82	40
83	189
84	60
85	20
87	20
88	30
89	20
90	30
91	30
92	119
93	209
94	829
95	8379
96	1269
97	70
98	10
99	30
100	60
101	20
102	20
103	10
104	20
105	10
106	20
109	40
110	70
111	40
118	10
120	50
121	989
122	229
123	9999
124	819
125	60
138	10
139	7449
140	669
141	60
