Mass Spectrum: Pentanedinitrile, 2-methyl-
Formula: C6 H8 N2
CAS: 4553-62-2
Molecular weight: 108
Origin: Japan AIST/NIMC Database- Spectrum MS-NW-3169
m/z	RELATIVE INTENSITY
13	10
14	40
15	259
18	30
25	40
26	649
27	1529
28	1619
29	109
36	10
37	249
38	349
39	1159
40	729
41	6999
42	559
43	20
44	10
49	40
50	149
51	489
52	1179
53	739
54	6389
55	3699
56	189
61	10
62	40
63	99
64	249
65	119
66	749
67	199
68	9999
69	479
70	10
75	40
76	40
77	20
78	30
79	359
80	679
81	109
82	10
89	10
91	30
92	30
93	80
107	209
108	10
109	10
