Mass Spectrum: 5-Bromo-1-hexene
Formula: C6 H11 Br
CAS: 4558-27-4
Molecular weight: 162
Origin: NIST Mass Spectrometry Data Center, 1990.
m/z	RELATIVE INTENSITY
14	153
26	524
27	2183
28	224
29	853
37	254
38	783
39	6273
40	1287
41	9652
42	1785
43	401
49	105
50	661
51	918
52	413
53	1654
54	1623
55	9999
56	507
62	123
63	188
65	823
67	9758
68	573
77	234
79	599
80	258
81	1096
82	6462
83	6731
84	459
107	179
109	144
120	580
121	601
122	583
123	537
