Mass Spectrum: Cyclopentanamine, N-ethyl-
Formula: C7 H15 N
CAS: 45592-46-9
Molecular weight: 113
Origin: DM6-160-F24
m/z	RELATIVE INTENSITY
15	600
27	1900
28	1400
29	1400
30	1600
38	100
39	1000
40	300
41	3400
42	1600
43	700
44	1400
51	100
52	100
53	300
54	500
55	300
56	3200
57	600
58	700
65	100
67	500
68	400
69	400
70	5799
71	1200
82	100
84	9999
85	1400
98	1000
99	100
112	400
113	2000
114	400
