Mass Spectrum: Urea, tetrabutyl-
Formula: C17 H36 N2 O
CAS: 4559-86-8
Molecular weight: 284
Origin: Japan AIST/NIMC Database- Spectrum MS-NW-8365
m/z	RELATIVE INTENSITY
15	20
26	20
27	229
28	159
29	1989
30	539
31	10
39	129
40	20
41	2179
42	499
43	349
44	499
45	20
53	30
54	30
55	449
56	469
57	9779
58	489
59	10
67	10
68	20
69	30
70	139
71	30
72	219
73	30
74	20
82	20
83	10
84	409
85	70
86	3099
87	199
88	10
98	80
99	139
100	2559
101	169
102	10
112	109
113	50
114	99
115	10
121	10
126	40
127	30
128	3969
129	629
130	199
131	10
136	10
140	20
141	30
142	20
143	70
144	20
150	30
154	10
155	149
156	9999
157	1049
158	70
169	10
171	10
172	30
183	10
185	279
186	50
192	20
197	20
199	50
213	10
227	129
228	189
229	20
235	10
241	1019
242	169
243	10
255	10
283	10
284	509
285	119
286	10
