Mass Spectrum: .alpha.-Chloro-p-fluoroacetophenone
Formula: C8 H6 Cl F O
CAS: 456-04-2
Molecular weight: 172
Origin: NIST Mass Spectrometry Data Center
m/z	RELATIVE INTENSITY
12	10
13	40
14	180
15	20
18	10
25	10
26	60
27	50
28	30
29	40
31	210
32	20
33	40
35	90
36	40
37	180
38	190
39	240
40	10
42	290
43	40
44	30
45	60
47	40
48	80
49	500
50	901
51	540
52	30
53	30
54	30
55	10
56	80
57	410
58	20
59	50
60	20
61	180
62	240
63	280
64	30
65	10
68	310
69	470
70	70
72	10
73	110
74	581
75	2062
76	220
77	30
78	10
79	10
80	40
81	160
82	40
83	400
84	30
85	40
86	40
87	30
88	10
89	50
91	10
92	70
93	120
95	5615
96	400
97	10
98	10
99	10
101	10
104	20
105	20
107	190
109	681
110	40
117	10
119	10
120	20
123	9999
124	791
125	50
143	30
145	10
172	190
173	20
174	60
