Mass Spectrum: Benzene, 1-(bromomethyl)-3-fluoro-
Formula: C7 H6 Br F
CAS: 456-41-7
Molecular weight: 188
Origin: Japan AIST/NIMC Database- Spectrum MS-IW-1155
m/z	RELATIVE INTENSITY
26	10
27	10
28	20
31	50
33	10
37	30
38	60
39	159
40	10
43	20
44	99
49	10
50	109
51	90
52	10
54	40
56	30
57	299
58	10
59	99
61	50
62	129
63	249
64	30
65	10
68	30
69	30
70	40
74	30
75	30
76	10
79	20
80	30
81	179
82	70
83	1279
84	119
85	80
86	30
87	30
88	20
89	149
90	20
94	50
95	50
105	20
106	10
107	499
108	249
109	9999
110	779
111	20
187	40
188	749
189	99
190	729
191	50
