Mass Spectrum: Benzoic acid, 4-fluoro-
Formula: C7 H5 F O2
CAS: 456-22-4
Molecular weight: 140
Origin: RADIAN CORP
m/z	RELATIVE INTENSITY
29	60
31	210
37	200
38	250
39	180
45	1050
49	140
50	1090
51	390
53	10
56	150
57	400
61	210
62	260
63	310
68	500
69	700
70	330
73	90
74	950
75	2790
76	250
83	190
84	20
92	70
93	130
94	610
95	6740
96	560
123	9999
124	730
140	6960
141	510
