Mass Spectrum: 4(1H)-Pyrimidinone
Formula: C4 H4 N2 O
CAS: 4562-27-0
Molecular weight: 96
Origin: Japan AIST/NIMC Database- Spectrum MS-IW-2297
m/z	RELATIVE INTENSITY
12	40
13	109
14	179
15	20
24	30
25	139
26	919
27	249
28	5329
29	209
34	10
37	30
38	259
39	379
40	1369
41	1429
42	3009
43	189
44	50
45	20
50	40
51	249
52	509
53	419
54	70
55	20
65	10
66	10
67	249
68	3819
69	1929
70	80
77	10
79	109
95	209
96	9999
97	739
98	40
