Mass Spectrum: Benzenemethanesulfonamide
Formula: C7 H9 N O2 S
CAS: 4563-33-1
Molecular weight: 171
Origin: RADIAN CORP
m/z	RELATIVE INTENSITY
38	80
39	620
41	110
46	50
48	90
50	160
51	300
52	90
62	190
63	640
64	320
65	2160
66	110
77	70
80	250
89	510
90	160
91	9999
92	770
106	80
107	430
171	110
