Mass Spectrum: 1-Azabicyclo[2.2.2]octane, 4-methyl-
Formula: C8 H15 N
CAS: 45651-41-0
Molecular weight: 125
Origin: ORMSBG,10(12)1111(1975); H. ACHENBACH
m/z	RELATIVE INTENSITY
39	1250
40	400
41	290
42	9999
43	560
53	830
54	400
55	1670
56	800
57	1530
67	560
68	1250
69	3340
70	800
82	1530
96	3340
97	1870
110	2920
111	400
124	500
125	2900
126	400
