Mass Spectrum: 5-Methylbenzo[b]naphtho[2,1-d]thiophene
Formula: C17 H12 S
CAS: 4567-49-1
Molecular weight: 248
Origin: Organic Synthesis Lab, MSU, Moscow.TRC 353
m/z	RELATIVE INTENSITY
57	20
62	20
63	60
69	100
71	30
73	20
74	80
75	110
76	70
77	70
81	60
82	70
83	40
85	40
86	80
87	180
88	371
89	110
91	20
93	140
99	120
100	391
101	761
103	60
104	50
113	80
114	40
115	70
116	130
117	80
119	20
120	20
124	1944
126	100
127	70
128	20
133	20
134	30
135	30
137	70
138	70
139	120
140	20
141	20
145	60
146	20
149	70
150	220
151	150
152	100
158	30
161	80
162	110
163	220
164	70
165	50
169	60
170	30
171	80
173	20
174	150
175	110
176	311
177	60
178	20
179	30
182	20
185	30
186	50
187	311
188	150
189	281
190	40
193	30
194	20
195	70
198	50
199	70
200	381
201	240
202	1042
203	421
204	60
206	40
207	70
208	90
209	30
211	80
212	50
213	461
214	150
215	1884
216	351
217	40
219	170
220	110
221	671
222	120
223	40
232	140
233	30
243	200
244	160
245	1222
247	5881
248	9999
249	1964
250	561
