Mass Spectrum: Undecanedioic acid, dimethyl ester
Formula: C13 H24 O4
CAS: 4567-98-0
Molecular weight: 244
Origin: NIST Mass Spectrometry Data Center
m/z	RELATIVE INTENSITY
14	10
15	440
16	10
26	40
27	510
28	310
29	991
30	50
31	170
32	10
33	40
37	10
38	20
39	861
40	200
41	3733
42	1121
43	3703
44	200
45	540
46	20
47	10
48	10
49	10
50	20
51	50
52	40
53	490
54	480
55	7597
56	811
57	1021
58	140
59	4494
60	140
61	50
62	10
63	80
64	10
65	110
66	70
67	1201
68	540
69	5245
70	611
71	430
72	80
73	881
74	8317
75	520
76	50
77	140
78	40
79	591
80	280
81	1281
82	470
83	2562
84	5385
85	631
87	3563
88	430
89	30
91	250
92	100
93	711
94	490
95	1061
96	1001
97	3783
98	9999
99	801
100	140
101	751
102	80
103	20
104	10
105	100
106	60
107	280
108	230
109	550
110	721
111	1672
112	2372
113	350
114	140
115	631
116	100
117	40
118	40
119	130
120	320
121	1331
122	150
123	410
124	601
125	390
126	130
127	120
128	360
129	661
130	130
131	20
132	10
133	180
134	310
135	1001
136	270
137	290
138	1251
139	5785
140	601
141	140
142	40
143	100
144	100
145	60
146	10
147	10
148	20
149	10
150	20
151	220
152	2672
153	831
154	90
155	30
156	140
157	60
158	270
159	30
160	10
161	50
162	230
163	140
164	20
165	20
166	10
167	10
168	40
169	70
170	220
171	3073
172	340
173	30
179	80
180	651
181	180
182	20
183	30
184	110
185	30
186	30
194	40
195	10
197	10
211	10
212	200
213	3083
214	420
215	40
245	10
