Mass Spectrum: N-Ethylamphetamine
Formula: C11 H17 N
CAS: 457-87-4
Molecular weight: 163
Origin: Patti Price, Georgia Bureau of Investigation, Decatur, Georgia
m/z	RELATIVE INTENSITY
41	220
42	440
43	90
44	2792
45	70
50	100
51	290
52	80
53	30
54	20
56	330
57	90
58	10
62	40
63	200
64	50
65	760
66	40
68	10
70	110
71	40
72	9999
73	490
74	40
75	30
76	30
77	280
78	110
79	60
83	30
85	20
86	10
87	10
89	230
90	80
91	2422
92	230
93	30
102	50
103	210
104	90
105	90
106	10
115	420
116	90
117	330
118	180
119	290
120	150
128	10
129	10
130	70
131	30
132	80
133	30
134	20
144	10
146	60
147	30
148	470
149	50
160	10
162	170
163	30
164	20
