Mass Spectrum: 1-Azabicyclo[2.2.2]octane, 4-ethyl-
Formula: C9 H17 N
CAS: 45732-65-8
Molecular weight: 139
Origin: ORMSBG,10(12)1111(1975); H. ACHENBACH
m/z	RELATIVE INTENSITY
39	1560
41	3820
42	9999
43	2220
44	690
45	800
51	280
53	1100
54	730
55	2050
56	1100
57	1320
58	350
67	1040
68	730
69	2460
70	870
79	350
81	490
82	1250
83	400
96	2250
97	400
110	9999
111	2430
124	1420
138	380
139	2080
140	200
