Mass Spectrum: 9,19-Cyclolanostan-3-ol, acetate, (3.beta.)-
Formula: C32 H54 O2
CAS: 4575-74-0
Molecular weight: 470
Origin: CARL DJERASSI DEPT OF CHEM STANFORD UNIV STANFORD CALIF 94305
m/z	RELATIVE INTENSITY
41	3900
42	700
43	9999
44	500
45	300
46	100
50	100
52	100
53	400
54	200
55	4600
56	1000
57	4800
58	200
59	300
60	1500
61	400
65	200
67	1600
68	500
69	4300
70	1100
71	2600
72	200
73	1500
74	200
77	400
79	1200
80	200
81	2600
82	800
83	2100
84	400
85	1000
87	300
91	1100
92	300
93	1700
94	1000
95	4600
96	700
97	1400
98	400
99	200
101	200
104	200
105	1500
106	400
107	2200
108	600
109	2500
110	400
111	800
112	400
113	400
115	300
116	200
117	300
118	200
119	1500
120	800
121	1900
122	1300
123	1500
124	300
125	400
126	200
127	200
129	400
131	400
132	300
133	1200
134	1200
135	1600
136	500
137	700
138	100
139	200
143	200
145	600
146	200
147	1100
148	600
149	2900
150	700
151	300
157	200
159	600
160	300
161	900
162	400
163	1100
164	200
165	200
167	700
171	200
173	500
174	200
175	1900
176	400
177	700
178	200
179	200
185	300
187	600
188	200
189	500
190	200
191	300
193	200
199	200
201	300
202	500
203	1200
204	400
205	300
206	300
207	300
213	300
215	300
217	300
218	300
219	200
220	200
221	200
227	200
228	200
229	100
231	100
232	100
233	200
241	100
245	200
246	200
247	100
255	200
256	600
257	200
259	200
260	200
261	200
270	200
273	400
274	200
275	100
276	100
279	500
284	400
285	200
288	2500
289	600
297	1100
298	300
302	100
315	100
325	200
326	100
340	200
342	500
343	200
354	200
357	500
358	100
367	500
368	200
385	100
386	100
395	1400
396	400
400	200
410	3800
411	1300
412	300
424	200
430	100
455	500
456	100
470	1300
471	400
