Mass Spectrum: 4-Bromo-2-ethylaniline
Formula: C8 H10 Br N
CAS: 45762-41-2
Molecular weight: 199
Origin: NIST Mass Spectrometry Data Center
m/z	RELATIVE INTENSITY
12	20
13	20
14	70
15	460
16	40
17	80
18	110
26	210
27	871
28	981
29	120
30	350
37	240
38	721
39	1411
40	320
41	681
42	410
43	70
44	90
45	60
46	210
47	170
49	120
50	981
51	1732
52	1531
54	400
55	30
56	40
59	831
60	530
61	310
62	651
63	1341
64	500
65	1241
66	340
67	100
68	30
73	70
74	360
75	500
76	571
77	1992
78	1682
79	370
80	210
81	110
82	80
86	350
87	150
88	120
89	540
90	550
91	1371
92	711
93	711
94	150
95	20
98	40
99	50
101	130
102	621
103	621
104	1792
105	2382
106	240
107	30
116	160
117	831
118	961
119	1091
120	921
121	80
131	20
140	20
143	80
145	50
155	50
156	40
157	130
158	60
159	100
160	30
169	30
171	110
172	30
173	80
181	20
182	70
184	9999
185	1061
186	9288
187	771
188	30
195	20
196	40
197	120
199	6055
200	761
201	6005
202	571
203	30
