Mass Spectrum: (+)-p-Bromo-.alpha.-phenethylamine
Formula: C8 H10 Br N
CAS: 45791-36-4
Molecular weight: 199
Origin: NIST Mass Spectrometry Data Center, 1994
m/z	RELATIVE INTENSITY
14	18
15	939
16	59
26	204
27	689
28	5454
29	24
30	121
37	221
38	571
39	859
40	215
41	450
42	4077
43	3118
44	3991
47	128
49	230
50	2450
51	2385
52	1622
53	223
59	492
60	283
61	143
62	357
63	648
64	141
65	303
66	89
68	51
73	227
74	955
75	1436
76	1317
77	4532
78	2417
79	300
80	120
81	88
82	48
85	51
86	100
87	115
88	63
89	244
90	153
91	360
92	610
93	493
99	75
101	109
102	605
103	740
104	1770
105	750
106	78
116	54
117	163
118	397
119	199
120	455
121	39
155	187
156	71
157	1116
158	129
159	961
160	59
182	347
184	9999
185	1116
186	9318
187	754
198	331
199	345
200	340
201	329
