Mass Spectrum: Benzene, 1-ethoxy-3-fluoro-
Formula: C8 H9 F O
CAS: 458-03-7
Molecular weight: 140
m/z	RELATIVE INTENSITY
15	150
26	290
27	1511
29	1591
30	50
31	250
37	110
38	300
39	480
40	70
41	60
42	50
43	170
44	60
45	80
49	50
50	310
51	240
52	40
53	130
54	30
55	80
56	100
57	1411
58	140
59	20
61	110
62	190
63	621
64	761
65	140
66	50
67	30
68	130
69	230
70	80
71	50
73	210
74	150
75	731
76	60
77	50
79	20
80	30
81	310
82	230
83	1621
84	1862
85	120
86	50
91	80
92	80
93	50
94	140
95	761
96	150
97	140
109	120
110	290
111	200
112	9999
113	661
114	40
123	20
125	90
138	100
139	50
140	2953
141	260
142	20
