Mass Spectrum: Piperidine, 2-propyl-, (S)-
Formula: C8 H17 N
CAS: 458-88-8
Molecular weight: 127
Origin: R.E.Ardrey ET AL.Pharmaceutical Mass Spectra,L.,1985
m/z	RELATIVE INTENSITY
27	500
28	1001
29	400
30	901
39	400
41	801
42	400
43	1001
44	200
53	200
54	400
55	701
56	1301
57	200
67	200
68	200
69	100
70	500
71	100
79	500
80	1601
81	500
82	1902
83	200
84	9999
85	500
96	100
97	200
98	200
110	100
126	200
127	100
