Mass Spectrum: 2-Amino-5-chloro-4-pyrimidinecarboxylic acid
Formula: C5 H4 Cl N3 O2
CAS: 45867-11-6
Molecular weight: 173
Origin: NIST Mass Spectrometry Data Center, 1990.
m/z	RELATIVE INTENSITY
13	84
14	81
16	39
24	92
25	254
26	283
27	488
28	1735
29	91
32	98
35	95
36	71
37	135
38	717
39	646
40	878
41	203
42	1242
43	686
47	662
48	181
49	237
50	220
51	932
52	932
53	434
54	65
60	1176
61	216
62	560
63	100
64	178
65	166
66	494
67	3788
68	177
73	307
74	1104
75	2020
76	471
77	705
78	30
79	87
86	83
88	81
92	81
94	2628
95	247
100	70
101	648
102	4075
103	436
104	1407
105	80
129	9999
130	811
131	3243
132	184
