Mass Spectrum: Benzeneacetaldehyde, .alpha.-(hydroxyimino)-, oxime
Formula: C8 H8 N2 O2
CAS: 4589-97-3
Molecular weight: 164
Origin: A.A.Kutin, Moscow, Russia
m/z	RELATIVE INTENSITY
33	76
37	881
38	1252
39	3499
40	597
41	416
42	133
43	689
44	1572
45	125
46	48
47	13
48	62
49	500
50	4672
51	6646
52	1688
53	416
54	87
55	127
56	103
57	68
58	143
59	85
61	720
62	1526
63	3648
64	1887
65	1228
66	335
67	121
68	60
69	48
70	29
71	55
72	36
73	327
74	1202
75	2045
76	5379
77	9999
78	1332
79	2548
80	306
81	90
82	63
83	49
84	55
85	150
86	272
87	401
88	699
89	4314
90	3767
91	1615
92	472
93	170
94	247
95	42
97	23
98	67
99	102
100	76
101	192
102	1908
103	4314
104	2958
105	1632
106	1127
107	208
108	42
109	24
110	17
111	34
112	12
113	8
114	183
116	5103
117	8971
118	1220
119	2612
120	556
121	72
122	84
123	7
124	7
129	854
130	306
131	140
132	137
133	227
134	127
135	48
136	20
137	20
145	134
146	1554
147	4501
148	536
149	83
161	14
163	645
164	5774
165	500
166	48
