Mass Spectrum: Benzene, 1-ethoxy-4-fluoro-
Formula: C8 H9 F O
CAS: 459-26-7
Molecular weight: 140
m/z	RELATIVE INTENSITY
14	10
15	20
18	10
26	60
27	330
28	100
29	480
30	10
31	120
32	20
33	20
37	30
38	70
39	120
40	10
41	10
42	10
43	40
44	10
45	20
49	20
50	130
51	100
52	10
53	50
55	30
56	80
57	460
58	70
59	10
60	10
61	50
62	70
63	210
64	320
65	70
66	10
68	50
69	100
70	40
71	10
73	80
74	90
75	410
76	40
77	30
79	10
80	10
81	120
82	90
83	1011
84	1171
85	70
86	30
91	30
92	30
93	20
94	80
95	530
96	80
97	80
98	10
101	10
105	10
109	70
110	30
111	210
112	9999
113	671
114	40
119	10
121	10
122	10
123	10
125	60
126	10
139	40
140	3593
141	330
142	20
