Mass Spectrum: 4-Fluorobenzyl alcohol
Formula: C7 H7 F O
CAS: 459-56-3
Molecular weight: 126
Origin: NIST Mass Spectrometry Data Center
m/z	RELATIVE INTENSITY
12	20
13	20
15	40
17	50
18	20
19	20
25	30
26	160
27	380
29	1221
30	120
31	1281
33	60
36	30
37	340
38	460
39	911
40	80
43	70
44	100
45	150
46	70
47	30
48	80
49	240
50	1531
51	1932
52	260
53	290
55	90
56	190
57	1001
58	50
59	100
60	30
61	350
62	520
63	701
64	60
65	50
66	40
68	380
69	561
70	781
71	190
72	40
73	170
74	731
75	1852
76	300
77	4514
78	581
79	460
80	120
81	460
82	110
83	1271
84	10
85	70
86	40
87	80
88	50
89	220
90	20
92	40
93	100
94	290
95	3013
96	1431
97	9999
98	781
99	30
105	3443
106	871
107	1171
108	571
109	2512
110	210
123	641
125	5675
126	8127
127	651
128	40
