Mass Spectrum: (4-Fluorophenyl)acetone
Formula: C9 H9 F O
CAS: 459-03-0
Molecular weight: 152
Origin: NIST Mass Spectrometry Data Center, 1994
m/z	RELATIVE INTENSITY
15	730
16	6
18	12
25	7
26	35
27	53
33	54
37	53
38	128
39	446
40	18
43	9999
44	252
46	8
49	29
50	268
51	255
52	33
53	17
55	135
56	72
57	759
58	36
59	55
60	17
61	94
62	233
63	462
64	52
65	23
67	7
68	50
69	66
70	63
71	9
73	9
74	11
75	133
76	28
77	53
78	11
79	9
80	40
81	232
82	99
83	1374
84	75
85	33
86	47
87	47
88	23
89	171
90	17
92	9
93	11
94	35
95	41
96	32
97	13
98	9
99	6
101	43
102	9
103	33
104	9
105	29
107	382
109	3615
110	839
111	48
120	10
121	16
122	8
123	14
133	25
136	11
152	753
153	76
