Mass Spectrum: Acetic acid, fluoro-, ethyl ester
Formula: C4 H7 F O2
CAS: 459-72-3
Molecular weight: 106
Origin: Japan AIST/NIMC Database- Spectrum MS-NW-2638
m/z	RELATIVE INTENSITY
12	10
13	40
14	169
15	259
16	10
17	10
18	30
19	20
25	10
26	299
27	2309
28	1889
29	9999
30	219
31	209
32	169
33	2389
34	40
35	10
36	10
41	30
42	279
43	499
44	50
45	619
46	30
47	50
49	20
59	80
60	149
61	5279
62	119
63	139
73	199
77	129
78	629
79	469
80	10
91	569
92	20
105	80
106	80
