Mass Spectrum: 3-Phenylbutyric acid
Formula: C10 H12 O2
CAS: 4593-90-2
Molecular weight: 164
Origin: NIST Mass Spectrometry Data Center
m/z	RELATIVE INTENSITY
15	20
26	20
27	260
29	40
31	40
37	10
38	50
39	530
40	40
41	350
42	90
43	140
44	20
45	280
49	10
50	280
51	811
52	200
53	100
55	10
57	40
59	20
60	40
61	10
62	70
63	250
64	40
65	260
66	30
69	10
73	10
74	100
75	100
76	120
77	1611
78	751
79	1331
80	90
86	10
87	20
89	120
90	30
91	851
92	80
93	10
98	10
101	20
102	190
103	1231
104	791
105	9999
106	891
107	981
108	70
115	310
116	60
117	400
118	1531
119	210
120	20
121	40
130	10
131	140
132	10
144	10
145	20
146	10
147	30
149	60
164	2042
165	220
166	20
