Mass Spectrum: 2-Pyridinamine, N-methyl-
Formula: C6 H8 N2
CAS: 4597-87-9
Molecular weight: 108
Origin: Japan AIST/NIMC Database- Spectrum MS-IW-2384
m/z	RELATIVE INTENSITY
14	10
15	119
25	10
26	149
27	339
28	729
29	60
30	1169
31	20
36	10
37	169
38	429
39	1029
40	379
41	389
42	179
43	30
44	10
46	10
48	10
49	90
50	499
51	1369
52	2649
53	1059
54	709
55	249
56	30
57	40
59	10
62	20
63	70
64	229
65	349
66	469
67	1199
68	60
73	10
74	10
75	90
76	119
77	50
78	3809
79	8989
80	5629
81	349
82	10
90	10
91	50
92	219
93	99
105	109
106	20
107	5209
108	9999
109	749
110	20
