Mass Spectrum: Propane, 3-chloro-1,1,1-trifluoro-
Formula: C3 H4 Cl F3
CAS: 460-35-5
Molecular weight: 132
Origin: CARL DJERASSI DEPT OF CHEM STANFORD UNIV STANFORD CALIF 94305
m/z	RELATIVE INTENSITY
44	300
45	400
46	800
47	1100
48	300
49	3400
50	400
51	2000
55	100
56	100
57	100
61	300
62	200
63	1400
64	1300
65	500
67	800
69	3200
75	500
77	9999
78	200
85	300
87	100
95	1800
96	400
97	1000
112	6400
113	600
114	1900
115	200
132	2000
133	100
134	700
