Mass Spectrum: Ethene, 1-chloro-2-fluoro-
Formula: C2 H2 Cl F
CAS: 460-16-2
Molecular weight: 80
m/z	RELATIVE INTENSITY
24	70
25	240
26	681
27	30
31	400
32	40
33	40
35	240
36	80
37	90
38	30
40	120
41	30
43	80
44	2592
45	7577
46	180
47	290
48	230
49	280
50	100
51	90
59	90
60	450
61	991
62	170
63	320
64	20
78	140
79	400
80	9999
81	360
82	3053
83	90
