Mass Spectrum: 2,2,2-Trifluoroethyl methyl ether
Formula: C3 H5 F3 O
CAS: 460-43-5
Molecular weight: 114
Origin: Thomas J.Bruno
m/z	RELATIVE INTENSITY
31	2912
33	4323
35	240
43	370
45	9999
46	550
47	150
50	500
51	1361
61	2372
63	1301
64	1711
65	540
69	2272
83	2452
95	480
113	440
114	1741
