Mass Spectrum: n-Propyl fluoride
Formula: C3 H7 F
CAS: 460-13-9
Molecular weight: 62
m/z	RELATIVE INTENSITY
12	10
13	10
14	50
15	140
19	40
20	40
25	40
26	410
27	3383
28	4554
29	9999
30	230
31	200
32	150
33	891
34	10
36	30
37	170
38	230
39	801
40	160
41	1251
42	2722
43	180
44	460
45	280
46	220
47	661
48	10
55	10
56	50
57	290
58	40
59	801
60	100
61	290
62	280
63	10
