Mass Spectrum: 2,6-Dimethyl-1,3,5,7-octatetraene, E,E-
Formula: C10 H14
CAS: 460-01-5
Molecular weight: 134
Origin: Mark Whitten, Florida Museum of Natural History, U. of Florida
m/z	RELATIVE INTENSITY
41	4204
42	206
43	110
44	52
50	750
51	2074
52	820
53	1724
54	177
55	1830
56	166
58	206
61	102
62	287
63	865
64	243
65	1902
66	386
67	473
68	63
69	73
74	187
75	189
77	3812
78	1367
79	2763
80	635
81	117
86	42
87	76
89	298
91	9999
92	2218
93	1450
94	204
102	183
103	1040
104	735
105	2091
106	865
107	447
108	57
115	902
116	279
117	1651
119	8117
120	820
128	49
129	49
131	73
133	359
134	4461
135	504
