Mass Spectrum: Phosphine, bis(trifluoromethyl)-
Formula: C2 H F6 P
CAS: 460-96-8
Molecular weight: 170
Origin: A.Pleshkova, Nesmeyanov Inst.Org.Elem.Cpds, Moscow
m/z	RELATIVE INTENSITY
31	741
32	170
50	360
51	1371
52	20
62	170
63	340
69	9999
70	120
81	320
82	1822
83	20
100	320
101	781
102	10
151	841
152	20
170	1922
171	40
