Mass Spectrum: 2,6,10-Dodecatrien-1-ol, 3,7,11-trimethyl-
Formula: C15 H26 O
CAS: 4602-84-0
Molecular weight: 222
Origin: NIST Mass Spectrometry Data Center
m/z	RELATIVE INTENSITY
15	10
26	10
27	310
28	40
29	711
30	20
31	110
37	10
38	20
39	781
40	210
41	4764
42	270
43	801
44	50
45	50
50	30
51	130
52	80
53	981
54	110
55	1161
56	130
57	671
58	30
59	40
62	10
63	30
64	10
65	240
66	100
67	1491
68	1231
69	9999
70	701
71	340
72	30
73	10
77	430
78	80
79	661
80	460
81	2913
82	500
83	370
84	450
85	110
86	10
89	10
91	571
92	230
93	1842
94	330
95	1021
96	150
97	190
98	40
99	10
102	10
103	40
104	10
105	290
106	80
107	991
108	220
109	861
110	130
111	200
112	30
115	30
116	10
117	30
118	10
119	310
120	120
121	851
122	440
123	761
124	150
125	30
126	20
127	240
128	30
129	10
131	10
133	160
134	90
135	320
136	1021
137	390
138	240
139	100
140	60
141	10
145	10
147	90
148	90
149	80
150	10
151	60
152	30
153	20
159	10
161	260
162	50
163	20
165	20
166	30
175	20
176	20
177	20
178	10
179	130
180	40
189	110
190	10
191	160
192	30
193	10
204	30
205	10
207	30
222	20
