Mass Spectrum: 1,3-Propanediamine, N,N'-bis(3-aminopropyl)-
Formula: C9 H24 N4
CAS: 4605-14-5
Molecular weight: 188
Origin: RADIAN CORP
m/z	RELATIVE INTENSITY
18	100
27	300
28	1110
29	640
30	3700
31	80
32	30
38	10
39	330
40	190
41	1700
42	2490
43	2060
44	9999
45	910
46	100
50	60
51	10
52	80
53	110
54	500
55	610
56	4710
57	5540
58	9600
59	870
60	340
65	20
66	20
67	290
68	1250
69	770
70	5730
71	5560
72	2100
73	350
74	200
75	830
76	40
77	30
79	60
80	140
81	80
82	1890
83	650
84	8840
85	3160
86	540
87	1840
88	150
89	130
94	70
95	60
96	500
97	390
98	820
99	1860
100	220
101	490
102	140
103	50
109	30
110	40
111	160
112	150
113	710
114	1710
115	440
116	550
117	50
125	100
126	270
127	460
128	120
129	20
130	110
131	30
132	220
137	10
138	20
139	60
140	70
141	150
142	980
143	110
144	540
145	160
151	10
152	110
156	30
158	140
170	30
188	200
