Mass Spectrum: Ethyl cyclopropanecarboxylate
Formula: C6 H10 O2
CAS: 4606-07-9
Molecular weight: 114
Origin: NIST Mass Spectrometry Data Center, 1994
m/z	RELATIVE INTENSITY
13	27
14	98
15	321
16	22
25	34
26	402
27	1362
28	371
29	2412
30	134
31	114
32	17
37	155
38	423
39	3103
40	641
41	4013
42	1038
43	418
44	102
45	591
53	60
55	491
56	46
57	170
58	773
59	102
60	48
69	9999
70	507
71	458
72	49
73	319
85	825
86	2963
87	1473
88	69
96	59
99	214
100	13
113	61
114	284
115	31
