Mass Spectrum: 4,4,4-Trifluorobutanol
Formula: C4 H7 F3 O
CAS: 461-18-7
Molecular weight: 128
Origin: NIST Mass Spectrometry Data Center, 1994
m/z	RELATIVE INTENSITY
14	179
15	211
16	107
17	68
18	138
19	143
26	241
27	947
28	1828
29	1263
30	68
31	9999
32	700
33	316
37	86
38	116
39	530
40	103
41	516
42	243
43	444
44	608
45	343
46	75
47	420
51	965
57	184
59	529
61	387
64	622
65	106
67	104
69	595
71	288
75	129
77	1988
78	2133
79	387
88	80
89	108
90	56
91	741
107	292
108	377
