Mass Spectrum: Ethyl fluoroformate
Formula: C3 H5 F O2
CAS: 461-64-3
Molecular weight: 92
Origin: F. TURECEK,HEYROVSKY INST PHYS CHEM & ELECTROCHEM,PRAGUE,CZECH
m/z	RELATIVE INTENSITY
13	110
14	400
15	900
16	50
17	30
18	60
25	160
26	1380
27	4930
28	7300
29	9999
30	240
31	120
32	70
33	740
39	50
41	80
42	210
43	580
44	370
45	410
46	50
47	3490
48	80
49	70
63	50
64	270
65	1350
66	110
77	3210
78	80
91	300
92	30
