Mass Spectrum: Dicyandiamide
Formula: C2 H4 N4
CAS: 461-58-5
Molecular weight: 84
Origin: Japan AIST/NIMC Database- Spectrum MS-NW-4978
m/z	RELATIVE INTENSITY
3	10
12	169
13	289
14	80
15	30
16	209
17	1229
18	169
24	10
26	99
27	389
28	1759
29	149
30	20
31	169
38	40
39	129
40	109
41	529
42	1779
43	8459
44	499
52	10
53	119
54	10
56	60
58	30
66	10
67	559
68	3029
69	99
70	10
84	9999
85	429
