Mass Spectrum: Carbonotrithioic acid, bis(trifluoromethyl) ester
Formula: C3 F6 S3
CAS: 461-08-5
Molecular weight: 246
m/z	RELATIVE INTENSITY
19	30
31	460
32	1611
33	20
34	70
38	40
44	901
45	20
46	40
50	200
51	100
53	10
56	10
63	460
64	1051
65	40
66	90
69	9999
70	110
76	7607
77	200
78	681
79	220
80	20
81	80
82	581
83	20
84	30
95	90
96	10
97	10
101	210
103	10
108	490
109	20
110	70
133	100
135	10
145	9008
146	330
147	811
148	20
177	260
178	10
179	40
246	2632
247	150
248	380
249	30
