Mass Spectrum: Hydantoin
Formula: C3 H4 N2 O2
CAS: 461-72-3
Molecular weight: 100
Origin: Japan AIST/NIMC Database- Spectrum MS-NW- 234
m/z	RELATIVE INTENSITY
12	60
13	80
14	229
15	90
16	159
17	40
18	139
26	119
27	1339
28	9999
29	9069
30	189
32	40
38	119
39	80
40	149
41	99
42	729
43	1819
44	1669
45	60
53	90
54	159
55	189
56	409
57	1259
58	40
64	20
67	20
69	30
70	679
71	30
72	3469
73	109
82	30
100	7759
101	471
102	50
