Mass Spectrum: 9H-Fluorene, 2,3-dimethyl-
Formula: C15 H14
CAS: 4612-63-9
Molecular weight: 194
m/z	RELATIVE INTENSITY
50	230
51	461
74	300
75	415
76	1336
87	346
88	645
89	2304
115	346
139	276
149	207
150	276
151	438
152	945
153	230
165	1106
176	691
177	691
178	3732
179	9999
180	1843
189	968
190	346
191	622
192	392
193	875
194	7303
195	1405
196	184
