Mass Spectrum: Benzene, 1,1'-(1,2-dimethyl-1,2-ethanediyl)bis-, (R*,S*)-
Formula: C16 H18
CAS: 4613-11-0
Molecular weight: 210
Origin: J. M. PECHINE
m/z	RELATIVE INTENSITY
27	280
39	195
51	322
65	134
77	1030
78	284
79	950
89	105
91	362
103	560
104	2590
105	9999
106	884
115	117
210	287
