Mass Spectrum: Neric acid
Formula: C10 H16 O2
CAS: 4613-38-1
Molecular weight: 168
Origin: Philip Morris R&D
m/z	RELATIVE INTENSITY
38	61
39	1386
40	258
41	6968
42	364
43	751
44	69
45	196
50	66
51	176
52	95
53	667
54	172
55	368
56	223
57	117
58	34
59	78
60	40
63	48
65	134
66	49
67	591
68	276
69	9999
70	572
71	101
77	172
78	44
79	191
80	54
81	201
82	779
83	156
84	40
85	274
91	175
92	29
93	114
94	23
95	121
96	48
97	111
98	35
100	1865
101	111
105	58
107	141
108	159
109	138
110	21
111	301
112	107
113	115
121	46
122	152
123	668
124	155
125	425
126	66
135	54
149	46
150	69
151	22
153	58
163	32
168	299
169	29
