Mass Spectrum: Eicosanenitrile
Formula: C20 H39 N
CAS: 4616-73-3
Molecular weight: 293
m/z	RELATIVE INTENSITY
12	10
13	20
14	60
15	450
16	10
24	10
25	20
26	110
27	2202
28	971
29	5275
30	320
33	20
36	20
37	30
38	50
39	1121
40	290
41	7857
42	1902
43	9999
44	510
45	60
46	10
47	20
48	20
49	10
50	30
51	50
52	60
53	440
54	1281
55	5385
56	1892
57	7537
58	400
59	70
60	20
61	20
63	20
65	70
66	80
67	601
68	490
69	2332
70	2552
71	2312
72	160
73	60
74	190
75	50
76	40
77	70
78	40
79	210
80	150
81	470
82	1211
83	1732
84	861
85	1151
86	110
87	110
88	230
89	30
91	60
92	30
93	110
94	130
95	260
96	1571
97	3163
98	761
99	370
100	50
101	90
102	30
103	10
104	10
105	30
106	20
107	70
108	100
109	130
110	1882
111	1541
112	470
113	270
114	40
115	40
116	20
117	10
118	10
119	20
120	20
121	60
122	170
123	80
124	1501
125	631
126	330
127	210
128	40
129	50
130	20
131	10
133	20
134	20
135	40
136	110
137	50
138	911
139	280
140	250
141	150
142	30
143	90
144	20
145	10
146	10
147	10
148	10
149	30
150	50
151	30
152	661
153	170
154	210
155	100
156	30
157	20
158	10
159	10
161	10
162	10
163	20
164	40
165	20
166	540
167	150
168	170
169	70
170	30
171	20
172	10
177	10
178	30
179	20
180	500
181	170
182	130
183	40
184	10
185	20
186	10
191	10
192	20
193	20
194	510
195	230
196	120
197	40
198	20
199	20
200	10
205	10
206	20
207	30
208	550
209	300
210	100
211	30
212	20
213	20
214	10
220	20
222	611
223	320
224	100
225	30
227	10
228	20
234	20
236	691
237	310
238	100
239	20
241	10
247	10
248	20
250	741
251	260
252	100
253	20
255	10
256	20
262	20
264	500
265	150
266	30
278	80
279	10
292	50
293	20
294	60
