Mass Spectrum: 2-(2-Methylpropyl)-3,5,6-trimethylpyrazine
Formula: C11 H18 N2
CAS: 46187-37-5
Molecular weight: 178
Origin: Philip Morris R&D
m/z	RELATIVE INTENSITY
36	29
37	6
38	30
39	596
40	67
41	557
42	1192
43	235
44	6
47	3
50	46
51	188
52	307
53	1772
54	555
55	100
56	13
57	46
60	4
62	1
63	4
64	12
65	73
66	73
67	111
68	98
69	20
70	17
73	18
74	133
75	11
76	9
77	72
78	35
79	104
80	247
81	108
82	30
84	17
91	11
92	7
93	33
94	402
95	76
96	19
104	1
106	11
107	35
108	23
109	46
110	34
111	3
118	6
119	11
120	13
121	314
122	219
123	65
132	3
133	15
134	5
135	952
136	9999
137	917
138	39
145	7
146	15
147	80
148	15
149	20
150	1
159	6
160	8
161	74
162	28
163	947
164	113
165	4
175	7
177	487
178	1177
179	148
180	8
