Mass Spectrum: 2,4,6-Tribromo-m-cresol
Formula: C7 H5 Br3 O
CAS: 4619-74-3
Molecular weight: 342
Origin: NIST Mass Spectrometry Data Center
m/z	RELATIVE INTENSITY
25	10
26	30
27	60
29	40
36	40
37	350
38	480
39	230
43	30
48	30
49	260
50	1471
51	1401
52	240
53	701
54	30
55	70
60	120
61	561
62	410
63	200
64	20
65	30
66	90
67	230
68	10
72	50
73	460
74	1692
75	2602
76	1902
77	1982
78	691
79	490
80	130
81	200
82	130
83	60
84	90
85	160
86	190
87	140
88	40
89	40
90	60
92	190
93	210
94	10
95	20
101	70
102	30
103	340
104	190
105	731
106	110
107	70
109	20
115	50
116	150
117	350
118	490
119	280
123	100
124	40
127	10
128	160
129	220
130	190
131	581
132	1051
133	490
135	10
139	30
140	110
141	130
142	120
143	100
144	20
145	10
146	10
152	40
153	160
154	290
155	2052
156	1852
157	1992
158	1591
159	120
160	10
165	10
166	20
167	30
168	20
169	20
170	10
171	80
172	200
173	200
174	60
181	10
182	110
183	1431
184	691
185	1421
186	561
187	50
194	10
195	40
196	20
197	90
198	10
199	40
209	20
211	30
213	10
219	20
221	40
223	20
233	90
234	210
235	350
236	420
237	410
238	210
239	170
240	10
245	90
247	180
248	20
249	100
250	10
261	160
262	290
263	3904
264	831
265	7046
266	801
267	3353
268	260
269	10
313	10
315	40
317	40
319	10
324	20
326	70
328	70
330	20
341	90
342	3553
343	520
344	9999
345	991
346	9609
347	811
348	3173
349	230
350	10
