Mass Spectrum: 3-Aminopyridine
Formula: C5 H6 N2
CAS: 462-08-8
Molecular weight: 94
Origin: Japan AIST/NIMC Database- Spectrum MS-NW-2299
m/z	RELATIVE INTENSITY
12	10
13	10
14	40
15	20
25	20
26	109
27	80
28	509
29	20
30	50
33	40
36	40
37	319
38	659
39	1749
40	869
41	2609
42	189
43	80
46	99
47	70
49	40
50	169
51	219
52	239
53	80
54	239
55	20
62	30
63	60
64	139
65	259
66	949
67	3509
68	379
69	10
75	20
76	30
77	40
78	60
79	20
92	30
93	1139
94	9999
95	639
96	10
