Mass Spectrum: 2-(tert-Butylamino)ethanol
Formula: C6 H15 N O
CAS: 4620-70-6
Molecular weight: 117
Origin: NIST Mass Spectrometry Data Center, 1994
m/z	RELATIVE INTENSITY
12	14
13	16
14	91
15	924
16	15
17	14
18	304
19	174
26	85
27	1063
28	1426
29	2064
30	9999
31	923
32	67
37	40
38	104
39	1337
40	267
41	3192
42	2540
43	688
44	594
45	579
46	18
50	41
51	66
52	58
53	98
54	188
55	387
56	669
57	2212
58	2711
59	3
60	428
61	46
62	28
65	17
66	11
67	57
68	127
69	146
70	459
71	269
72	89
82	54
84	2610
85	218
86	1816
87	123
100	15
102	4814
103	261
104	18
116	18
117	68
