Mass Spectrum: Cyclohexanol, 4-(1-methylethyl)-
Formula: C9 H18 O
CAS: 4621-04-9
Molecular weight: 142
Origin: NIST Mass Spectrometry Data Center, 1994
m/z	RELATIVE INTENSITY
15	500
16	40
17	34
18	44
19	61
27	3232
28	891
29	3044
30	154
31	796
37	30
39	2805
41	4984
42	783
43	6007
44	1420
45	231
50	96
51	333
52	182
53	1099
54	965
55	3767
56	841
57	3029
58	355
59	104
63	57
65	270
66	803
67	2072
68	696
69	1235
70	536
71	171
72	44
73	21
77	267
79	1359
80	1789
81	9999
82	3006
83	639
84	272
85	808
86	85
91	64
93	69
95	602
96	471
97	118
98	241
99	146
107	49
109	1430
110	146
124	1176
125	116
