Mass Spectrum: Carbonyl sulfide
Formula: C O S
CAS: 463-58-1
Molecular weight: 60
m/z	RELATIVE INTENSITY
16	120
28	1371
32	5765
33	80
34	240
44	751
60	9999
61	170
62	430
