Mass Spectrum: Amyl nitrite
Formula: C5 H11 N O2
CAS: 463-04-7
Molecular weight: 117
Origin: NIST Mass Spectrometry Data Center, 1994
m/z	RELATIVE INTENSITY
12	13
13	33
14	139
15	825
16	71
26	874
27	5184
28	1031
29	4344
30	1970
31	340
37	128
39	3319
41	6739
42	2306
43	9999
44	489
45	757
46	871
47	10
48	10
49	19
50	120
51	155
52	81
53	340
54	10
55	1680
56	181
57	110
59	259
60	202
62	646
63	36
65	27
67	91
69	683
70	331
71	1223
72	87
74	10
75	21
88	185
118	11
