Mass Spectrum: Ketene
Formula: C2 H2 O
CAS: 463-51-4
Molecular weight: 42
m/z	RELATIVE INTENSITY
12	1251
13	1311
14	9999
15	120
16	100
20	10
21	180
24	440
25	581
26	160
27	10
28	1131
29	681
30	10
40	510
41	2652
42	9398
43	210
44	10
