Mass Spectrum: Thiophosgene
Formula: C Cl2 S
CAS: 463-71-8
Molecular weight: 114
Origin: RADIAN CORP
m/z	RELATIVE INTENSITY
12	10
35	870
37	270
44	1620
45	10
46	90
47	810
49	270
56	130
64	40
67	130
69	40
70	10
76	300
77	20
78	60
79	9999
80	250
81	3780
82	450
83	170
84	250
113	10
114	2150
115	50
116	1450
117	60
118	270
119	30
