Mass Spectrum: 1-Fluorononane
Formula: C9 H19 F
CAS: 463-18-3
Molecular weight: 146
Origin: Japan AIST/NIMC Database- Spectrum MS-NW-9944
m/z	RELATIVE INTENSITY
15	30
26	50
27	1299
28	369
29	2669
30	60
32	20
33	169
38	20
39	1009
40	189
41	5249
42	2209
43	9999
44	419
45	30
46	60
47	799
48	20
50	20
51	70
52	30
53	289
54	259
55	6119
56	4349
57	5359
58	249
59	349
60	90
61	1489
62	50
63	10
65	30
66	30
67	319
68	299
69	2839
70	3579
71	3079
72	169
73	129
74	249
75	729
76	30
77	20
79	20
81	90
82	569
83	2379
84	3009
85	1739
86	109
87	20
88	259
89	209
90	10
91	30
95	10
96	199
97	2679
98	1139
99	80
102	179
103	149
104	10
111	99
112	10
116	90
117	119
126	189
127	20
146	40
