Mass Spectrum: Cyclohexanecarboxylic acid, 1-propyl-, methyl ester
Formula: C11 H20 O2
CAS: 4630-86-8
Molecular weight: 184
Origin: D.HENNEBERG, MAX-PLANCK INSTITUTE, MULHEIM, WEST GERMANY
m/z	RELATIVE INTENSITY
26	280
27	4320
28	1760
29	3520
30	200
31	320
32	60
38	200
39	3910
40	830
41	7620
42	790
43	1770
44	110
45	550
50	200
51	560
52	340
53	2040
54	1080
55	5660
56	530
57	1610
58	110
59	1590
60	60
61	110
62	50
63	150
64	50
65	460
66	250
67	2450
68	700
69	9999
70	680
71	320
72	50
73	230
74	380
75	80
77	570
78	130
79	830
80	250
81	3900
82	1000
83	6180
84	550
85	160
87	1230
88	160
89	50
91	340
92	150
93	160
94	60
95	1840
96	350
97	210
98	380
99	150
100	120
101	230
102	110
105	50
106	50
108	60
109	340
110	450
111	230
112	50
113	420
114	100
115	80
116	1180
117	110
123	550
124	1170
125	7890
126	830
127	170
128	50
129	2340
130	200
140	50
141	1600
142	4670
144	50
152	160
153	110
155	1310
156	160
184	890
185	110
