Mass Spectrum: Methyl cyclopentanecarboxylate
Formula: C7 H12 O2
CAS: 4630-80-2
Molecular weight: 128
Origin: NIST Mass Spectrometry Data Center
m/z	RELATIVE INTENSITY
12	10
13	10
14	60
15	1321
16	10
17	10
18	40
26	280
27	1541
28	601
29	791
30	150
31	200
32	80
33	50
37	80
38	300
39	2732
40	550
41	5135
42	500
43	200
44	30
45	190
50	60
51	130
52	60
53	360
55	1862
56	100
57	60
59	721
60	20
61	90
62	30
63	60
65	210
67	1221
68	1131
69	4164
70	250
71	50
72	10
74	200
79	20
81	40
82	20
83	10
85	120
87	9999
88	420
89	40
95	110
97	1371
98	100
100	1551
101	80
111	10
113	50
127	190
128	561
129	50
