Mass Spectrum: Cyclohexanecarboxylic acid, methyl ester
Formula: C8 H14 O2
CAS: 4630-82-4
Molecular weight: 142
Origin: Japan AIST/NIMC Database- Spectrum MS-NW-1050
m/z	RELATIVE INTENSITY
14	20
15	1179
16	20
17	30
18	109
26	159
27	1709
28	139
29	1139
30	40
31	119
32	20
33	50
36	20
37	30
38	119
39	2069
40	319
41	5019
42	519
43	479
44	50
45	149
49	10
50	159
51	289
52	149
53	899
54	1109
55	9999
56	629
57	139
58	40
59	889
60	30
61	149
62	20
63	40
64	10
65	139
66	149
67	2019
68	2059
69	1249
70	99
71	159
72	60
73	40
74	4039
75	579
76	40
77	249
78	60
79	369
80	80
81	1419
82	2579
83	8709
84	569
85	119
86	30
87	9159
88	569
89	50
90	10
91	70
92	80
93	30
95	70
96	20
97	20
98	50
99	109
100	709
101	1329
102	80
105	99
106	10
108	10
109	159
110	2649
111	1929
112	149
113	2059
114	379
115	30
124	10
125	20
127	629
128	50
136	40
141	359
142	3739
143	349
144	30
