Mass Spectrum: Naphthalene, 1,2,3,5,6,7,8,8a-octahydro-1,8a-dimethyl-7-(1-methylethenyl)-, [1R-(1.alpha.,7.beta.,8a.alpha.)]-
Formula: C15 H24
CAS: 4630-07-3
Molecular weight: 204
Origin: Philip Morris R&D
m/z	RELATIVE INTENSITY
37	8
38	61
39	1312
40	254
41	3463
42	220
43	958
44	102
45	39
46	43
50	112
51	431
52	189
53	1121
54	118
55	2521
56	114
57	346
58	88
59	35
60	10
61	2
62	14
63	169
64	151
65	999
66	344
67	2193
68	415
69	1683
70	118
71	179
72	88
73	83
74	35
76	33
77	1992
78	433
79	4611
80	798
81	3164
82	370
83	352
84	41
86	4
87	45
88	45
89	53
90	8
91	4617
92	1105
93	5352
94	1351
95	2633
96	265
97	157
102	37
103	297
104	149
105	5691
106	1465
107	5067
108	1306
109	920
110	94
111	51
115	334
116	118
117	488
118	256
119	4800
120	1506
121	2128
122	1235
123	431
124	47
127	35
128	134
129	146
130	57
131	340
132	87
133	4090
134	2596
135	3665
136	704
137	55
141	33
142	8
143	53
144	6
145	305
146	114
147	2409
148	928
149	263
150	35
158	2
159	85
160	238
161	9999
162	2248
163	372
164	20
173	6
174	12
175	1868
176	492
177	59
189	3437
190	490
191	28
203	31
204	5761
205	869
206	77
