Mass Spectrum: 3-Methylcarbazole
Formula: C13 H11 N
CAS: 4630-20-0
Molecular weight: 181
Origin: A.A.Kutin, Moscow, Russia
m/z	RELATIVE INTENSITY
37	111
38	291
39	611
40	91
41	236
43	326
44	149
50	549
51	1345
52	599
53	118
55	121
57	14
59	1066
60	145
61	157
62	304
63	743
64	406
65	221
66	258
67	130
69	138
72	271
73	50
74	327
75	559
76	799
77	2459
78	336
79	139
86	190
87	230
88	218
89	591
90	1433
92	379
93	138
98	194
99	58
100	213
101	125
102	90
103	372
104	267
113	162
114	175
119	262
126	274
127	285
129	75
131	125
139	184
140	146
141	164
150	190
151	534
152	1410
153	435
154	134
155	160
156	143
157	304
158	280
166	131
177	234
178	784
179	822
180	9664
181	9999
182	1453
183	947
