Mass Spectrum: 4-Acetoxy-3-methoxystyrene
Formula: C11 H12 O3
CAS: 46316-15-8
Molecular weight: 192
Origin: D.R. DIMMEL, THE INST. PAP. CHEM., APPLETON, WIS., USA
m/z	RELATIVE INTENSITY
43	1800
77	1600
78	1000
91	700
107	1800
135	4800
150	9999
192	800
