Mass Spectrum: 3-Pentenenitrile
Formula: C5 H7 N
CAS: 4635-87-4
Molecular weight: 81
Origin: NIST Mass Spectrometry Data Center, 1998.
m/z	RELATIVE INTENSITY
13	10
14	10
15	50
24	10
25	50
26	570
27	1290
28	1040
29	180
30	10
31	10
36	40
37	470
38	870
39	4540
40	570
41	6939
42	280
48	50
49	280
50	1090
51	1410
52	1710
53	2880
54	9999
55	600
56	10
60	20
61	50
62	70
63	120
64	320
65	120
66	780
67	40
74	30
75	230
76	170
77	20
78	90
79	50
80	1280
81	4380
82	260
83	10
