Mass Spectrum: Urs-12-ene
Formula: C30 H50
CAS: 464-97-1
Molecular weight: 410
Origin: CARL DJERASSI DEPT OF CHEM STANFORD UNIV STANFORD CALIF 94305
m/z	RELATIVE INTENSITY
40	99
41	3663
42	396
43	1980
44	99
45	297
51	99
53	495
54	297
55	3465
56	693
57	1881
58	198
60	396
61	99
65	198
66	99
67	1287
68	594
69	3168
70	495
71	891
73	396
77	495
78	198
79	990
80	396
81	2475
82	495
83	1089
84	297
85	594
91	891
92	297
93	1287
94	594
95	2376
96	495
97	792
98	198
99	198
105	1188
106	396
107	1386
108	594
109	1782
110	297
111	594
112	99
113	99
114	99
115	198
116	198
117	297
118	198
119	1188
120	396
121	1188
122	1683
123	1485
124	297
125	396
128	198
129	396
130	198
131	495
132	297
133	1287
134	792
135	1584
136	1287
137	792
138	198
141	198
142	198
143	198
144	198
145	495
146	297
147	792
148	594
149	1089
150	297
151	198
157	198
159	396
160	198
161	792
162	396
163	594
164	198
165	198
171	297
173	297
174	198
175	495
176	297
177	693
178	297
179	297
185	198
187	297
188	198
189	1089
190	396
191	2079
192	891
193	297
203	1485
204	495
205	396
206	198
215	198
216	198
217	198
218	9999
219	1881
220	198
229	297
231	297
232	198
243	198
257	495
258	297
271	198
272	396
273	198
395	495
396	297
410	1089
411	396
