Mass Spectrum: Bicyclo[2.2.1]hept-2-ene, 1,7,7-trimethyl-
Formula: C10 H16
CAS: 464-17-5
Molecular weight: 136
m/z	RELATIVE INTENSITY
15	60
26	100
27	1221
29	821
31	120
38	80
39	1882
40	200
41	2172
42	180
43	1321
45	90
50	160
51	701
52	330
53	951
54	100
55	731
56	50
57	250
58	100
59	130
63	250
64	100
65	801
66	250
67	621
68	110
74	90
75	100
76	70
77	2642
78	581
79	2502
80	751
81	30
89	170
91	2722
92	1151
93	9999
94	951
95	200
103	180
104	70
105	1251
106	350
107	1201
108	2452
109	220
115	70
117	50
119	270
121	9008
122	951
135	70
136	3203
137	340
