Mass Spectrum: Butane, 2,2,3-trimethyl-
Formula: C7 H16
CAS: 464-06-2
Molecular weight: 100
m/z	RELATIVE INTENSITY
2	10
12	10
13	10
14	30
15	601
16	30
25	10
26	60
27	1832
28	370
29	2552
30	60
31	10
33	10
37	30
38	60
39	1421
40	250
41	5345
42	370
43	7126
44	240
45	10
46	10
50	20
51	70
52	30
53	220
54	50
55	530
56	6276
57	9999
58	430
59	10
62	10
63	10
64	10
65	20
66	10
67	60
68	10
69	260
70	40
71	10
77	10
78	10
79	10
80	10
81	10
82	10
83	30
84	60
85	2973
86	190
87	10
99	10
100	10
