Mass Spectrum: Bornyl chloride
Formula: C10 H17 Cl
CAS: 464-41-5
Molecular weight: 172
Origin: NIST Mass Spectrometry Data Center, 1990.
m/z	RELATIVE INTENSITY
27	907
29	466
38	175
39	2058
40	493
41	2673
42	217
43	428
50	241
51	793
52	371
53	1616
54	316
55	1379
56	131
57	224
62	222
63	341
65	1035
66	368
67	2497
68	1041
69	1210
75	222
77	2115
78	469
79	2378
80	589
81	2098
82	372
83	176
89	208
91	2115
92	1371
93	4742
94	1264
95	9999
96	784
105	489
107	912
108	414
109	368
110	2064
119	554
121	2838
122	246
129	256
136	2702
137	709
157	1010
159	323
