Mass Spectrum: Bicyclo[2.2.1]heptane, 1,7,7-trimethyl-
Formula: C10 H18
CAS: 464-15-3
Molecular weight: 138
m/z	RELATIVE INTENSITY
41	3203
43	601
53	951
55	2702
67	2702
68	1802
69	1501
70	300
77	500
79	701
80	250
81	3103
82	2102
83	871
91	300
93	250
94	801
95	9999
96	1802
109	550
110	450
123	2803
138	2402
