Mass Spectrum: 4-Chlorobenzoylacetonitrile
Formula: C9 H6 Cl N O
CAS: 4640-66-8
Molecular weight: 179
Origin: NIST Mass Spectrometry Data Center
m/z	RELATIVE INTENSITY
12	20
13	60
14	60
18	20
25	40
26	110
27	70
28	90
29	20
35	40
36	40
37	240
38	550
39	330
40	561
41	90
42	50
43	10
44	30
47	30
48	30
49	230
50	1932
51	761
52	70
53	80
55	140
56	50
57	10
58	10
60	70
61	260
62	210
63	260
64	40
65	20
67	30
68	100
69	170
71	60
72	130
73	400
74	1311
75	3213
76	751
77	130
84	170
85	420
86	130
87	170
88	60
89	140
90	30
97	30
98	30
99	60
100	30
101	30
102	10
104	100
105	10
108	20
111	4924
112	430
113	1601
114	150
115	20
116	20
123	50
124	10
125	70
126	10
127	20
136	10
139	9999
140	891
141	3133
142	240
143	10
150	40
151	10
152	20
156	20
179	821
180	90
181	280
182	20
