Mass Spectrum: 1,8,15,22-Tricosatetrayne
Formula: C23 H32
CAS: 4641-78-5
Molecular weight: 308
Origin: Leung Pu, NIH, Bethesda, Maryland, U.S.
m/z	RELATIVE INTENSITY
41	8202
42	441
43	975
44	57
45	36
47	75
48	29
49	370
50	276
51	1188
52	1176
53	4594
54	986
55	5107
56	257
57	256
62	42
63	284
64	114
65	2775
66	1032
67	6683
68	535
69	1987
70	99
71	148
75	52
77	5772
78	1524
79	8328
80	1248
81	3898
82	309
83	343
84	434
85	65
86	225
87	12
88	58
89	122
91	9923
92	1573
93	2978
94	434
95	1658
96	155
97	114
98	22
99	35
102	99
103	889
104	888
105	4816
106	834
107	937
108	182
109	280
110	54
111	72
112	25
113	32
115	1378
116	685
117	3829
118	940
119	2136
120	391
121	418
122	71
123	84
124	38
125	41
127	258
128	922
129	3101
130	1093
131	4069
132	708
133	1593
134	352
135	254
136	45
137	84
139	37
141	1171
142	967
143	3316
144	968
145	3759
146	704
147	729
148	173
149	123
150	33
151	43
152	61
153	198
154	222
155	1340
156	1062
157	4968
158	1114
159	3411
160	669
161	297
162	57
163	52
165	133
166	90
167	471
168	292
169	1282
170	139
171	9999
172	1615
173	2174
174	373
175	163
176	21
177	10
178	11
179	90
180	75
181	676
182	276
183	1394
184	454
185	2610
186	681
187	396
188	75
189	66
193	79
195	848
196	235
197	1193
198	610
199	1520
200	283
201	146
202	32
203	35
207	88
208	25
209	657
210	189
211	614
213	3816
214	633
215	107
221	68
222	48
223	350
224	119
225	284
227	2130
228	375
229	82
235	47
236	15
237	244
238	62
239	136
240	11
241	167
242	37
243	28
249	23
251	163
252	26
253	99
255	53
257	53
260	56
263	11
265	128
266	11
267	81
269	62
279	74
281	83
282	81
293	46
294	10
307	25
308	46
309	10
