Mass Spectrum: Bicyclo[4.1.0]hepta-1,3,5-triene
Formula: C7 H6
CAS: 4646-69-9
Molecular weight: 90
Origin: ASES Database, Dalian Institute, P.R. China
m/z	RELATIVE INTENSITY
37	290
38	490
39	990
40	190
43	390
44	100
45	190
49	100
50	480
51	700
61	390
62	880
63	2412
64	1311
65	100
74	200
75	200
85	100
86	290
87	190
88	200
89	3312
90	9999
91	770
