Mass Spectrum: 1H-Indene-1,2-diol, 2,3-dihydro-, cis-
Formula: C9 H10 O2
CAS: 4647-42-1
Molecular weight: 150
Origin: CARL DJERASSI DEPT OF CHEM STANFORD UNIV STANFORD CALIF 94305
m/z	RELATIVE INTENSITY
40	200
41	300
43	200
44	100
50	900
51	2800
52	800
53	200
55	200
61	100
62	400
63	1200
64	200
65	1400
66	300
74	400
75	400
76	500
77	3900
78	2500
79	2200
80	300
87	100
89	900
90	200
91	3100
92	600
93	600
94	100
101	100
102	600
103	3700
104	9999
105	1700
106	100
107	6100
108	1200
109	100
115	800
116	700
117	100
118	100
119	1300
120	800
121	400
122	100
130	100
131	3200
132	5900
133	800
134	100
135	100
148	100
149	100
150	3100
151	700
152	100
