Mass Spectrum: 1H-Indene-1,2-diol, 2,3-dihydro-, trans-
Formula: C9 H10 O2
CAS: 4647-43-2
Molecular weight: 150
Origin: CARL DJERASSI DEPT OF CHEM STANFORD UNIV STANFORD CALIF 94305
m/z	RELATIVE INTENSITY
38	200
39	1700
40	100
41	200
43	1100
44	500
45	100
50	700
51	2900
52	700
53	100
55	200
58	400
62	300
63	1100
64	100
65	1500
66	100
74	200
75	200
76	300
77	4400
78	2600
79	2400
80	100
89	700
90	200
91	3400
92	200
93	600
101	100
102	600
103	4000
104	9999
105	2100
106	100
107	7200
108	500
114	100
115	1700
116	1900
117	200
118	100
119	1300
120	800
121	400
130	100
131	3400
132	7300
133	1000
134	200
150	4000
151	200
