Mass Spectrum: Azidotrimethylsilane
Formula: C3 H9 N3 Si
CAS: 4648-54-8
Molecular weight: 115
Origin: NIST Mass Spectrometry Data Center, 1998.
m/z	RELATIVE INTENSITY
14	10
15	80
26	20
27	70
28	190
29	390
30	110
31	230
32	10
33	10
39	10
40	10
41	120
42	720
43	2710
44	490
45	2770
46	180
47	100
50	10
52	20
53	250
54	160
55	280
56	710
57	230
58	270
59	400
60	40
61	10
65	10
66	20
67	20
68	20
69	10
70	940
71	110
72	110
73	1730
74	150
75	60
85	60
86	50
87	10
100	9999
101	1060
102	450
103	10
115	2110
116	210
117	80
