Mass Spectrum: Furfuryl isothiocyanate
Formula: C6 H5 N O S
CAS: 4650-60-6
Molecular weight: 139
Origin: NIST Mass Spectrometry Data Center, 1994
m/z	RELATIVE INTENSITY
4	9
13	30
14	54
15	17
25	44
26	301
27	1529
28	189
29	385
31	26
32	212
36	40
37	279
38	517
39	709
40	129
41	86
42	130
44	206
45	277
46	48
47	17
48	22
49	145
50	743
51	1229
52	794
53	4592
54	240
55	108
57	71
58	245
59	97
60	57
61	26
62	29
63	39
64	64
66	34
67	20
68	33
70	178
71	110
72	228
73	18
75	37
76	30
77	20
78	109
79	94
80	18
81	9999
82	556
83	158
84	85
106	20
107	51
139	1256
140	100
141	60
142	3
