Mass Spectrum: Benzeneethanol, 4-bromo-
Formula: C8 H9 Br O
CAS: 4654-39-1
Molecular weight: 200
Origin: NIST Mass Spectrometry Data Center
m/z	RELATIVE INTENSITY
15	10
26	40
27	110
29	210
30	20
31	671
37	70
38	210
39	641
40	90
41	70
42	20
43	110
44	30
45	70
46	40
49	70
50	641
51	731
52	120
53	70
55	20
59	30
60	70
61	170
62	550
63	1541
64	490
65	731
66	60
67	10
73	70
74	370
75	400
76	260
77	831
78	160
79	70
80	20
81	50
82	20
84	10
85	90
86	170
87	160
89	3883
90	4364
91	6666
92	591
93	110
94	10
95	10
97	10
98	40
99	10
101	70
102	320
103	360
104	190
105	30
106	10
107	10
116	20
117	110
118	40
119	160
120	230
121	1361
122	120
123	10
128	10
129	20
130	20
131	20
141	10
143	150
144	10
145	130
146	10
155	30
156	100
157	40
158	90
159	10
167	10
169	9999
170	3203
171	9909
172	3063
173	200
174	10
181	10
182	180
183	30
184	180
185	20
198	20
200	3153
201	310
202	3053
203	270
204	20
