Mass Spectrum: 2-Propenoic acid, 2-methyl-, 1-methylethyl ester
Formula: C7 H12 O2
CAS: 4655-34-9
Molecular weight: 128
Origin: NIST Mass Spectrometry Data Center, 1998.
m/z	RELATIVE INTENSITY
14	10
15	140
16	10
25	10
26	110
27	820
29	190
30	10
31	120
36	10
37	140
38	390
39	3800
40	770
41	7459
42	1310
43	7159
44	290
45	590
46	10
50	10
51	10
52	10
53	100
54	30
55	150
56	30
57	70
58	190
59	2680
60	90
61	10
66	10
67	40
68	240
69	9999
70	1290
71	110
72	10
73	10
74	120
82	270
83	630
84	50
85	90
86	510
87	5299
88	230
89	30
95	70
99	20
100	10
109	10
110	90
111	10
112	10
113	860
114	60
127	20
128	240
129	30
