Mass Spectrum: Aziprotryne
Formula: C7 H11 N7 S
CAS: 4658-28-0
Molecular weight: 225
Origin: P.A. Leclercq, Lab. Instrum. Anal., Eindhoven Univ. Technol., Netherlands
m/z	RELATIVE INTENSITY
41	6320
42	4839
43	9999
44	1769
45	1949
46	1829
47	3819
48	769
49	229
50	89
51	169
52	219
53	1159
54	569
55	649
56	449
57	479
58	2649
59	279
60	569
61	159
62	149
66	219
67	769
68	4639
69	2359
70	1049
71	109
72	399
73	919
74	2589
75	239
76	129
77	119
78	159
79	79
80	159
81	209
82	1169
83	1359
84	489
85	1319
86	189
87	219
88	709
89	599
90	1239
91	369
92	189
93	1349
94	1429
95	329
96	149
97	199
98	379
99	1399
100	199
101	109
105	109
106	39
107	159
108	889
109	699
110	699
111	459
112	589
113	479
114	1289
115	1859
116	349
117	159
122	99
123	279
124	109
125	289
126	279
127	169
128	359
129	109
134	129
135	509
136	619
137	99
138	79
139	3699
140	1319
141	509
142	199
143	119
150	1129
151	129
152	179
153	79
154	499
155	669
156	179
157	589
158	99
166	49
167	589
168	129
169	69
170	89
178	69
179	69
180	39
182	2609
183	779
184	799
185	129
186	209
196	549
197	949
198	159
199	579
200	79
210	1339
211	159
212	69
225	1849
226	239
227	99
