Mass Spectrum: Dipipanone
Formula: C24 H31 N O
CAS: 467-83-4
Molecular weight: 349
Origin: AAFS Toxicology Section MS DB Committee, U. Alberta, Canada
m/z	RELATIVE INTENSITY
29	560
30	80
39	40
40	10
41	440
42	150
44	180
51	30
53	40
54	50
55	210
56	370
57	310
58	90
59	10
65	30
67	30
68	60
69	300
70	50
71	10
72	10
73	20
74	10
75	10
76	20
77	80
78	20
79	10
80	30
81	20
82	60
83	50
84	110
85	20
87	10
89	20
91	270
92	30
94	10
95	10
96	200
97	30
98	10
99	10
101	10
102	30
103	50
105	50
106	20
108	20
109	20
110	260
111	100
112	9999
113	790
114	40
115	160
116	40
117	110
118	20
119	10
120	10
121	10
123	20
124	50
125	90
126	30
127	40
128	70
129	90
130	20
131	10
133	20
134	10
135	10
137	10
139	30
141	10
142	10
145	20
147	20
149	10
151	30
152	70
153	20
160	10
163	10
164	30
165	190
166	40
167	40
168	10
169	10
176	30
177	10
178	120
179	70
180	30
189	30
190	10
191	30
192	20
193	20
194	20
195	40
205	20
207	170
208	60
209	10
210	20
211	10
221	30
223	80
224	20
249	10
264	10
265	10
267	10
281	30
282	10
283	10
334	140
335	40
349	30
