Mass Spectrum: Dioxaphetyl butyrate
Formula: C22 H27 N O3
CAS: 467-86-7
Molecular weight: 353
Origin: HOME OFFICE, CENTRAL RES. EST., ALDERMASTON, BERKS., U.K.
m/z	RELATIVE INTENSITY
29	300
32	100
36	400
38	100
41	100
42	700
43	100
55	100
56	700
70	100
71	100
77	100
91	200
98	100
100	9999
101	500
105	100
113	100
114	400
115	200
119	100
165	200
166	100
178	100
179	100
193	100
194	100
240	100
308	100
353	400
354	100
