Mass Spectrum: Norcodeine
Formula: C17 H19 N O3
CAS: 467-15-2
Molecular weight: 285
Origin: Association of Official Racing Chemists
m/z	RELATIVE INTENSITY
46	45
48	42
49	37
50	252
51	763
52	280
53	726
54	306
55	796
56	450
57	232
58	80
59	50
60	6
61	17
62	88
63	540
64	183
65	608
66	168
67	341
68	379
69	167
70	133
71	65
72	65
73	20
74	116
75	256
76	321
77	1138
78	351
79	281
80	1012
81	3227
82	1174
83	241
84	157
85	80
86	27
87	102
88	151
89	494
90	190
91	750
92	268
93	225
94	272
95	377
96	117
97	93
98	181
99	70
100	44
101	200
102	369
103	631
104	291
105	237
106	176
107	203
109	638
110	1499
111	166
112	71
113	203
115	2129
116	551
117	523
118	284
119	205
120	282
121	231
122	155
123	114
124	110
126	282
127	981
128	1195
129	507
130	340
131	614
132	2136
133	443
134	169
135	138
136	55
137	182
138	280
139	637
140	293
141	649
142	257
143	336
144	524
145	473
146	454
147	587
148	3774
149	515
150	204
151	402
152	1069
153	697
154	316
155	431
156	301
157	359
158	335
159	438
160	336
161	570
162	397
163	386
164	2968
165	1171
166	320
167	406
168	493
169	582
170	369
171	461
172	302
173	516
174	414
175	1099
176	1228
177	603
178	720
179	287
180	205
181	913
182	343
183	491
184	556
185	841
186	468
187	595
188	1109
189	967
190	445
191	147
192	163
193	216
194	206
195	388
196	432
197	949
198	587
199	646
200	2289
201	597
202	379
203	214
204	224
205	175
206	130
207	69
208	142
209	910
210	401
211	534
212	563
213	719
214	943
215	4644
216	1014
217	230
218	55
219	3
220	68
221	110
222	170
223	325
224	415
225	943
226	462
227	374
228	404
229	261
230	190
231	43
232	23
234	91
235	107
236	121
237	177
238	238
239	197
240	593
241	723
242	1313
243	247
244	36
248	32
249	41
250	107
251	97
252	265
253	113
254	162
255	128
256	479
257	350
258	54
264	26
266	445
267	145
268	541
269	128
270	318
271	53
280	24
281	6
282	43
283	165
284	1114
285	9999
286	1924
287	241
288	34
