Mass Spectrum: Thialbarbital
Formula: C13 H16 N2 O2 S
CAS: 467-36-7
Molecular weight: 264
Origin: Finnigan MAT: Toxicological Library (LIBR-TX)
m/z	RELATIVE INTENSITY
41	3210
43	1677
53	2171
55	1311
57	2133
64	902
65	820
71	1446
77	2182
79	5352
80	2665
81	9999
91	1128
97	595
98	685
108	493
109	489
121	405
129	413
145	310
147	490
149	193
157	2317
158	202
164	299
169	315
182	597
184	999
185	2219
221	795
222	1000
223	6474
224	785
231	290
264	807
265	96
