Mass Spectrum: Benzenemethanol, 4-amino-.alpha.,.alpha.-bis(4-aminophenyl)-
Formula: C19 H19 N3 O
CAS: 467-62-9
Molecular weight: 305
Origin: Japan AIST/NIMC Database- Spectrum MS-NW-5743
m/z	RELATIVE INTENSITY
16	10
17	10
18	30
27	60
28	169
29	20
30	70
38	30
39	159
40	20
41	80
42	70
43	20
44	20
50	40
51	109
52	129
53	50
54	90
55	20
57	20
61	10
62	60
63	169
64	70
65	289
66	80
67	30
68	10
69	20
70	30
71	20
74	40
75	80
76	80
77	139
78	70
79	20
80	60
81	10
82	20
83	60
84	20
85	10
86	30
87	60
88	80
89	109
90	90
91	99
92	139
93	189
94	50
95	40
96	30
97	40
98	80
99	30
100	30
101	90
102	129
103	60
104	50
105	20
106	70
107	50
108	109
109	50
110	20
111	20
112	20
113	70
114	99
115	219
116	149
117	139
118	60
119	30
120	309
121	90
122	60
123	70
124	10
125	20
126	50
127	80
128	149
129	239
130	179
131	30
132	10
133	10
134	60
135	50
136	30
137	20
138	30
139	119
140	109
141	119
142	70
143	339
144	129
145	30
149	10
150	50
151	119
152	149
153	70
154	70
155	40
156	40
157	10
158	10
161	20
162	10
163	50
164	60
165	80
166	139
167	409
168	269
169	70
170	20
171	10
174	10
175	30
176	70
177	70
178	99
179	60
180	219
181	70
182	40
183	40
184	40
185	70
186	10
187	30
188	30
189	119
190	70
191	60
192	99
193	199
194	219
195	719
196	439
197	629
198	99
199	20
200	40
201	60
202	139
203	80
204	109
205	50
206	40
207	20
208	30
209	10
211	20
212	50
213	249
214	119
215	159
216	109
217	219
218	129
219	80
220	30
221	50
222	10
224	20
225	40
226	99
227	99
228	119
229	70
230	249
231	139
232	159
233	119
234	80
235	30
236	20
237	10
238	30
239	20
240	99
241	209
242	259
243	389
244	379
245	419
246	99
247	40
248	10
249	10
250	20
251	30
252	30
253	40
254	50
255	99
256	90
257	119
258	299
259	1239
260	419
261	80
262	10
263	10
265	10
266	40
267	50
268	70
269	179
270	139
271	219
272	99
273	139
274	40
275	10
278	10
279	10
280	10
281	10
282	20
283	30
284	90
285	90
286	829
287	9999
288	2829
289	1159
290	219
291	20
302	10
304	10
305	159
306	30
