Mass Spectrum: Phenadoxone
Formula: C23 H29 N O2
CAS: 467-84-5
Molecular weight: 351
Origin: Finnigan MAT: Toxicological Library (LIBR-TX)
m/z	RELATIVE INTENSITY
41	188
42	454
55	183
56	526
57	398
70	507
91	323
105	96
112	105
114	9999
115	768
117	101
127	93
128	92
129	91
165	102
178	94
223	101
336	96
