Mass Spectrum: Pipradrol
Formula: C18 H21 N O
CAS: 467-60-7
Molecular weight: 267
Origin: Finnigan MAT: Toxicological Library (LIBR-TX)
m/z	RELATIVE INTENSITY
51	633
55	1023
56	2791
67	278
77	2257
82	442
84	9999
85	1429
91	238
105	1684
106	175
115	170
128	73
130	62
152	195
153	71
165	341
166	100
167	170
181	131
182	309
183	86
190	57
191	56
193	48
204	39
206	81
220	28
247	64
248	247
249	193
