Mass Spectrum: Neopine
Formula: C18 H21 N O3
CAS: 467-14-1
Molecular weight: 299
Origin: PYTCAS, 15(3)444(1976); F. J. E. M. KUPPERS ET AL
m/z	RELATIVE INTENSITY
58	2000
59	400
152	1700
197	2000
225	1600
243	1800
254	8800
255	2700
280	700
282	900
284	2000
298	1200
299	9999
300	1800
