Mass Spectrum: 2-Buten-1-ol, 2-methyl-
Formula: C5 H10 O
CAS: 4675-87-0
Molecular weight: 86
m/z	RELATIVE INTENSITY
31	1201
32	100
38	200
39	2502
40	701
41	4204
42	500
43	4704
44	500
45	500
50	500
51	500
52	200
53	2502
54	400
55	1301
56	200
57	1301
58	500
65	200
67	1501
68	1301
69	300
71	9999
72	500
85	400
86	5005
87	300
