Mass Spectrum: Oxazole, 4,5-diphenyl-
Formula: C15 H11 N O
CAS: 4675-18-7
Molecular weight: 221
m/z	RELATIVE INTENSITY
39	2426
40	204
50	944
51	3129
52	241
62	944
63	2685
64	407
65	222
75	315
76	389
77	3722
78	185
82	574
83	555
89	2203
90	2796
91	204
105	2037
106	167
114	555
117	778
118	37
139	611
140	19
163	667
164	778
165	7499
166	1481
192	1111
193	7036
194	944
220	704
221	9999
222	944
