Mass Spectrum: Hydroxypethidine
Formula: C15 H21 N O3
CAS: 468-56-4
Molecular weight: 263
Origin: HOME OFFICE, CENTRAL RES. EST., ALDERMASTON, BERKS., U.K.
m/z	RELATIVE INTENSITY
39	540
41	540
42	2973
43	1892
44	2973
53	540
56	270
57	2973
58	811
65	811
70	7026
71	9999
72	540
77	270
80	540
91	1081
94	270
97	1081
99	270
102	270
107	540
119	1081
127	270
133	2973
134	1892
140	8648
141	1621
142	540
144	1892
145	270
147	1351
149	270
156	811
160	270
174	540
180	1892
188	1892
189	3783
190	1892
218	811
234	1892
235	540
248	540
262	5135
263	5405
264	1081
