Mass Spectrum: Betaprodine
Formula: C16 H23 N O2
CAS: 468-59-7
Molecular weight: 261
Origin: HOME OFFICE, CENTRAL RES. EST., ALDERMASTON, BERKS., U.K.
m/z	RELATIVE INTENSITY
39	300
41	700
42	3600
43	2000
44	300
45	100
51	300
53	100
55	200
56	300
57	2900
58	400
63	100
65	200
67	200
68	100
70	900
71	300
74	100
77	1300
78	200
79	100
82	200
83	100
84	4200
85	1100
91	1500
92	100
94	300
96	200
102	100
103	700
104	100
105	1200
106	100
110	1000
115	600
116	200
117	600
118	100
127	100
128	400
129	1000
130	500
131	200
133	100
141	100
143	200
144	1700
145	1500
146	200
158	400
159	200
170	200
171	100
172	9999
173	1200
186	1000
187	6000
188	2500
189	300
204	300
261	700
262	100
