Mass Spectrum: Oxeladin
Formula: C20 H33 N O3
CAS: 468-61-1
Molecular weight: 335
Origin: NIST Mass Spectrometry Data Center, 1998.
m/z	RELATIVE INTENSITY
15	10
26	10
27	100
28	170
29	300
30	410
31	20
39	70
40	10
41	240
42	380
43	210
44	560
45	140
50	10
51	60
52	20
53	40
54	40
55	60
56	450
57	280
58	910
59	50
60	10
63	30
65	90
66	10
67	20
68	20
69	80
70	160
71	130
72	270
73	110
74	10
75	10
76	20
77	190
78	80
79	120
80	10
82	10
83	10
84	190
85	10
86	9999
87	1390
88	50
89	40
90	20
91	2000
92	160
93	10
96	10
98	40
99	30
100	500
101	90
102	50
103	320
104	50
105	1340
106	120
107	20
113	10
114	50
115	340
116	110
117	610
118	130
119	30
127	20
128	50
129	30
130	50
131	60
132	30
133	10
141	10
142	20
144	910
145	110
146	100
147	210
148	30
149	30
159	10
160	10
175	70
176	10
189	10
190	10
191	10
219	60
220	10
276	10
290	10
292	10
306	20
320	180
321	40
334	60
335	20
336	10
