Mass Spectrum: Viloxazine
Formula: C13 H19 N O3
CAS: 46817-91-8
Molecular weight: 237
Origin: Finnigan MAT: Toxicological Library (LIBR-TX)
m/z	RELATIVE INTENSITY
41	1084
42	773
56	9999
57	1680
58	498
65	393
70	1280
81	497
86	904
98	295
100	7523
101	398
109	476
110	2003
111	106
121	211
138	3948
139	289
222	100
237	1313
238	303
