Mass Spectrum: 3a,7-Methano-3aH-cyclopentacyclooctene, decahydro-1,1,7-trimethyl-, [3aS-(3a.alpha.,7.alpha.,9a.beta.)]-
Formula: C15 H26
CAS: 469-91-0
Molecular weight: 206
Origin: R.I.REED CHEMISTRY DEPT., UNIV. OF GLASGOW
m/z	RELATIVE INTENSITY
36	46
37	323
38	389
39	1419
40	360
41	2885
42	990
43	4127
44	373
45	56
46	7
47	5
48	5
49	13
50	40
51	145
52	67
53	804
54	142
55	1872
56	240
57	322
59	267
60	36
61	9
62	16
63	70
64	66
65	350
66	170
67	1471
68	548
69	1420
70	162
71	560
72	40
73	9
74	39
75	34
76	25
77	749
78	228
79	1529
80	722
81	2104
82	658
83	186
84	170
85	66
86	15
87	8
88	19
89	27
90	15
91	966
92	335
93	1848
94	2384
95	2581
96	387
97	143
98	233
99	113
100	43
101	11
102	24
103	67
104	42
105	431
106	470
107	494
108	243
109	226
110	209
111	47
112	13
113	9
114	4
115	66
116	36
117	70
118	28
119	174
120	106
121	1473
122	564
123	324
124	52
125	20
126	21
127	40
128	253
129	55
130	17
131	36
132	16
133	117
134	363
135	9999
136	1489
137	867
138	118
139	11
140	7
141	12
142	8
143	9
144	7
145	28
146	16
147	141
148	43
149	186
150	1481
151	279
152	28
161	387
162	86
163	2220
164	375
165	88
166	20
174	12
175	28
176	13
177	43
178	24
179	15
189	229
190	54
191	1872
192	190
193	36
206	1282
207	216
208	43
