Mass Spectrum: Ketobemidone
Formula: C15 H21 N O2
CAS: 469-79-4
Molecular weight: 247
Origin: HOME OFFICE, CENTRAL RES. EST., ALDERMASTON, BERKS., U.K.
m/z	RELATIVE INTENSITY
29	900
32	300
36	1600
38	400
41	200
42	1700
43	400
44	6900
53	300
55	400
57	2600
58	500
65	300
70	9999
71	4700
77	900
79	200
80	200
81	200
82	300
84	300
91	700
93	300
94	300
96	700
107	600
115	700
119	1300
147	700
189	600
190	2500
191	1100
246	300
247	2500
248	300
