Mass Spectrum: Etoxeridine
Formula: C18 H27 N O4
CAS: 469-82-9
Molecular weight: 321
Origin: HOME OFFICE, CENTRAL RES. EST., ALDERMASTON, BERKS., U.K.
m/z	RELATIVE INTENSITY
42	1500
43	200
45	500
51	100
56	400
57	200
59	200
91	400
103	300
115	200
131	200
172	300
218	400
246	9999
247	1600
248	300
