Mass Spectrum: 2-Bromo-4,5-dimethoxyphenylacetic acid
Formula: C10 H11 Br O4
CAS: 4697-62-5
Molecular weight: 274
Origin: NIST Mass Spectrometry Data Center, 1994
m/z	RELATIVE INTENSITY
14	300
15	1869
27	352
28	826
29	479
30	83
31	191
32	98
37	222
38	679
39	1794
40	146
41	139
42	192
43	240
44	83
45	2335
49	151
50	1500
51	1525
52	421
53	1809
54	103
55	234
57	120
59	67
61	328
62	955
63	3006
64	1541
65	965
66	321
67	343
68	67
69	448
73	111
74	657
75	1216
76	892
77	2591
78	1165
79	1022
80	264
81	346
82	138
85	110
86	165
87	98
88	156
89	884
90	341
91	569
92	1158
93	475
94	219
95	643
96	141
97	98
98	537
104	84
105	806
106	458
107	2498
108	1203
109	387
110	135
116	73
117	194
118	118
119	425
120	229
121	175
122	269
123	681
124	388
131	94
133	147
134	139
135	781
136	194
137	288
138	94
139	442
143	521
145	544
149	226
150	401
151	557
152	174
155	209
156	158
157	261
158	142
159	131
163	87
164	197
166	91
167	755
168	199
169	243
170	175
171	313
172	114
179	616
180	78
183	541
184	467
185	1339
186	655
187	1061
188	187
189	190
191	128
195	7552
196	881
197	157
199	107
200	60
201	122
213	340
214	229
215	463
216	244
217	162
219	121
229	9999
230	1155
231	9148
232	962
233	198
259	135
261	126
274	5452
275	600
276	5388
277	590
278	30
