Mass Spectrum: 2-Cyclohexen-1-ol, 3,5,5-trimethyl-
Formula: C9 H16 O
CAS: 470-99-5
Molecular weight: 140
Origin: Japan AIST/NIMC Database- Spectrum MS-IW-6272
m/z	RELATIVE INTENSITY
15	60
17	20
18	70
26	30
27	759
28	129
29	799
30	20
31	99
37	10
38	80
39	1469
40	269
41	2149
42	179
43	2109
44	99
45	109
46	10
47	10
50	119
51	459
52	209
53	689
54	319
55	2309
56	1109
57	509
58	60
59	189
60	40
61	30
62	50
63	169
64	40
65	629
66	429
67	609
68	109
69	4079
70	219
71	129
72	20
74	20
75	20
76	20
77	969
78	239
79	1939
80	379
81	679
82	759
83	2959
84	5919
85	619
86	40
87	10
89	40
90	20
91	2879
92	429
93	849
94	199
95	299
96	99
97	279
98	70
99	20
100	10
102	20
103	119
104	40
105	1159
106	179
107	6349
108	599
109	219
110	50
111	70
112	249
113	20
115	20
117	20
119	99
120	199
121	199
122	1869
123	439
124	60
125	9999
126	899
127	50
133	10
135	20
136	10
137	10
138	119
139	399
140	1959
141	189
142	10
