Mass Spectrum: Cyclohexanol, 4-methyl-1-(1-methylethyl)-
Formula: C10 H20 O
CAS: 470-65-5
Molecular weight: 156
Origin: N.W. Davies, Centr. Sci. Lab., Univ. Tasmania, Hobart, Australia
m/z	RELATIVE INTENSITY
27	910
29	1270
31	350
39	1220
41	3520
42	490
43	9600
44	130
45	340
51	120
53	820
54	150
55	1950
56	310
57	900
58	270
59	170
65	120
67	1150
68	180
69	1150
70	570
71	2400
72	260
77	180
79	190
80	110
81	680
82	100
86	550
87	110
93	150
95	6630
96	540
97	170
98	210
99	3250
100	240
112	320
113	9999
114	740
123	230
156	120
