Mass Spectrum: Naphtho(2,3-b)furan-2(3H)-one, decahydro-8a-methyl-3,5-bis(methylene)-, (3aR-(3a.alpha.,4a.alpha.,8a.beta.,9a.alpha.))-
Formula: C15 H20 O2
CAS: 470-17-7
Molecular weight: 232
Origin: Finnigan MAT: Toxicological Library (LIBR-TX)
m/z	RELATIVE INTENSITY
39	4675
41	7708
53	5187
55	3748
67	4717
77	4025
79	7458
81	3607
91	6844
93	6605
94	3969
105	4141
107	3304
117	1978
119	2504
121	4733
131	2848
133	1701
145	2618
159	849
161	914
164	2356
171	1812
176	2552
177	1192
187	810
190	9999
191	1560
199	412
203	374
217	2639
232	3597
233	451
