Mass Spectrum: Clofenvinfos
Formula: C12 H14 Cl3 O4 P
CAS: 470-90-6
Molecular weight: 358
Origin: ACCUSTANDARD Chemicals / NIST MS Data Center.
m/z	RELATIVE INTENSITY
14	68
15	447
16	9
18	37
19	62
26	530
27	2900
28	802
29	6440
30	206
31	213
35	27
36	88
37	60
38	81
39	104
41	69
42	64
43	478
44	56
45	615
46	27
47	368
48	131
49	112
50	407
51	187
53	57
55	15
57	14
60	31
61	168
62	328
63	389
64	14
65	485
67	18
71	17
72	82
73	553
74	943
75	960
76	659
77	82
78	197
79	35
80	17
81	5782
82	94
83	117
84	235
85	290
86	283
87	391
88	117
89	156
90	35
91	1704
92	63
93	119
95	32
96	62
97	321
98	452
99	1392
100	146
101	57
103	24
105	24
107	135
109	3746
110	411
111	512
112	198
113	80
114	35
115	38
116	28
117	25
118	13
119	44
120	45
121	77
122	13
123	1589
124	232
125	846
126	98
127	162
128	19
131	38
133	630
134	359
135	750
136	232
137	274
138	98
139	115
140	30
141	75
142	24
143	55
144	19
145	963
146	651
147	667
148	387
149	145
150	95
151	99
152	136
153	198
154	59
155	98
156	24
157	438
158	441
159	1419
160	388
161	766
162	142
163	137
164	28
167	72
168	106
169	622
170	1870
171	489
172	1261
173	1701
174	389
175	1039
176	115
177	187
178	27
179	42
180	32
182	15
185	46
186	173
187	201
188	130
189	127
190	33
191	28
192	15
193	1512
194	15
195	1457
196	181
197	519
198	72
199	96
200	23
201	35
202	23
203	514
204	1147
205	878
206	1080
207	693
208	386
209	222
210	65
211	46
213	14
214	24
215	22
217	73
218	18
219	73
220	33
221	85
222	231
223	81
224	216
225	38
226	65
227	18
230	11
231	63
232	96
233	103
234	48
235	110
237	100
238	17
239	102
241	63
249	34
250	19
251	41
252	18
253	14
259	24
260	18
261	14
264	32
267	9999
268	1589
269	6496
270	676
271	1105
272	97
273	25
279	38
281	11
283	12
284	63
285	40
286	55
287	31
288	44
289	13
290	12
293	42
295	2663
296	470
297	1798
298	222
299	328
300	42
301	3
303	4
305	18
315	20
316	16
317	21
319	24
323	5949
324	1105
325	4006
326	607
327	723
328	107
329	24
358	42
359	5
360	50
361	27
362	33
