Mass Spectrum: Eucalyptol
Formula: C10 H18 O
CAS: 470-82-6
Molecular weight: 154
Origin: NIST Mass Spectrometry Data Center
m/z	RELATIVE INTENSITY
15	140
26	50
27	871
29	831
30	20
31	150
37	10
38	70
39	2052
40	350
41	3423
42	480
43	9999
44	240
45	200
46	20
47	10
50	110
51	380
52	190
53	1441
54	941
55	4004
56	881
57	330
58	1581
59	1511
60	50
62	30
63	100
64	20
65	470
66	210
67	2362
68	2362
69	4144
70	320
71	4924
72	280
73	20
77	741
78	130
79	1041
80	230
81	6546
82	911
83	2422
84	4544
85	410
86	20
89	10
91	360
92	110
93	3803
94	410
95	1802
96	2462
97	811
98	190
99	60
103	10
105	60
106	40
107	540
108	5605
109	641
110	180
111	4704
112	380
113	20
119	10
121	601
122	50
123	30
125	771
126	490
127	40
136	520
137	70
139	3553
140	350
141	20
154	3623
155	380
156	20
