Mass Spectrum: cis-Thujopsene
Formula: C15 H24
CAS: 470-40-6
Molecular weight: 204
m/z	RELATIVE INTENSITY
15	60
26	110
27	1321
29	1651
38	60
39	1932
40	310
41	5605
42	330
43	1491
50	110
51	601
52	290
53	1942
54	190
55	4104
56	851
57	691
58	60
59	110
63	240
64	150
65	1131
66	360
67	1561
68	250
69	3443
70	400
71	360
72	100
73	70
74	70
75	150
76	90
77	2622
78	751
79	3033
80	1311
81	3383
82	500
83	561
84	180
85	70
87	80
89	180
90	130
91	4034
92	2913
93	5945
94	2843
95	2382
96	470
97	340
101	70
102	110
103	561
104	300
105	6256
106	1852
107	4124
108	1411
109	2382
110	350
111	3283
112	320
115	721
116	310
117	841
118	390
119	9999
120	2192
121	6256
122	1561
123	6906
124	721
127	130
128	340
129	360
130	180
131	470
132	210
133	3693
134	1441
135	1001
136	530
137	70
141	110
142	80
143	120
144	60
145	360
146	110
147	1281
148	631
149	250
150	70
151	90
159	130
160	110
161	1131
162	260
163	50
173	70
175	340
176	120
189	1311
190	200
204	2442
205	440
