Mass Spectrum: 1,3-Propanediol, 2-(hydroxymethyl)-
Formula: C4 H10 O3
CAS: 4704-94-3
Molecular weight: 106
Origin: James Little,Eastman Chem.Co.,Kingsport,TN
m/z	RELATIVE INTENSITY
27	5215
28	2813
29	7947
31	9989
39	3013
40	1641
41	4314
43	3513
45	4134
47	3213
55	2823
56	1191
57	9999
58	9989
59	1591
61	190
69	2012
70	7387
71	1391
73	1161
75	240
76	350
86	130
87	170
89	320
107	761
