Mass Spectrum: Vinyl decanoate
Formula: C12 H22 O2
CAS: 4704-31-8
Molecular weight: 198
Origin: Japan AIST/NIMC Database- Spectrum MS-NW-3473
m/z	RELATIVE INTENSITY
14	40
15	199
17	10
18	30
25	10
26	129
27	1749
28	279
29	2119
30	50
31	40
37	10
38	30
39	919
40	189
41	4159
42	1349
43	9999
44	439
45	99
46	10
47	10
48	10
50	20
51	60
52	40
53	279
54	269
55	3379
56	709
57	6559
58	579
59	70
60	189
61	30
62	10
63	20
65	60
66	40
67	789
68	279
69	1709
70	379
71	6049
72	379
73	219
74	20
77	60
78	30
79	129
80	50
81	1449
82	199
83	649
84	359
85	3649
86	1729
87	229
88	20
91	99
92	50
93	80
94	30
95	1559
96	159
97	309
98	399
99	199
100	30
101	20
104	10
105	40
106	10
107	40
108	10
109	60
110	50
111	129
112	80
113	60
114	10
115	30
117	20
119	20
121	30
122	10
123	20
124	10
125	40
126	20
127	50
128	20
129	60
130	10
133	10
134	10
135	30
136	20
137	409
138	70
139	20
141	30
143	10
151	10
152	10
153	30
154	40
155	9049
156	1059
157	80
158	10
169	10
