Mass Spectrum: 3-Bromo-1,2-propanediol
Formula: C3 H7 Br O2
CAS: 4704-77-2
Molecular weight: 154
Origin: NIST Mass Spectrometry Data Center, 1994
m/z	RELATIVE INTENSITY
13	54
14	302
15	1405
16	50
17	18
18	50
25	72
26	490
27	1389
28	539
29	2841
30	334
31	3768
32	192
33	107
37	92
38	154
39	292
40	45
41	157
42	1029
43	7200
44	9999
45	2641
46	98
47	54
53	53
55	193
56	50
57	338
58	26
59	29
60	350
61	4466
62	101
74	1193
75	93
79	209
80	144
81	226
82	120
83	30
91	45
92	65
93	324
94	120
95	272
96	88
105	73
106	64
107	172
108	48
109	90
121	93
122	462
123	3646
124	682
125	3456
126	204
135	51
137	62
