Mass Spectrum: Benzene, 1,3-dimethyl-5-(1-methylethyl)-
Formula: C11 H16
CAS: 4706-90-5
Molecular weight: 148
Origin: NIST Mass Spectrometry Data Center, 1990.
m/z	RELATIVE INTENSITY
14	86
15	458
16	6
18	32
26	151
27	1094
28	142
29	228
37	51
38	225
39	1389
40	275
41	1277
42	51
43	65
44	3
49	25
50	365
51	963
52	327
53	554
54	55
55	168
58	172
59	82
62	191
63	663
64	467
65	806
66	179
71	70
72	71
73	52
74	137
75	139
76	206
77	1305
78	430
79	640
80	39
86	47
87	73
88	34
89	270
90	34
91	2179
92	264
93	320
94	28
101	45
102	197
103	461
104	28
105	2227
106	296
107	247
115	1121
116	513
117	1055
118	376
119	517
120	71
126	23
127	97
128	211
129	186
130	23
131	842
132	23
133	9999
134	1053
135	57
146	42
148	2221
149	300
