Mass Spectrum: 2-Tetradecanol
Formula: C14 H30 O
CAS: 4706-81-4
Molecular weight: 214
Origin: Japan AIST/NIMC Database- Spectrum MS-NW-2795
m/z	RELATIVE INTENSITY
13	10
15	20
17	20
18	70
19	10
26	10
27	359
28	289
29	709
30	20
31	60
32	80
39	229
40	40
41	1399
42	439
43	2079
44	449
45	9999
46	229
47	20
51	10
53	80
54	159
55	1769
56	1039
57	2029
58	229
59	90
65	10
66	10
67	209
68	229
69	1549
70	1039
71	1009
72	60
73	10
79	20
81	129
82	339
83	1419
84	729
85	589
86	40
87	10
95	60
96	199
97	1249
98	509
99	149
100	10
109	20
110	99
111	729
112	359
113	99
124	60
125	369
126	209
127	70
138	30
139	119
140	139
141	50
152	20
153	50
154	129
155	20
167	30
168	279
169	40
170	90
171	10
196	279
197	50
199	179
200	30
213	20
