Mass Spectrum: 1H-Benzotriazole, 1-(phenylmethyl)-
Formula: C13 H11 N3
CAS: 4706-43-8
Molecular weight: 209
m/z	RELATIVE INTENSITY
39	1301
50	500
51	1201
63	901
65	2302
76	601
77	1501
89	601
90	801
91	9999
92	1001
104	601
152	701
180	9999
181	1802
209	5205
210	801
