Mass Spectrum: Phenanthrene-9-carboxaldehyde
Formula: C15 H10 O
CAS: 4707-71-5
Molecular weight: 206
Origin: J.E. WILKINSON S-CUBED, SAN DIEGO, CA.
m/z	RELATIVE INTENSITY
40	32
50	316
51	412
52	17
61	19
62	281
63	606
64	5
65	1
73	16
74	580
75	1085
76	1370
77	198
78	1
81	1
85	21
86	179
87	601
88	2538
89	1440
97	1
98	292
99	191
100	42
101	33
103	895
109	1
110	42
111	56
113	9
115	2
122	41
123	21
124	8
125	48
126	232
127	48
128	9
134	1
135	1
137	4
138	1
139	34
149	182
150	1423
151	1838
152	982
153	35
163	6
173	2
174	551
175	732
176	5564
177	5413
178	8389
179	1168
180	19
187	2
205	4392
206	9999
207	1528
208	52
