Mass Spectrum: Benzenemethanol, 2-(dimethylamino)-
Formula: C9 H13 N O
CAS: 4707-56-6
Molecular weight: 151
m/z	RELATIVE INTENSITY
40	324
41	417
42	1204
43	208
44	1389
45	139
46	231
50	555
51	1342
52	278
57	162
62	116
63	602
64	324
65	1088
66	463
67	139
73	231
74	139
75	324
76	231
77	2083
78	903
79	417
89	324
91	5277
92	671
93	1389
94	139
103	139
104	532
105	787
106	1944
107	880
108	162
109	370
116	162
117	1042
118	8518
119	1157
120	1666
121	579
122	231
130	93
131	139
132	1805
133	370
134	972
135	625
136	3888
137	324
148	301
149	555
150	995
151	9999
152	1042
153	46
