Mass Spectrum: Benzoic acid, 2,4-dihydroxy-3,6-dimethyl-, methyl ester
Formula: C10 H12 O4
CAS: 4707-47-5
Molecular weight: 196
Origin: T.BRUUN NORWEGIAN INST. OF TECH., TRONDHEIM, NORWAY
m/z	RELATIVE INTENSITY
39	700
40	100
41	300
50	100
51	400
52	300
53	600
59	100
63	200
65	400
66	100
67	400
69	100
77	700
78	300
79	700
80	300
81	100
90	100
91	200
93	100
107	800
108	500
109	300
121	100
135	800
136	7100
137	600
163	600
164	9999
165	2000
166	200
196	6100
197	500
