Mass Spectrum: Ketoprofen methyl ester
Formula: C17 H16 O3
CAS: 47087-07-0
Molecular weight: 268
Origin: Association of Official Racing Chemists
m/z	RELATIVE INTENSITY
50	228
51	839
52	112
53	85
55	41
56	14
57	31
59	350
60	30
62	80
63	168
64	43
65	81
68	40
69	25
71	33
73	31
74	126
75	171
77	4559
78	708
79	98
81	30
83	38
85	25
86	32
87	51
88	54
89	114
90	42
91	148
92	41
95	36
98	39
100	4
101	60
102	252
103	1292
105	5775
106	512
107	43
113	25
115	44
118	21
119	44
120	91
121	23
123	21
126	39
127	37
131	536
132	160
133	67
134	24
135	34
139	59
141	32
143	22
146	3
147	47
148	32
150	45
151	73
152	195
153	98
162	26
163	117
164	73
165	411
166	212
167	31
175	37
176	70
177	75
178	223
179	130
181	608
182	124
187	24
189	61
191	2684
192	381
193	139
194	909
195	193
196	34
205	31
207	201
209	9999
210	1647
211	158
219	1
221	26
223	89
224	115
225	62
236	356
237	102
239	26
253	46
264	26
266	41
268	4545
269	982
270	117
