Mass Spectrum: Bufotalin
Formula: C26 H36 O6
CAS: 471-95-4
Molecular weight: 444
m/z	RELATIVE INTENSITY
51	321
52	193
53	1327
54	428
55	3576
56	321
57	707
58	428
60	321
61	321
65	535
66	321
67	3297
68	642
69	2398
70	535
71	535
72	128
73	343
77	3297
78	728
79	6787
80	1220
81	5888
82	1028
83	1028
84	428
85	1028
86	214
87	107
88	214
89	214
90	107
91	5567
92	1220
93	7001
94	1435
95	5995
96	814
97	685
98	321
99	214
103	621
104	407
105	4368
106	1285
107	7387
108	1713
109	3854
110	1713
111	814
112	214
113	128
115	814
116	321
117	1713
118	4197
119	2998
120	1499
121	4197
122	1199
123	1499
124	814
125	492
126	128
127	428
128	685
129	1113
130	621
131	2719
132	1092
133	3212
134	1285
135	8350
136	3212
137	1285
138	2783
139	899
140	128
141	514
142	321
143	1028
144	899
145	2527
146	878
147	4282
148	1285
149	1927
150	428
151	600
152	492
153	428
154	685
155	685
156	300
157	1220
158	1028
159	2291
160	1028
161	2184
162	814
163	899
164	600
165	600
166	385
167	492
168	600
169	899
170	321
171	899
172	600
173	1435
174	814
175	1327
176	685
177	514
178	4389
179	1071
180	321
181	1028
182	428
183	1028
184	428
185	1220
186	814
187	2998
188	1199
189	1435
190	621
191	1028
192	407
193	899
194	214
195	621
196	428
197	1028
198	428
199	1028
200	514
201	1006
202	492
203	8500
204	1435
205	1435
206	514
207	428
208	214
209	728
210	321
211	814
212	492
213	2398
214	1006
215	1220
216	642
217	814
218	600
219	428
220	128
221	514
222	214
223	642
224	214
225	600
226	321
227	642
228	428
229	1113
230	600
231	3212
232	1028
233	428
234	214
235	321
236	214
237	321
238	214
239	514
240	685
241	1113
242	514
243	514
244	214
245	214
246	214
247	214
248	685
249	1199
250	814
251	428
252	214
253	428
254	321
255	321
256	214
257	814
258	321
259	321
260	107
261	214
262	621
263	535
264	128
265	214
266	128
267	343
268	343
269	343
270	214
271	214
272	128
273	321
274	214
275	2998
276	642
277	535
278	214
279	214
280	128
281	343
282	107
283	107
284	107
285	107
286	107
287	343
288	214
289	214
290	128
291	343
303	214
304	214
305	899
306	621
307	428
308	300
309	300
310	128
311	214
312	685
313	128
314	214
315	214
319	214
320	321
321	535
322	428
323	5995
324	2291
325	600
326	300
327	107
333	685
334	214
335	128
337	214
338	492
339	321
340	514
341	7708
342	2098
343	321
347	128
348	1285
349	492
351	1006
352	300
364	128
365	128
366	3083
367	1435
368	343
369	514
370	128
382	214
383	128
384	9999
385	3212
386	600
387	128
402	814
403	214
426	150
444	642
445	214
446	150
