Mass Spectrum: Ethanediamide
Formula: C2 H4 N2 O2
CAS: 471-46-5
Molecular weight: 88
Origin: Japan AIST/NIMC Database- Spectrum MS-NW-1754
m/z	RELATIVE INTENSITY
12	10
13	10
14	10
15	80
16	1289
17	1639
18	199
26	50
27	369
28	419
29	369
30	30
31	10
32	10
38	20
39	10
41	30
42	229
43	1019
44	9999
45	4479
46	90
47	10
53	40
54	30
55	30
56	20
57	40
60	2629
61	50
69	20
70	10
71	20
88	2129
89	70
