Mass Spectrum: Propiolic acid
Formula: C3 H2 O2
CAS: 471-25-0
Molecular weight: 70
Origin: Leung Pu, NIH, Bethesda, Maryland, U.S.
m/z	RELATIVE INTENSITY
44	327
45	1287
47	169
48	83
53	9999
54	283
55	54
56	8
57	7
69	39
70	4906
71	542
72	15
