Mass Spectrum: 1-Phenanthrenecarboxylic acid, 1,2,3,4,4a,4b,5,6,7,9,10,10a-dodecahydro-1,4a-dimethyl-7-(1-methylethylidene)-, [1R-(1.alpha.,4a.beta.,4b.alpha.,10a.alpha.)]-
Formula: C20 H30 O2
CAS: 471-77-2
Molecular weight: 302
Origin: NIST Mass Spectrometry Data Center, 2010
m/z	RELATIVE INTENSITY
27	130
29	270
39	210
40	40
41	1051
42	70
43	621
45	100
51	60
52	40
53	300
54	40
55	751
56	60
57	90
59	50
63	20
65	220
66	60
67	450
68	40
69	210
70	20
71	30
74	20
77	550
78	170
79	841
80	120
81	470
83	60
84	10
85	20
87	80
88	10
89	30
91	1651
92	400
93	981
94	120
95	210
97	70
99	20
101	20
102	30
103	180
104	100
105	1201
106	260
107	651
108	150
109	230
111	30
115	320
116	130
117	601
118	160
119	1251
120	220
121	791
122	190
123	140
127	60
128	330
129	300
130	100
131	440
132	210
133	661
134	1301
135	9999
136	2012
137	180
139	160
140	20
141	120
142	90
143	200
144	70
145	270
146	120
147	520
148	2322
149	470
150	50
152	30
153	40
154	40
155	70
156	40
157	150
158	40
159	200
160	90
161	170
162	30
163	20
167	90
168	20
169	40
170	10
171	100
172	60
173	160
174	30
175	30
178	20
179	30
180	20
183	30
185	90
186	30
187	340
188	90
199	40
200	20
201	80
203	10
206	10
213	40
214	30
218	10
241	90
242	20
256	50
257	60
258	20
287	150
288	30
302	1611
303	380
304	50
