Mass Spectrum: 1-Phenanthrenecarboxaldehyde, 7-ethenyl-1,2,3,4,4a,4b,5,6,7,9,10,10a-dodecahydro-1,4a,7-trimethyl-, [1R-(1.alpha.,4a.beta.,4b.alpha.,7.beta.,10a.alpha.)]-
Formula: C20 H30 O
CAS: 472-39-9
Molecular weight: 286
Origin: R RYHAGE MS-LAB KAROLINSKA INSTITUTET STOCKHOLM SWEDEN
m/z	RELATIVE INTENSITY
15	150
16	270
27	610
29	990
30	140
39	890
40	230
41	2670
42	2630
43	230
44	1820
45	270
51	340
52	190
53	1240
54	180
55	2720
56	280
57	410
63	160
64	140
65	880
66	280
67	2070
68	310
69	860
70	160
71	420
77	2190
78	690
79	3200
80	510
81	2960
82	410
83	430
84	150
85	160
89	160
91	4780
92	1110
93	3690
94	780
95	2310
96	320
97	960
98	140
100	140
103	530
104	390
105	3280
106	1070
107	3490
108	840
109	1900
110	240
111	220
113	180
115	970
116	420
117	1740
118	550
119	3000
120	1230
121	4220
122	1420
123	5130
124	590
125	150
127	300
128	810
129	1010
130	420
131	1780
132	680
133	3200
134	1820
135	2430
136	630
137	340
138	120
139	140
141	550
142	420
143	860
144	410
145	2310
146	950
147	2510
148	1510
149	1300
150	310
151	550
152	310
153	300
154	190
155	470
156	230
157	850
158	410
159	1900
160	1180
161	1950
162	450
163	530
164	1030
165	420
166	150
167	240
168	160
169	380
170	180
171	770
172	420
173	1700
174	650
175	1150
176	280
177	220
178	160
179	150
181	230
182	150
183	390
184	190
185	970
186	690
187	1900
188	1000
189	630
190	260
191	180
192	180
193	120
195	180
197	300
198	150
199	740
200	380
201	910
202	380
203	300
204	340
205	120
209	120
210	190
211	270
212	150
213	540
214	450
215	570
216	220
217	220
218	120
219	200
226	220
227	150
228	700
229	360
230	340
231	120
239	820
240	270
241	3650
242	840
243	1260
244	380
245	110
251	110
252	260
253	760
254	590
255	470
256	3360
257	9999
258	2670
259	450
268	680
269	550
270	260
271	5070
272	1450
273	230
284	160
286	4260
287	960
