Mass Spectrum: 1,8-Cyclopentadecadiyne
Formula: C15 H22
CAS: 4722-42-3
Molecular weight: 202
Origin: NIST Mass Spectrometry Data Center, 1994
m/z	RELATIVE INTENSITY
14	66
15	224
17	93
18	168
26	398
27	4930
28	671
29	2891
32	84
39	8050
40	1962
41	9999
42	758
43	632
44	63
50	728
51	2601
52	3036
53	4112
54	883
55	2608
56	167
57	77
62	123
63	736
64	292
65	3302
66	1200
67	4483
68	397
69	457
75	81
77	4594
78	1750
79	7244
80	1338
81	1690
82	124
83	70
89	151
91	9653
92	1967
93	2385
94	485
95	391
102	98
103	635
104	1140
105	4365
106	1197
107	595
108	107
109	54
115	958
116	509
117	4123
118	1267
119	1741
120	551
121	151
127	118
128	350
129	682
130	498
131	4258
132	971
133	1124
134	386
135	107
141	70
142	81
143	203
144	70
145	2821
146	1006
147	608
148	265
157	67
159	1600
160	337
161	268
173	508
174	775
175	105
187	192
201	54
