Mass Spectrum: 4-Piperidinol, 1-(phenylmethyl)-
Formula: C12 H17 N O
CAS: 4727-72-4
Molecular weight: 191
Origin: Japan AIST/NIMC Database- Spectrum MS-NW-8064
m/z	RELATIVE INTENSITY
15	80
17	10
18	40
26	20
27	209
28	409
29	249
30	239
31	80
38	20
39	379
40	40
41	359
42	1309
43	269
44	1369
45	99
50	50
51	199
52	60
53	90
54	139
55	369
56	1099
57	189
58	90
59	30
62	30
63	169
64	50
65	1199
66	70
67	40
68	40
69	70
70	129
71	149
72	30
73	20
74	10
75	10
76	10
77	139
78	50
79	60
80	20
81	10
82	409
83	30
84	70
85	20
86	10
87	10
89	229
90	149
91	9999
92	1609
93	90
94	10
95	20
96	90
98	30
99	20
100	4469
101	269
102	20
103	30
104	239
105	119
106	70
107	70
112	10
113	80
114	3889
115	289
116	30
117	119
118	249
119	99
120	199
121	10
130	30
131	30
132	549
133	109
134	129
135	60
143	10
144	40
145	20
146	649
147	80
158	20
160	10
162	10
172	249
173	90
174	319
175	40
176	10
188	20
189	20
190	3519
191	5129
192	709
193	50
