Mass Spectrum: Cyclopentadecanone, 2-hydroxy-
Formula: C15 H28 O2
CAS: 4727-18-8
Molecular weight: 240
Origin: L.E. Slivon, Battelle Columbus Laboratories, Columbus, Ohio 43201
m/z	RELATIVE INTENSITY
40	310
41	9948
42	3367
43	6259
45	397
46	22
47	16
48	13
49	12
50	30
51	82
52	57
53	890
54	1725
55	9999
56	3933
57	3342
58	1022
59	512
60	1157
61	499
62	24
63	23
64	12
65	179
66	344
67	3152
68	3223
69	7750
70	2934
71	2027
72	206
73	1931
74	208
75	30
76	8
77	118
78	88
79	622
80	551
81	3281
82	4652
83	6105
84	3592
85	913
86	180
87	761
88	109
89	41
90	4
91	163
92	55
93	388
94	586
95	2413
96	4569
97	4659
98	3689
99	654
100	537
101	776
102	192
103	35
104	10
105	90
106	54
107	274
108	467
109	1243
110	2378
111	1960
112	1035
113	614
114	887
115	617
116	667
117	72
118	30
119	255
120	112
121	340
122	390
123	1274
124	1500
125	1022
126	372
127	811
128	240
129	760
130	168
131	20
132	18
133	259
134	345
135	317
136	218
137	896
138	1192
139	512
140	183
141	368
142	84
143	138
144	123
145	22
146	9
147	214
148	245
149	200
150	182
151	602
152	694
153	245
154	84
155	132
156	40
157	85
158	136
159	57
160	9
161	152
162	84
163	77
164	35
165	302
166	165
167	120
168	71
169	80
170	28
171	184
172	335
173	93
174	14
175	94
176	77
177	28
178	431
179	284
180	602
181	147
182	30
183	57
184	27
185	39
186	6
187	3
188	1
189	6
190	3
191	7
192	4
193	127
194	151
195	33
196	17
197	119
198	19
199	8
203	8
204	89
205	15
206	1
207	16
208	1
209	1
210	14
211	26
212	24
213	8
218	8
221	7
222	294
223	62
224	9
225	8
238	7
240	150
241	22
