Mass Spectrum: 2-Naphthalenemethanol, 1,2,3,4,4a,5,6,8a-octahydro-.alpha.,.alpha.,4a,8-tetramethyl-, [2R-(2.alpha.,4a.alpha.,8a.beta.)]-
Formula: C15 H26 O
CAS: 473-16-5
Molecular weight: 222
Origin: N.W. Davies, Centr. Sci. Lab., Univ. Tasmania, Hobart, Australia
m/z	RELATIVE INTENSITY
22	110
26	60
27	270
28	10
29	10
30	10
31	590
32	10
33	20
34	10
36	10
38	10
39	520
40	10
41	2130
42	10
43	1140
44	10
45	140
46	50
50	40
51	70
52	10
53	700
54	10
55	1540
56	10
57	420
58	60
59	9999
60	190
61	10
63	10
64	90
65	290
66	70
67	1220
68	60
69	1140
70	50
71	160
72	160
73	70
74	30
75	40
77	620
78	190
79	1570
80	80
81	2040
82	490
83	210
84	40
85	40
86	60
87	10
89	20
90	60
91	1510
92	330
93	2340
94	480
95	1450
96	610
97	240
98	110
99	10
100	50
102	70
103	10
104	50
105	1680
106	90
107	2410
108	780
109	2350
110	220
111	60
113	50
115	10
116	50
117	140
118	10
119	630
120	190
121	740
122	1480
123	1030
124	30
125	20
127	10
128	30
129	10
130	30
131	100
132	60
133	1450
134	180
135	1200
136	190
137	30
138	70
139	40
142	10
144	70
145	90
146	30
147	860
148	300
149	5150
150	660
151	80
152	60
153	60
155	10
157	30
159	190
160	30
161	4420
162	610
163	650
164	160
165	10
173	70
175	830
176	140
177	90
178	10
187	80
189	4360
190	580
191	70
192	70
193	50
202	80
203	90
204	3610
205	510
206	70
207	200
220	70
222	260
223	10
