Mass Spectrum: Cyclopentene, 1,2,3-trimethyl-
Formula: C8 H14
CAS: 473-91-6
Molecular weight: 110
Origin: NIST Mass Spectrometry Data Center, 1990.
m/z	RELATIVE INTENSITY
15	158
26	98
27	787
28	337
29	348
32	32
37	32
38	138
39	1395
40	271
41	1255
42	90
43	129
44	31
45	41
50	265
51	545
52	248
53	833
54	142
55	1151
56	82
62	67
63	169
65	481
67	4024
68	294
69	80
74	39
75	23
77	835
78	202
79	700
80	240
81	251
91	535
92	86
93	764
94	86
95	9999
96	804
97	33
107	30
109	252
110	1879
111	172
