Mass Spectrum: Verbenol
Formula: C10 H16 O
CAS: 473-67-6
Molecular weight: 152
Origin: N.W. Davies, Centr. Sci. Lab., Univ. Tasmania, Hobart, Australia
m/z	RELATIVE INTENSITY
26	130
27	3690
30	150
31	500
36	60
37	60
38	180
39	4510
40	250
41	8930
42	530
43	4070
44	100
45	470
50	280
51	1160
52	480
53	2320
54	480
55	4290
56	1740
57	3940
58	230
59	3930
60	930
61	360
62	110
63	360
64	140
65	1500
66	480
67	3100
68	600
69	4300
70	480
71	250
72	500
74	110
77	2330
78	630
79	2320
80	1900
81	5390
82	2190
83	3590
84	2790
85	230
87	90
89	120
91	4270
92	1210
93	1590
94	7430
95	3370
96	1660
97	1140
98	140
99	60
101	220
102	260
103	860
104	130
105	1090
106	200
107	1740
108	810
109	9999
110	1090
111	110
115	240
117	270
118	70
119	2480
120	360
121	1360
122	250
123	1050
124	140
125	190
133	100
134	1320
135	180
137	1320
138	100
143	140
152	480
