Mass Spectrum: 2-Heptanol, 6-methyl-
Formula: C8 H18 O
CAS: 4730-22-7
Molecular weight: 130
Origin: NIST Mass Spectrometry Data Center
m/z	RELATIVE INTENSITY
15	60
19	60
26	40
27	701
28	110
29	691
30	20
31	170
37	10
38	30
39	771
40	150
41	2042
42	991
43	2823
44	881
45	9999
46	240
47	40
48	20
49	20
50	30
51	50
52	20
53	180
55	3293
56	1621
57	1191
58	210
59	120
60	10
63	10
65	30
66	10
67	110
68	110
69	2092
70	1111
71	741
72	40
73	30
77	20
78	10
79	30
81	70
82	20
83	160
84	1211
85	821
86	170
87	130
88	10
91	10
95	50
97	1742
98	140
99	10
110	10
111	60
112	150
113	20
115	470
116	40
129	20
