Mass Spectrum: 2-Bromo-6-methylheptane
Formula: C8 H17 Br
CAS: 4730-24-9
Molecular weight: 192
Origin: NIST Mass Spectrometry Data Center, 1990.
m/z	RELATIVE INTENSITY
14	23
15	209
18	83
26	283
27	3230
28	882
29	2469
30	65
32	8
39	3118
40	888
41	8781
42	2969
43	8096
44	316
50	82
51	239
52	115
53	693
54	82
55	5191
56	1955
57	9999
58	400
65	112
67	282
69	2752
71	9680
72	516
77	79
79	110
81	106
83	75
84	106
97	559
107	158
109	159
113	1647
114	133
121	72
149	562
151	590
