Mass Spectrum: Tris(2-methoxyphenyl)phosphine
Formula: C21 H21 O3 P
CAS: 4731-65-1
Molecular weight: 352
Origin: NIST Mass Spectrometry Data Center, 1994
m/z	RELATIVE INTENSITY
15	713
17	9
18	162
38	206
39	681
47	543
50	298
51	1072
52	270
53	174
55	104
57	243
62	143
63	856
64	617
65	911
66	149
68	110
69	443
70	109
75	143
76	254
77	1847
78	559
79	298
80	106
81	210
83	291
88	100
89	247
91	3905
92	576
93	921
94	485
95	1389
96	198
101	183
102	182
103	74
104	117
105	331
106	74
107	1735
108	705
109	1199
110	181
113	143
114	121
115	575
116	126
119	75
121	5960
122	887
123	409
124	165
125	177
126	167
127	246
128	333
129	243
130	82
131	182
132	75
133	477
134	53
135	166
136	437
137	3010
138	421
139	1123
140	217
141	251
143	62
144	139
145	141
149	109
150	83
151	276
152	1202
153	358
154	64
155	133
156	62
157	512
164	108
165	999
166	482
167	138
168	711
169	325
170	844
171	371
173	92
178	216
179	217
180	93
181	615
182	239
183	2686
184	399
185	111
186	276
187	211
189	112
194	376
195	481
196	428
197	342
198	153
199	1561
200	312
201	134
202	222
203	101
207	99
211	562
212	528
213	2621
214	541
215	1154
216	275
225	218
226	715
227	428
228	382
229	632
230	306
231	2064
232	315
233	914
234	136
239	101
240	77
241	115
242	176
243	673
244	343
245	916
246	395
247	98
255	103
257	362
258	145
259	125
260	95
270	137
271	186
272	73
273	244
274	73
275	306
276	118
285	112
286	171
287	130
288	132
289	280
290	112
291	664
292	172
293	65
301	163
302	139
303	1419
304	501
305	573
306	373
307	159
315	119
316	68
317	84
318	68
319	1548
320	379
321	3780
322	906
323	237
333	473
334	538
335	422
336	114
337	371
338	94
351	1362
352	9999
353	2364
354	350
