Mass Spectrum: 1,5,9-Cyclododecatriene, (Z,Z,Z)-
Formula: C12 H18
CAS: 4736-48-5
Molecular weight: 162
Origin: D.HENNEBERG, MAX-PLANCK INSTITUTE, MULHEIM, WEST GERMANY
m/z	RELATIVE INTENSITY
25	20
26	97
27	1690
28	552
29	682
30	3
33	6
34	3
35	5
37	49
38	106
39	4012
40	387
41	4084
42	199
43	199
46	9
49	10
50	156
51	560
52	359
53	1469
54	9999
55	1183
56	94
58	21
59	5
61	3
62	43
63	204
64	75
65	1062
66	2194
67	7523
68	556
69	121
70	18
71	20
74	148
75	139
76	48
77	1756
78	1587
79	8915
80	6907
81	1649
82	183
83	88
84	5
86	3
87	16
88	9
89	84
90	63
91	3165
92	1866
93	4754
94	1402
95	1052
96	653
97	58
101	3
102	15
103	73
104	67
105	1147
106	723
107	701
108	481
109	46
115	58
116	14
117	82
118	40
119	1344
120	763
121	786
122	66
128	15
129	11
130	4
131	20
132	12
133	1315
134	693
135	58
147	1376
148	30
160	6
161	45
162	155
163	11
