Mass Spectrum: Cyclopentane, (1-methylbutyl)-
Formula: C10 H20
CAS: 4737-43-3
Molecular weight: 140
Origin: D.HENNEBERG, MAX-PLANCK INSTITUTE, MULHEIM, WEST GERMANY
m/z	RELATIVE INTENSITY
27	2150
29	1410
39	2300
40	600
41	5900
42	2080
43	4910
44	200
53	1000
54	200
55	9999
56	1790
57	220
65	200
66	300
67	1800
68	5880
69	5070
70	3900
71	1720
77	200
78	100
79	200
80	200
81	500
82	200
83	800
84	500
85	100
95	110
96	800
97	7400
98	800
111	310
112	110
140	300
