Mass Spectrum: Ergosta-5,24(28)-dien-3-ol, (3.beta.)-
Formula: C28 H46 O
CAS: 474-63-5
Molecular weight: 398
Origin: DR GLENN PATTERSON
m/z	RELATIVE INTENSITY
18	1000
26	400
27	800
28	1700
29	1800
39	900
40	300
41	6999
42	600
43	5299
53	1100
54	400
55	9999
56	1000
57	4400
65	500
67	4000
68	700
69	7799
70	1200
71	2700
77	1500
78	400
79	3900
80	700
81	6699
82	1200
83	4100
84	800
85	1600
91	4900
92	1000
93	4999
94	1100
95	6099
96	1000
97	3000
98	600
99	600
103	300
104	300
105	5299
106	1300
107	7199
108	1600
109	3800
110	700
111	1200
112	300
113	400
115	600
116	400
117	1800
118	800
119	4300
120	1700
121	3800
122	1200
123	2900
124	1400
125	1000
127	300
128	700
129	1300
130	700
131	3000
132	1300
133	3700
134	1500
135	3000
136	900
137	1200
141	600
142	600
143	1700
144	800
145	3600
146	1200
147	4200
148	1000
149	1800
150	2800
151	1200
155	700
156	400
157	1600
158	700
159	2800
160	900
161	2800
162	600
163	1100
164	400
165	500
167	300
169	800
170	300
171	1500
172	600
173	2000
174	700
175	1200
176	300
177	600
183	600
184	300
185	1300
186	500
187	1300
188	400
189	800
191	400
197	600
198	300
199	1200
200	500
201	1300
202	400
203	600
205	400
211	1300
212	500
213	3400
214	800
215	1200
216	400
217	1000
218	600
219	1000
225	400
226	300
227	2700
228	1000
229	2800
230	700
231	2400
232	800
233	300
239	600
240	300
241	600
242	300
243	600
244	500
245	1500
246	1400
247	700
253	800
255	1600
256	500
257	1300
258	700
259	600
260	300
267	400
269	1200
270	500
271	3700
272	1200
273	1300
274	400
281	400
283	400
285	900
286	400
287	300
297	500
298	300
299	1000
300	700
301	400
313	300
314	400
315	300
341	300
351	300
355	300
365	1200
366	500
367	400
369	900
370	300
380	700
381	800
382	600
383	4999
384	2700
385	1000
386	300
396	1100
397	500
398	7999
399	2500
400	1400
401	400
