Mass Spectrum: Solanidan-3-ol, (3.beta.,5.alpha.)-
Formula: C27 H45 N O
CAS: 474-08-8
Molecular weight: 399
Origin: LAC, NIDDK, NIH, Bethesda, MD 20892
m/z	RELATIVE INTENSITY
41	486
42	30
43	369
44	82
45	13
53	92
54	96
55	602
56	138
57	379
58	64
59	37
65	44
67	377
68	143
69	265
70	87
71	36
77	105
78	9
79	356
80	151
81	365
82	197
83	136
84	39
85	11
91	263
92	16
93	406
94	246
95	287
96	122
97	116
98	547
99	44
101	5
103	7
105	207
106	82
107	280
108	193
109	194
110	79
111	73
112	27
115	27
116	7
117	51
118	29
119	120
120	108
121	138
122	128
123	61
124	302
125	99
126	34
127	5
128	11
129	44
130	15
131	75
132	40
133	91
134	129
135	107
136	763
137	114
138	29
139	31
140	5
142	20
143	32
144	21
145	60
146	41
147	80
148	218
150	9999
151	1296
152	490
153	58
154	15
155	30
157	49
158	7
159	45
160	38
161	44
162	231
163	82
164	261
165	142
166	83
167	9
169	21
170	17
171	21
172	23
173	31
174	51
175	8
176	211
178	397
179	53
183	27
185	11
186	11
187	14
188	51
189	27
190	120
191	383
192	240
193	31
199	6
200	20
201	9
202	53
204	2902
205	438
206	72
207	5
214	9
216	53
217	16
218	55
219	28
220	8
228	7
229	7
230	42
231	17
232	26
233	5
234	5
240	5
242	11
244	45
245	6
246	8
256	11
257	10
258	52
259	12
260	45
261	6
270	20
272	65
273	26
274	32
275	5
284	17
286	50
287	16
288	8
296	6
298	29
299	7
300	18
302	12
310	6
312	21
314	43
316	35
324	6
326	54
327	17
328	101
329	30
330	9
338	11
340	32
342	141
343	100
344	47
345	5
354	13
356	102
357	30
358	23
368	16
370	144
371	43
380	19
382	104
384	908
385	240
386	35
396	85
397	35
398	2039
399	3905
400	1099
401	165
402	15
