Mass Spectrum: Ergosta-5,22-dien-3-ol, (3.beta.,22E)-
Formula: C28 H46 O
CAS: 474-67-9
Molecular weight: 398
Origin: DR GLENN PATTERSON
m/z	RELATIVE INTENSITY
39	600
41	3500
43	3100
53	800
55	7999
56	500
57	2100
67	3600
68	600
69	9999
70	800
71	700
77	1200
79	2800
80	400
81	6499
82	1300
83	3500
84	400
91	3100
92	700
93	3200
94	1000
95	3500
96	1100
97	900
105	3600
106	800
107	3500
108	800
109	3400
110	400
117	1100
118	400
119	2200
120	1100
121	2100
122	600
123	1400
124	700
125	2500
128	400
129	800
130	400
131	1600
132	600
133	3300
134	700
135	1800
137	600
143	1200
144	600
145	3400
146	1000
147	2900
148	600
149	1200
151	600
157	1000
158	800
159	3200
160	800
161	2000
162	500
163	1000
171	600
173	1100
174	400
175	1000
176	400
177	500
185	600
187	800
189	700
197	400
199	800
201	600
203	400
211	500
213	1700
214	400
215	800
217	400
227	600
228	600
229	1000
230	400
231	600
239	400
241	500
243	400
245	600
253	1100
254	500
255	5199
256	1200
257	600
258	500
267	500
269	800
270	800
271	2600
272	1200
273	900
281	400
282	500
283	800
285	500
298	700
299	600
300	1700
301	500
337	900
353	400
355	400
365	700
380	3200
381	1000
382	400
383	500
396	800
398	2800
399	800
