Mass Spectrum: Carbamodithioic acid, diethyl-, ethyl ester
Formula: C7 H15 N S2
CAS: 4740-11-8
Molecular weight: 177
Origin: F.I.ONUSKA CANADA CENTRE FOR INLAND WATERS, ONTARIO, CANADA
m/z	RELATIVE INTENSITY
29	4468
38	1277
41	1315
42	1799
43	1838
44	5319
55	1567
56	2340
57	3404
58	2340
59	1064
60	5532
61	1025
69	1006
71	1586
72	4894
73	1122
76	9999
83	716
85	774
88	4894
97	580
105	1122
116	5532
117	658
148	561
149	5319
150	464
177	4681
