Mass Spectrum: Cyclopropane, (1-methylethylidene)-
Formula: C6 H10
CAS: 4741-86-0
Molecular weight: 82
Origin: D.HENNEBERG, MAX-PLANCK INSTITUTE, MULHEIM, WEST GERMANY
m/z	RELATIVE INTENSITY
21	3
22	8
23	9
24	10
25	57
26	308
27	2686
28	566
29	524
30	9
31	33
32	2
33	8
34	7
35	46
36	37
37	406
38	748
39	8185
40	2044
41	7574
42	1390
43	1053
44	1
47	3
48	17
49	92
50	562
51	833
52	408
53	2293
54	2760
55	595
56	228
57	11
59	6
60	19
61	105
62	167
63	350
64	56
65	1376
66	323
67	9999
68	499
69	8
73	17
74	60
75	43
76	13
77	311
78	56
79	706
80	112
81	960
82	4354
83	275
84	4
