Mass Spectrum: 1,3-Propanediamine, N,N'-bis(2-aminoethyl)-
Formula: C7 H20 N4
CAS: 4741-99-5
Molecular weight: 160
Origin: RADIAN CORP
m/z	RELATIVE INTENSITY
27	190
29	200
30	1680
31	30
39	150
40	70
41	920
42	1710
43	1560
44	9999
45	410
53	20
54	210
55	230
56	1400
57	380
58	2060
59	150
60	60
61	20
67	20
68	430
69	270
70	3270
71	620
72	530
73	1840
74	80
75	30
80	20
81	20
82	360
83	650
84	950
85	350
86	20
87	4080
88	170
95	20
96	70
97	230
98	180
99	440
100	70
101	490
102	10
109	30
110	250
111	160
112	100
113	4450
114	380
115	10
118	20
125	10
126	20
127	20
130	5080
131	430
