Mass Spectrum: .beta.-Acetylacrylic acid
Formula: C5 H6 O3
CAS: 4743-82-2
Molecular weight: 114
Origin: NIST Mass Spectrometry Data Center, 1994
m/z	RELATIVE INTENSITY
12	36
13	207
14	664
15	2109
16	60
17	93
18	61
25	438
26	2601
27	3120
28	399
29	691
30	40
31	84
36	109
37	608
38	689
39	825
40	158
41	517
42	1544
43	9999
44	386
45	3022
46	75
48	51
49	182
50	350
51	227
52	171
53	2386
54	1096
55	270
68	165
69	856
70	155
71	1508
72	88
81	2109
82	364
86	544
97	655
99	9507
100	426
101	78
114	2574
115	142
116	3
