Mass Spectrum: Propane, 1,1-dipropoxy-
Formula: C9 H20 O2
CAS: 4744-11-0
Molecular weight: 160
m/z	RELATIVE INTENSITY
27	1822
28	621
29	1371
30	450
31	3463
41	3633
42	1151
43	9689
44	300
45	120
47	791
55	60
57	2252
58	3033
59	9999
60	701
61	80
71	130
72	90
75	250
89	2722
100	661
101	4764
102	310
130	220
131	2292
159	20
