Mass Spectrum: 2-Propanamine, N-methyl-
Formula: C4 H11 N
CAS: 4747-21-1
Molecular weight: 73
Origin: CARL DJERASSI DEPT OF CHEM STANFORD UNIV STANFORD CALIF 94305
m/z	RELATIVE INTENSITY
15	300
16	100
17	100
18	100
27	500
28	900
29	400
30	2900
31	100
41	700
42	700
43	900
44	200
45	100
55	100
56	800
57	400
58	9999
59	400
60	100
70	100
71	100
72	1000
73	1100
