Mass Spectrum: Hexane, 1-methoxy-
Formula: C7 H16 O
CAS: 4747-07-3
Molecular weight: 116
Origin: NIST Mass Spectrometry Data Center
m/z	RELATIVE INTENSITY
15	110
26	50
27	621
28	210
29	941
30	40
31	110
33	310
37	10
38	40
39	721
40	130
41	1692
42	1161
43	1321
45	9999
46	250
47	140
50	30
51	50
52	20
53	150
54	150
55	1692
56	5595
57	350
58	140
59	70
60	30
63	10
65	20
66	10
67	60
68	50
69	1281
70	210
71	80
72	10
73	50
77	10
79	10
81	10
82	20
83	130
84	1551
85	130
86	10
87	80
88	10
98	10
115	10
116	10
