Mass Spectrum: 1,4-Naphthalenedione, 5,8-dihydroxy-
Formula: C10 H6 O4
CAS: 475-38-7
Molecular weight: 190
Origin: CARL DJERASSI DEPT OF CHEM STANFORD UNIV STANFORD CALIF 94305
m/z	RELATIVE INTENSITY
41	198
43	198
44	198
45	198
49	198
50	792
51	1485
52	1386
53	1584
54	594
55	495
57	297
58	198
61	297
62	396
63	396
66	198
67	396
69	198
71	198
74	198
75	198
76	198
77	594
78	693
79	495
80	198
81	198
82	297
83	198
95	297
97	198
105	297
106	198
107	198
108	1584
109	198
118	198
120	198
133	396
134	1287
135	297
136	594
161	396
162	297
186	198
188	198
189	2871
190	9999
191	1188
192	297
