Mass Spectrum: Glycocholic acid
Formula: C26 H43 N O6
CAS: 475-31-0
Molecular weight: 465
Origin: Japan AIST/NIMC Database- Spectrum MS-NW-9122
m/z	RELATIVE INTENSITY
15	30
16	10
17	99
18	369
26	20
27	119
28	349
29	309
30	759
31	60
32	149
38	10
39	129
40	30
41	629
42	189
43	639
44	549
45	80
48	10
50	10
51	30
52	20
53	169
54	70
55	1179
56	169
57	249
58	179
59	129
60	60
63	10
65	90
66	40
67	669
68	129
69	439
70	90
71	329
72	80
73	449
74	129
75	40
76	529
77	309
78	80
79	799
80	139
81	1249
82	169
83	499
84	149
85	199
86	269
87	60
88	20
89	109
90	20
91	909
92	199
93	1149
94	509
95	1049
96	169
97	239
98	90
99	159
100	119
101	149
102	30
103	70
104	70
105	1409
106	429
107	1179
108	339
109	739
110	179
111	239
112	239
113	99
114	579
115	229
116	90
117	999
118	459
119	969
120	359
121	809
122	219
123	319
124	109
125	199
126	90
127	119
128	189
129	379
130	499
131	919
132	359
133	799
134	269
135	629
136	129
137	169
138	80
139	90
140	119
141	229
142	229
143	1069
144	509
145	1579
146	419
147	1059
148	219
149	299
150	80
151	109
152	80
153	139
154	99
155	399
156	279
157	1179
158	739
159	1609
160	359
161	579
162	159
163	279
164	90
165	159
166	70
167	139
168	109
169	589
170	289
171	869
172	1029
173	719
174	209
175	299
176	99
177	159
178	70
179	99
180	80
181	229
182	129
183	539
184	309
185	679
186	299
187	399
188	119
189	189
190	80
191	99
192	60
193	159
194	159
195	319
196	169
197	739
198	379
199	1799
200	439
201	349
202	99
203	119
204	50
205	70
206	50
207	149
208	80
209	259
210	119
211	1079
212	389
213	449
214	189
215	289
216	169
217	279
218	90
219	70
220	50
221	99
222	60
223	159
224	99
225	369
226	2059
227	909
228	239
229	459
230	129
231	149
232	80
233	139
234	70
235	149
236	80
237	239
238	259
239	259
240	169
241	139
242	80
243	139
244	499
245	339
246	249
247	479
248	279
249	179
250	90
251	499
252	299
253	9999
254	2209
255	449
256	99
257	99
258	99
259	119
260	199
261	129
262	60
263	109
264	80
265	119
266	70
267	109
268	50
269	319
270	139
271	4129
272	939
273	149
274	50
275	40
276	40
277	90
278	70
279	189
280	129
281	429
282	199
283	109
284	50
285	99
286	50
287	70
288	50
289	159
290	80
291	50
292	70
293	129
294	219
295	239
296	80
297	119
298	109
299	329
300	949
301	249
302	80
303	109
304	80
305	40
306	30
307	40
308	80
309	50
310	60
311	99
312	219
313	289
314	90
315	60
316	60
317	70
318	90
319	60
320	60
321	259
322	80
323	30
324	20
325	50
326	60
327	40
328	60
329	60
330	70
331	40
332	20
333	20
334	50
335	99
336	119
337	99
338	90
339	819
340	219
341	80
342	40
343	249
344	90
345	30
346	20
347	20
348	20
349	20
350	30
351	30
352	129
353	219
354	1339
355	629
356	209
357	719
358	189
359	40
360	10
361	20
362	10
363	10
364	10
365	20
366	20
367	80
368	40
369	30
370	80
371	80
372	949
373	269
374	50
375	20
376	10
377	10
378	20
379	10
381	10
382	10
383	20
384	10
385	60
386	30
387	10
388	20
389	10
390	30
391	20
392	10
393	20
394	20
395	10
396	189
397	50
398	10
400	20
401	20
402	10
403	20
404	10
406	10
407	10
408	10
409	20
410	30
411	359
412	139
413	30
414	80
415	20
424	10
425	10
427	10
428	10
429	169
430	50
431	10
435	10
447	20
448	10
