Mass Spectrum: 1,3-Dioxolo[4,5-b]acridin-10(5H)-one, 4,11-dimethoxy-5-methyl-
Formula: C17 H15 N O5
CAS: 475-91-2
Molecular weight: 313
Origin: J.H.BOWIE UNIVERSITY OF ADELAIDE, AUSTRALIA
m/z	RELATIVE INTENSITY
76	1500
77	2200
102	1500
114	1600
127	1500
128	1500
129	1600
130	1400
140	1200
141	1400
142	1200
154	1400
169	2000
182	1200
184	1100
197	1200
212	1600
224	2500
225	1100
238	1200
240	2000
252	7000
253	1600
255	2800
268	3200
269	1600
270	9999
271	2200
280	4600
285	3200
298	5200
313	9999
314	2800
