Mass Spectrum: Heptanedioic acid, 4-methyl-, dimethyl ester
Formula: C10 H18 O4
CAS: 4751-49-9
Molecular weight: 202
m/z	RELATIVE INTENSITY
15	731
16	90
17	801
18	3503
26	80
27	691
28	791
29	1101
30	310
31	200
32	80
39	761
40	210
41	3003
42	751
43	2302
44	991
45	530
46	50
48	50
51	60
53	490
54	240
55	5005
56	951
57	540
58	100
59	1902
60	90
62	140
63	60
67	400
68	330
69	4704
70	561
71	300
72	110
73	2803
74	3503
75	280
76	50
77	40
78	50
79	80
80	40
81	410
82	941
83	3703
84	390
85	731
86	130
87	2302
88	290
89	50
91	50
92	50
93	490
95	480
96	1401
97	9999
98	711
99	290
100	180
101	260
102	130
109	260
110	1501
111	1802
112	200
113	360
114	430
115	1301
116	841
117	60
121	210
122	40
123	651
124	80
125	1601
126	180
127	611
128	611
129	7807
130	781
131	110
137	190
138	480
139	3603
140	350
141	230
142	2302
143	490
145	300
146	50
152	100
153	280
154	40
155	1101
156	140
157	50
160	110
167	80
169	60
170	601
171	3503
172	400
173	60
185	110
202	90
