Mass Spectrum: Thiepane
Formula: C6 H12 S
CAS: 4753-80-4
Molecular weight: 116
m/z	RELATIVE INTENSITY
2	60
12	10
13	20
14	90
15	761
16	10
25	20
26	781
27	5855
28	1521
29	1982
30	40
31	10
32	110
33	90
34	150
35	340
36	10
37	140
38	380
39	4744
40	470
41	8818
42	1852
43	380
44	50
45	4954
46	4964
47	6146
48	430
49	350
50	230
51	360
52	130
53	1231
54	5205
55	3513
56	360
57	270
58	811
59	1672
60	5275
61	5445
62	811
63	290
64	30
65	160
66	140
67	6336
68	1812
69	1291
70	240
71	270
72	130
73	1411
74	1131
75	681
76	80
77	90
78	50
79	130
80	30
81	601
82	4294
83	761
84	60
85	250
86	110
87	9999
88	2182
89	520
90	90
91	110
92	20
93	10
95	10
96	10
97	30
98	10
99	60
100	10
101	2212
102	290
103	120
104	70
105	20
106	10
113	10
114	20
115	410
116	7997
117	460
118	340
119	20
120	10
