Mass Spectrum: Propanenitrile, 3-(dodecylamino)-
Formula: C15 H30 N2
CAS: 4763-40-0
Molecular weight: 238
Origin: NIST Mass Spectrometry Data Center, 1994
m/z	RELATIVE INTENSITY
4	15
14	6
15	35
18	42
26	40
27	352
28	432
29	779
30	987
31	24
32	21
39	232
41	1442
42	1629
43	1232
44	1620
45	91
51	23
52	38
53	119
54	707
55	692
56	491
57	406
58	40
59	13
65	15
66	12
67	82
68	107
69	301
70	196
71	255
72	62
77	9
79	22
80	16
81	76
82	9
83	9999
84	601
85	55
86	42
95	20
96	55
97	172
98	71
99	10
100	23
109	39
110	10
111	17
112	32
125	31
126	26
139	47
140	17
148	11
153	28
154	13
167	14
168	15
181	11
182	9
184	61
185	12
196	24
198	671
199	99
237	16
238	34
239	5
