Mass Spectrum: Dimethylolpropionic acid
Formula: C5 H10 O4
CAS: 4767-03-7
Molecular weight: 134
Origin: Japan AIST/NIMC Database- Spectrum MS-NW-6994
m/z	RELATIVE INTENSITY
14	20
15	129
16	20
17	20
18	70
25	20
26	159
27	949
28	289
29	1069
30	129
31	1879
32	40
33	10
37	40
38	99
39	1109
40	669
41	3329
42	909
43	619
44	189
45	479
46	40
47	169
49	60
50	10
51	20
52	10
53	129
54	70
55	399
56	189
57	1259
58	1119
59	259
60	50
63	10
67	20
68	1359
69	1389
70	329
71	479
72	309
73	80
74	10
81	10
83	199
84	50
85	1359
86	9999
87	1129
88	239
89	70
95	10
97	20
98	539
99	50
101	20
103	229
104	2129
105	129
106	20
111	10
115	40
116	80
117	30
