Mass Spectrum: 3-Cyclohexene-1-carboxylic acid
Formula: C7 H10 O2
CAS: 4771-80-6
Molecular weight: 126
Origin: Japan AIST/NIMC Database- Spectrum MS-NW-3054
m/z	RELATIVE INTENSITY
15	40
17	20
18	70
25	10
26	449
27	1229
28	209
29	299
30	10
31	50
32	20
36	20
37	80
38	199
39	1899
40	239
41	2179
42	189
43	259
44	80
45	379
46	20
47	99
49	40
50	369
51	679
52	389
53	1579
54	2919
55	539
56	60
57	169
58	20
60	60
61	20
62	40
63	99
64	30
65	369
66	539
67	1019
68	339
69	189
70	159
71	90
72	99
73	99
74	60
75	30
76	20
77	989
78	289
79	3629
80	6669
81	9999
82	659
83	179
84	189
85	70
86	30
90	10
91	50
92	20
93	50
94	10
95	20
96	10
97	909
98	149
99	40
105	20
107	119
108	3109
109	329
110	50
111	419
112	40
119	50
121	10
122	20
123	10
124	10
125	109
126	2029
127	159
128	10
