Mass Spectrum: 1H-Indole-3-carboxaldehyde, 7-methyl-
Formula: C10 H9 N O
CAS: 4771-50-0
Molecular weight: 159
Origin: Organic Synthesis Lab, MSU, Moscow.TRC 748
m/z	RELATIVE INTENSITY
26	19
27	149
28	56
29	49
37	29
38	79
39	249
40	9
41	18
44	9
49	9
50	299
51	689
52	169
53	88
54	9
61	49
62	159
63	329
64	119
65	129
66	28
73	9
74	179
75	259
76	249
77	1419
78	169
79	239
80	19
85	9
86	39
87	49
88	39
89	89
90	19
91	9
98	29
99	9
100	19
101	199
102	529
103	959
104	189
114	19
115	59
116	29
127	19
128	319
129	319
130	2629
131	319
132	9
142	9
143	19
144	89
145	49
156	49
157	49
158	9999
159	7858
160	809
161	49
