Mass Spectrum: Tributyl(ethoxy) silane
Formula: C14 H32 O Si
CAS: 4782-00-7
Molecular weight: 244
Origin: V.G.Zaikin, TIPS RAS, Moscow, Russia
m/z	RELATIVE INTENSITY
25	40
26	290
27	1521
28	380
29	3293
30	110
31	120
37	40
38	70
39	581
40	110
41	1321
42	210
43	651
44	210
45	2612
46	190
47	1712
48	90
49	90
50	70
51	70
53	110
54	70
55	711
56	280
57	621
58	190
59	951
60	210
61	1051
62	70
63	70
67	70
69	120
70	90
71	330
72	130
73	2022
74	380
75	3793
76	350
77	180
79	40
81	80
83	210
84	70
85	390
86	90
87	350
88	290
89	1181
90	110
91	80
92	310
95	30
97	30
98	30
99	120
101	611
102	611
103	591
104	90
105	70
115	70
116	70
117	310
129	310
130	480
131	9999
132	1251
133	510
141	40
143	40
156	90
158	70
159	40
173	180
186	120
187	5225
188	881
189	210
244	10
