Mass Spectrum: 1,3-Cyclopentadiene, 1,2-dimethyl-
Formula: C7 H10
CAS: 4784-86-5
Molecular weight: 94
Origin: A.G. HARRISON, UNIV. OF TORONTO, TORONTO 5, ONTARIO, CANADA
m/z	RELATIVE INTENSITY
27	1114
39	2727
41	544
51	1139
52	522
53	762
65	588
66	370
77	5031
78	869
79	9999
91	2349
92	281
93	1743
94	5431
