Mass Spectrum: 2-Butene, 1-bromo-
Formula: C4 H7 Br
CAS: 4784-77-4
Molecular weight: 134
Origin: Japan AIST/NIMC Database- Spectrum MS-NW-2641
m/z	RELATIVE INTENSITY
14	10
15	30
18	20
25	20
26	299
27	1839
28	359
29	3059
30	70
36	30
37	60
38	139
39	1529
40	189
41	99
43	10
49	50
50	229
51	249
52	129
53	959
54	509
55	9999
56	449
57	10
79	50
80	60
81	50
82	50
90	10
93	20
95	10
106	20
107	10
108	20
119	30
121	30
134	369
135	20
136	339
137	10
