Mass Spectrum: 2-Butenenitrile
Formula: C4 H5 N
CAS: 4786-20-3
Molecular weight: 67
Origin: Japan AIST/NIMC Database- Spectrum MS-NW- 900
m/z	RELATIVE INTENSITY
12	40
13	20
14	50
15	159
24	30
25	129
26	499
27	1859
28	739
29	30
31	50
32	179
33	40
36	209
37	1479
38	1829
39	4299
40	2519
41	9999
42	279
43	20
48	30
49	80
50	159
51	409
52	1029
53	40
54	20
62	169
63	429
64	979
65	309
66	1789
67	5379
68	269
