Mass Spectrum: Methallyl cyanide
Formula: C5 H7 N
CAS: 4786-19-0
Molecular weight: 81
Origin: NIST Mass Spectrometry Data Center, 1994
m/z	RELATIVE INTENSITY
12	74
13	86
14	207
15	903
16	2
18	10
24	31
25	118
26	860
27	2009
28	1379
29	179
37	1325
38	2120
39	5559
40	31
41	9999
42	410
48	79
49	320
50	1057
51	1090
52	1367
53	1975
54	4785
55	271
60	20
61	47
62	136
63	342
64	991
65	892
66	2306
67	119
74	45
75	269
76	200
77	29
78	111
79	29
80	1693
81	6461
82	387
