Mass Spectrum: trans-1,4-Di-tert-butyl-cyclohexane
Formula: C14 H28
CAS: 4789-35-9
Molecular weight: 196
Origin: V.G.Zaikin, TIPS, Russian Acad. Sci.
m/z	RELATIVE INTENSITY
41	2302
43	900
55	1601
56	5304
57	9999
67	6706
69	1701
81	600
97	400
111	300
125	500
138	500
139	600
140	500
196	100
197	11
