Mass Spectrum: 2,4-Cyclopentadien-1-one, 2,3,4,5-tetraphenyl-
Formula: C29 H20 O
CAS: 479-33-4
Molecular weight: 384
Origin: Japan AIST/NIMC Database- Spectrum MS-NW-7038
m/z	RELATIVE INTENSITY
27	50
39	149
41	20
50	50
51	289
52	50
53	10
62	20
63	129
64	10
65	40
74	60
75	80
76	109
77	289
78	129
79	20
86	30
87	70
88	40
89	119
90	20
91	40
98	40
99	40
100	50
101	30
102	109
103	30
105	119
106	10
108	10
110	10
111	30
112	20
113	80
114	20
115	99
116	10
117	10
118	10
122	20
123	10
124	30
125	70
126	329
127	70
128	80
129	20
130	30
131	60
132	20
135	10
136	20
137	99
138	309
139	399
140	30
142	20
143	60
144	40
145	10
148	10
149	80
150	309
151	469
152	709
153	259
154	20
155	70
156	159
157	90
158	20
159	10
161	50
162	169
163	319
164	80
165	189
166	30
167	40
168	189
169	279
170	199
171	50
172	20
173	10
174	119
175	289
176	999
177	679
178	9449
179	1479
180	119
181	50
182	80
183	90
184	50
185	10
186	10
187	40
188	20
189	90
190	30
191	60
192	149
193	10
198	20
199	20
200	109
201	70
202	159
203	40
204	10
205	20
206	10
207	10
211	20
212	10
213	40
214	10
215	20
222	10
223	20
224	60
225	30
226	50
227	10
235	20
236	10
237	60
238	20
239	80
240	20
248	50
249	30
250	119
251	40
252	179
253	70
254	20
259	10
261	40
262	20
263	139
264	60
265	209
266	60
267	269
268	80
269	10
272	20
273	20
274	169
275	80
276	709
277	549
278	879
279	719
280	169
281	40
282	10
285	20
286	10
287	50
288	20
289	99
290	30
291	30
292	10
293	20
296	10
297	20
298	30
299	20
300	60
301	30
302	40
303	20
304	20
305	149
306	179
307	449
308	109
309	50
310	10
311	40
312	20
313	90
314	40
315	40
316	10
317	10
322	20
323	10
324	70
325	40
326	149
327	90
328	50
329	40
330	10
331	20
332	10
333	10
335	10
337	50
338	30
339	189
340	99
341	60
342	20
343	20
346	10
347	10
348	40
349	30
350	159
351	109
352	199
353	169
354	139
355	319
356	3749
357	1149
358	199
359	20
361	10
363	20
364	20
365	40
366	20
367	40
368	30
369	10
381	30
382	30
383	239
384	9999
385	3189
386	669
387	50
388	10
