Mass Spectrum: 11H-Benzo[a]fluoren-11-one
Formula: C17 H10 O
CAS: 479-79-8
Molecular weight: 230
Origin: A.A.Kutin, Moscow, Russia
m/z	RELATIVE INTENSITY
37	18
38	61
39	240
40	8
41	1
50	250
51	188
52	29
53	15
54	1
55	9
56	2
57	2
59	8
61	64
62	187
63	272
64	24
65	12
67	52
69	3
71	2
72	7
74	388
75	497
76	152
77	75
78	8
79	5
80	3
81	12
84	2
85	61
86	198
87	607
88	1178
90	5
93	15
95	10
97	22
98	262
99	367
100	1405
101	1986
103	2
104	0
106	7
107	16
108	8
109	35
110	124
111	117
112	20
113	50
115	503
120	7
121	19
122	133
123	84
124	40
125	51
126	128
127	28
128	11
129	1
132	5
133	14
134	44
135	41
136	11
137	47
138	18
139	40
140	6
141	2
144	2
145	5
146	34
147	17
148	18
149	136
150	402
151	203
152	177
153	23
154	1
156	1
157	3
158	9
159	5
161	48
162	86
163	141
164	23
165	5
168	2
169	2
170	5
171	3
173	47
174	411
175	334
176	336
177	47
178	5
181	0
183	1
185	8
186	13
187	31
188	8
189	4
190	2
191	0
193	0
198	213
199	373
200	2401
201	1641
202	2338
203	392
204	35
205	3
209	1
210	2
211	5
212	1
213	10
215	25
216	5
227	2
230	9999
231	1936
232	194
233	13
