Mass Spectrum: Tetryl
Formula: C7 H5 N5 O8
CAS: 479-45-8
Molecular weight: 287
Origin: Japan AIST/NIMC Database- Spectrum MS-NW-2531
m/z	RELATIVE INTENSITY
12	20
14	40
15	929
16	119
17	229
18	1039
20	10
25	10
26	90
27	299
28	1149
29	629
30	9999
31	209
32	50
36	20
37	409
38	479
39	889
40	309
41	279
42	459
43	99
44	729
45	239
46	3959
47	50
48	60
49	109
50	1789
51	1439
52	1079
53	539
54	119
55	139
56	219
57	30
58	129
59	20
60	109
61	1009
62	2489
63	1309
64	1849
65	1049
66	2299
67	279
68	259
69	189
70	70
71	10
72	50
73	279
74	1889
75	4609
76	2629
77	3439
78	1439
79	499
80	1109
81	159
82	90
83	70
84	80
85	10
86	90
87	519
88	2269
89	749
90	2549
91	3469
92	1579
93	529
94	189
95	90
96	50
97	10
98	20
99	60
100	109
101	109
102	1819
103	1469
104	1289
105	689
106	249
107	379
108	279
109	50
110	10
111	10
115	60
116	109
117	249
118	1289
119	789
120	1099
121	239
122	70
123	99
124	50
126	10
131	99
132	469
133	409
134	329
135	189
136	499
137	789
138	70
139	30
147	30
148	309
149	1489
150	379
151	109
152	40
153	129
154	10
162	50
163	139
164	609
165	459
166	669
167	319
168	40
169	10
178	279
179	289
180	60
181	3449
182	319
183	299
184	30
185	10
192	20
193	20
194	2199
195	839
196	149
197	279
198	30
208	149
209	40
210	299
211	279
212	259
213	289
214	40
224	1379
225	449
226	90
227	10
228	20
240	109
241	5549
242	1419
243	169
244	20
257	10
287	90
