Mass Spectrum: Diazene, bis(4-ethoxyphenyl)-, 1-oxide
Formula: C16 H18 N2 O3
CAS: 4792-83-0
Molecular weight: 286
Origin: P.A. Leclercq, Lab. Instrum. Anal., Tech. Univ. Eindhoven, Netherlands
m/z	RELATIVE INTENSITY
14	9
15	39
18	9
27	1209
28	19
29	2879
30	89
36	39
37	29
38	159
39	1099
40	119
41	99
43	109
50	289
51	339
52	1849
53	619
54	109
55	209
62	99
63	609
64	639
65	2759
66	209
67	49
68	59
69	59
74	59
75	129
76	429
77	1309
78	469
79	2039
80	759
81	629
82	49
88	29
89	69
90	119
91	879
92	489
93	2019
94	519
95	109
96	29
97	39
102	39
103	179
104	49
105	49
107	9999
108	1459
109	699
110	99
115	109
116	49
117	89
118	39
119	109
121	6550
122	759
123	2479
124	519
125	69
127	209
128	129
129	69
131	139
132	69
133	59
135	4889
136	1039
137	179
138	49
139	69
140	39
144	59
145	139
146	39
148	119
149	769
151	1569
152	199
155	59
156	39
157	99
159	39
161	39
163	39
165	59
170	39
172	39
173	239
174	49
183	89
184	69
185	89
186	59
187	59
198	39
200	59
201	539
202	79
212	49
213	139
229	829
230	109
241	59
257	449
258	99
270	329
271	79
286	4809
287	849
288	99
