Mass Spectrum: Pentaethylene glycol
Formula: C10 H22 O6
CAS: 4792-15-8
Molecular weight: 238
Origin: NIST Mass Spectrometry Data Center, 2007
m/z	RELATIVE INTENSITY
14	10
15	170
16	10
18	10
19	210
26	50
27	490
28	671
29	731
30	120
31	821
32	30
33	20
39	10
40	10
41	100
42	170
43	1131
44	1071
45	9999
46	240
47	30
55	10
56	10
57	160
58	791
59	791
60	60
61	80
62	10
63	10
69	10
70	80
71	100
72	240
73	410
74	40
75	400
76	50
77	170
78	10
86	80
87	1261
88	791
89	3543
90	190
91	30
99	10
100	20
101	260
102	190
103	310
104	40
105	20
107	40
114	10
115	10
116	10
117	50
118	10
119	200
120	10
121	120
122	10
131	110
132	30
133	520
134	30
135	40
147	10
149	20
151	60
163	110
164	10
165	10
177	10
178	10
195	20
207	10
208	20
