Mass Spectrum: 7-Benzoyloxybicyclo[2.2.1]hepta-2,5-diene
Formula: C14 H12 O2
CAS: 4796-68-3
Molecular weight: 212
Origin: NIST Mass Spectrometry Data Center, 1994
m/z	RELATIVE INTENSITY
4	2
12	8
18	13
25	6
26	93
27	422
28	60
29	128
37	51
38	186
39	900
40	48
41	44
44	7
50	713
51	1937
52	319
53	148
54	10
55	5
61	21
62	82
63	214
64	57
65	566
66	35
74	100
75	90
77	3970
78	501
79	166
80	9
86	8
87	7
89	91
90	44
91	417
92	37
102	6
105	9999
106	738
107	67
147	5
167	10
194	7
212	65
213	10
