Mass Spectrum: 4-Hexen-3-ol
Formula: C6 H12 O
CAS: 4798-58-7
Molecular weight: 100
Origin: NIST Mass Spectrometry Data Center, 1990.
m/z	RELATIVE INTENSITY
14	256
15	263
26	321
27	1687
28	1061
29	1415
31	689
38	337
39	2134
40	422
41	3150
42	548
43	3854
51	402
53	1614
54	271
55	593
57	830
65	323
67	1174
69	604
71	9999
72	681
79	253
82	377
85	1447
100	507
