Mass Spectrum: Platyphylline
Formula: C18 H27 N O5
CAS: 480-78-4
Molecular weight: 337
Origin: P. SCHMID, INST. TOXIKOL., UNIV. ZURICH, SCHWERZENBACH, SWITZ.
m/z	RELATIVE INTENSITY
43	2450
44	1650
53	680
55	1710
67	570
68	640
81	890
82	6730
83	900
95	1210
96	2670
108	1310
109	690
120	810
122	6500
123	4770
125	1050
138	6120
139	830
140	9999
141	1000
156	160
168	60
180	510
210	20
211	4040
212	230
222	230
226	510
337	1000
