Mass Spectrum: Seneciphylline
Formula: C18 H23 N O5
CAS: 480-81-9
Molecular weight: 333
Origin: NIST Mass Spectrometry Data Center, 1998.
m/z	RELATIVE INTENSITY
14	10
26	30
27	540
28	220
29	480
30	60
31	70
37	20
38	50
39	1080
40	340
41	2010
42	550
43	6849
44	320
45	180
46	10
50	120
51	470
52	550
53	3110
54	1040
55	1100
56	120
57	330
58	40
61	30
62	30
63	120
64	60
65	1030
66	800
67	1780
68	670
69	540
70	180
71	80
72	10
73	10
74	10
75	10
77	1550
78	640
79	1860
80	4840
81	1540
82	830
83	110
85	130
86	40
87	10
89	100
90	110
91	1100
92	970
93	8679
94	9999
95	6259
96	680
97	90
103	190
104	310
106	1740
107	1200
108	2390
109	1800
110	260
113	10
115	30
116	40
117	520
118	1960
119	5699
120	8059
121	3180
122	10
123	770
124	220
125	110
127	20
129	20
141	50
142	10
146	140
148	90
154	60
155	10
158	70
159	20
163	40
166	40
177	40
186	30
187	20
192	10
196	20
201	20
205	20
208	30
211	10
216	110
219	70
226	20
229	10
233	20
248	20
259	10
261	30
270	30
272	20
275	30
286	10
315	20
316	20
318	10
333	10
