Mass Spectrum: Jacoline
Formula: C18 H27 N O7
CAS: 480-76-2
Molecular weight: 369
Origin: P. SCHMID, INST. TOXIKOL., UNIV. ZURICH, SCHWERZENBACH, SWITZ.
m/z	RELATIVE INTENSITY
41	2140
43	5480
53	1340
55	1330
72	1050
80	4140
82	1070
93	5600
94	3470
95	3650
106	930
111	1530
119	8200
120	9999
121	3430
122	1370
123	840
136	1610
138	2090
140	1630
152	120
155	400
170	350
171	80
210	510
211	60
223	40
227	30
236	680
237	70
250	10
252	10
262	20
264	10
279	10
280	20
308	70
309	10
325	140
326	20
369	50
370	10
