Mass Spectrum: 2-Chlorocyclododecanone oxime
Formula: C12 H22 Cl N O
CAS: 4806-74-0
Molecular weight: 231
Origin: V.G.Zaikin, TIPS, Russian Acad. Sci.
m/z	RELATIVE INTENSITY
39	6105
40	1601
41	9999
42	3903
43	3403
53	4103
54	3403
55	9208
56	2001
57	1801
65	1601
67	5805
68	1801
69	3202
70	1801
73	3202
77	1801
79	2302
80	2101
81	5004
82	2101
83	1801
84	1301
86	3403
93	1801
94	1801
95	3202
96	2101
98	1801
99	260
107	9708
108	1301
109	3202
110	1301
112	3403
113	5805
120	2602
121	1301
122	1301
123	630
126	2101
127	1801
132	790
140	1801
141	1601
149	1201
154	2902
162	1601
163	3202
168	1501
176	1601
178	2302
180	390
182	2302
188	450
190	530
195	390
196	9999
197	1601
198	1101
199	1101
203	2101
205	790
214	4203
215	790
216	2101
217	320
230	210
231	4704
232	701
233	1571
234	210
235	10
