Mass Spectrum: Cyclobutane, ethyl-
Formula: C6 H12
CAS: 4806-61-5
Molecular weight: 84
m/z	RELATIVE INTENSITY
1	50
14	50
15	370
25	20
26	430
27	2512
28	1451
29	1261
37	80
38	180
39	1812
40	470
41	6496
42	1571
43	751
44	20
49	30
50	150
51	200
52	80
53	360
54	390
55	2452
56	9999
57	460
63	20
65	30
67	70
68	50
69	1151
70	60
84	280
85	20
