Mass Spectrum: Chondrillasterol
Formula: C29 H48 O
CAS: 481-17-4
Molecular weight: 412
Origin: DR GLENN PATTERSON
m/z	RELATIVE INTENSITY
41	5799
42	500
43	6399
55	9999
56	1100
57	4700
67	3000
68	900
69	5799
71	2800
79	3000
81	7499
83	6499
91	3000
93	4999
95	4200
97	2500
105	3700
107	4800
109	2700
117	1100
119	2800
120	800
121	2000
122	700
123	1800
129	1600
131	1800
133	2500
134	800
135	2300
137	1100
143	800
145	2300
146	700
147	3000
149	2100
151	700
157	700
159	1800
160	500
161	2300
163	600
171	700
173	1100
175	900
185	600
187	800
189	500
199	800
201	1000
203	700
213	1600
214	500
215	900
217	500
218	500
219	600
227	800
228	800
229	1900
230	800
231	1500
232	700
243	500
245	500
246	2100
247	1000
253	1000
255	3800
256	1100
257	1200
258	600
259	600
269	900
271	7499
272	2100
273	2500
274	800
285	500
299	900
300	1500
301	800
351	800
369	1500
379	500
394	500
397	1000
412	2900
413	1000
