Mass Spectrum: Cholest-7-en-3-ol, 4-methyl-, (3.beta.,4.alpha.,5.alpha.)-
Formula: C28 H48 O
CAS: 481-25-4
Molecular weight: 400
Origin: T.IIDA NIHON UNIVERSITY, KORIYAMA, FUKUSHIMA-KEN, JAPAN
m/z	RELATIVE INTENSITY
26	200
27	600
29	2100
38	100
39	700
40	100
41	5900
42	500
43	8800
44	400
45	200
50	200
51	200
53	900
54	200
55	7700
56	700
57	5100
58	300
65	400
66	200
67	3600
68	600
69	4900
70	400
71	2100
72	200
73	100
74	100
75	100
77	1300
78	500
79	3500
80	700
81	6000
82	1500
83	2800
84	300
85	600
86	100
91	4900
92	1300
93	4900
94	1200
95	8000
96	1000
97	2000
98	200
99	200
103	300
104	300
105	6300
106	1800
107	5400
108	1900
109	4400
110	500
111	1000
112	100
113	300
115	400
116	300
117	1800
118	800
119	6100
120	2300
121	5800
122	2200
123	2700
124	500
125	800
126	100
127	200
128	400
129	900
130	400
131	2500
132	1100
133	4400
134	2900
135	5100
136	1500
137	900
138	600
139	500
140	100
141	300
142	300
143	1000
144	400
145	2900
146	1100
147	5100
148	1400
149	2100
150	400
151	600
152	600
153	200
154	100
155	300
156	300
157	1300
158	400
159	3100
160	900
161	5000
162	1000
163	1200
164	300
165	900
166	200
167	100
168	100
169	200
170	100
171	1200
172	500
173	2500
174	800
175	1400
176	400
177	700
178	200
180	100
181	100
183	200
184	100
185	900
186	400
187	1500
188	500
189	800
190	300
191	400
192	400
193	200
194	100
195	100
196	100
198	100
199	900
200	400
201	800
202	200
203	400
204	100
205	300
206	300
207	200
211	200
212	200
213	1100
214	400
215	1100
216	400
217	300
220	200
225	100
226	100
227	4700
228	1000
229	700
230	200
231	400
232	400
233	600
234	100
239	100
241	500
242	700
243	2700
244	600
245	3900
246	1100
247	1100
248	200
255	300
256	200
257	200
258	200
259	1000
260	1800
261	1200
262	400
263	100
267	100
268	100
269	9500
270	1900
271	500
272	200
273	400
274	500
275	200
276	100
281	100
283	100
285	500
286	300
287	2300
288	600
289	100
297	200
298	100
299	200
300	100
301	100
302	100
311	100
312	100
313	300
314	300
339	100
340	600
341	100
342	100
343	100
344	100
353	300
365	100
366	100
367	1700
368	600
369	100
371	100
381	100
382	1000
383	500
384	200
385	3500
386	1100
387	200
389	100
398	300
399	200
400	9999
401	3100
402	500
403	50
