Mass Spectrum: Ecgonine
Formula: C9 H15 N O3
CAS: 481-37-8
Molecular weight: 185
Origin: R RYHAGE MS-LAB KAROLINSKA INSTITUTET STOCKHOLM SWEDEN
m/z	RELATIVE INTENSITY
12	36
13	27
15	1626
16	36
17	60
18	181
25	39
26	266
27	2070
28	1197
29	1732
30	1233
31	722
32	60
39	1931
40	435
41	2928
42	8976
43	1496
44	1626
45	617
46	76
47	30
48	36
49	27
50	133
51	369
52	335
53	925
54	925
55	3218
56	1862
57	5488
58	2118
59	148
60	112
61	48
62	60
63	85
64	33
65	378
66	338
67	1399
68	1762
69	780
70	1505
71	550
72	130
73	124
74	60
75	60
76	88
77	351
78	230
79	375
80	529
81	967
82	9999
83	5672
84	1263
85	181
86	1309
87	100
88	48
89	57
90	36
91	302
92	148
93	716
94	3397
95	849
96	8286
97	5138
98	1064
99	187
100	196
101	85
102	224
103	42
104	57
105	48
106	79
107	121
108	547
109	175
110	553
111	184
112	1629
113	221
114	106
115	60
116	27
117	36
118	42
119	100
120	109
121	82
122	417
123	275
124	3300
125	369
126	348
127	60
128	154
129	60
130	127
131	30
132	33
133	18
134	42
135	42
136	79
137	45
138	290
139	91
140	559
141	1067
142	335
143	199
144	33
145	15
147	27
148	33
149	121
150	60
151	51
152	57
153	39
154	42
155	15
156	218
157	206
158	27
159	24
160	18
163	33
164	24
165	42
166	130
167	82
168	934
169	118
170	106
171	97
184	45
185	1393
186	227
187	15
