Mass Spectrum: .alpha.-Cadinol
Formula: C15 H26 O
CAS: 481-34-5
Molecular weight: 222
Origin: NIST Mass Spectrometry Data Center, 2010
m/z	RELATIVE INTENSITY
26	10
27	561
28	90
29	671
30	20
31	80
37	10
38	20
39	1031
40	190
41	3743
42	280
43	8928
44	210
45	390
46	10
49	10
50	40
51	310
52	150
53	1151
54	160
55	2422
56	310
57	550
58	2302
59	320
60	20
61	10
62	20
63	100
64	50
65	781
66	240
67	1752
68	270
69	2422
70	340
71	3693
72	200
73	30
74	10
75	20
76	20
77	2252
78	530
79	4144
80	671
81	4044
82	510
83	400
84	120
85	170
86	20
87	10
89	50
90	20
91	2322
92	581
93	2813
94	2342
95	9999
96	1301
97	270
98	30
99	40
100	10
101	10
102	40
103	230
104	120
105	3353
106	891
107	1031
108	1621
109	3683
110	460
111	190
112	40
113	150
114	10
115	290
116	100
117	330
118	150
119	1702
120	510
121	9949
122	1281
123	661
124	100
125	100
126	80
127	530
128	190
129	140
130	60
131	160
132	60
133	721
134	370
135	881
136	380
137	2072
138	260
139	260
140	30
141	40
142	20
143	20
144	10
145	170
146	50
147	330
148	651
149	851
150	310
151	601
152	621
153	80
154	10
155	10
159	50
160	120
161	3473
162	540
163	120
164	2662
165	360
166	270
167	40
175	100
176	50
177	40
178	10
179	290
180	40
189	621
190	90
191	10
203	10
204	3633
205	621
206	30
207	210
208	30
222	410
223	70
224	10
