Mass Spectrum: Coprostane
Formula: C27 H48
CAS: 481-20-9
Molecular weight: 372
Origin: Japan AIST/NIMC Database- Spectrum MS-NW-6969
m/z	RELATIVE INTENSITY
27	179
28	30
29	589
30	10
39	159
40	40
41	1749
42	169
43	2239
44	70
51	10
52	10
53	329
54	149
55	2929
56	249
57	1359
58	60
65	109
66	80
67	2279
68	709
69	1569
70	149
71	599
72	40
74	30
77	389
78	99
79	1359
80	389
81	3109
82	729
83	1229
84	109
85	129
86	10
87	40
88	30
89	10
91	749
92	199
93	1589
94	679
95	3449
96	539
97	849
98	70
99	20
100	10
101	50
102	20
103	30
104	30
105	599
106	249
107	1499
108	2569
109	3249
110	459
111	359
112	30
113	40
115	30
116	30
117	90
118	40
119	339
120	259
121	1629
122	1549
123	1779
124	239
125	119
126	30
127	50
128	30
129	50
130	20
131	90
132	30
133	389
134	229
135	1249
136	639
137	709
138	109
139	40
140	10
141	10
142	10
143	20
144	10
145	80
146	50
147	569
148	829
149	2129
150	1749
151	2869
152	1199
153	179
154	20
157	10
159	70
160	50
161	539
162	669
163	849
164	279
165	139
166	30
167	30
173	40
174	40
175	679
176	349
177	259
178	90
179	60
180	10
181	20
185	10
187	40
188	20
189	349
190	229
191	149
192	40
193	60
194	10
195	10
201	90
202	50
203	939
204	259
205	119
206	30
207	50
208	179
209	30
213	10
215	40
216	149
217	9999
218	5729
219	1539
220	219
221	40
222	90
223	20
229	20
230	20
231	179
232	1179
233	359
234	60
235	40
236	10
243	50
244	30
245	60
246	40
247	119
248	30
249	20
250	10
257	80
258	70
259	239
260	50
261	80
262	659
263	169
264	30
271	20
272	10
273	20
274	10
275	90
276	309
277	70
278	10
285	10
286	10
287	99
288	30
289	60
290	20
301	40
302	80
303	40
315	219
316	159
317	70
318	20
329	30
330	40
331	10
341	10
342	10
343	60
344	30
345	10
355	30
356	20
357	3769
358	1129
359	169
360	20
365	10
366	10
367	10
368	10
369	10
370	40
371	90
372	7629
373	2299
374	359
375	30
