Mass Spectrum: Stigmasta-5,24(28)-dien-3-ol, (3.beta.,24Z)-
Formula: C29 H48 O
CAS: 481-14-1
Molecular weight: 412
Origin: NIST Mass Spectrometry Data Center
m/z	RELATIVE INTENSITY
27	50
29	150
39	130
41	1131
42	80
43	831
53	300
54	80
55	4164
56	330
57	561
58	40
65	170
66	70
67	1551
68	330
69	2843
70	320
71	190
77	530
78	140
79	1571
80	240
81	1902
82	621
83	1401
84	140
85	170
91	1641
92	340
93	1591
94	410
95	1842
96	260
97	911
98	210
103	140
104	100
105	2262
106	490
107	1922
108	420
109	1111
110	290
111	270
112	40
115	240
116	130
117	831
118	420
119	1591
120	861
121	1181
122	320
123	661
124	190
125	150
127	60
128	260
129	561
130	290
131	1281
132	460
133	1431
134	470
135	791
136	230
137	320
138	150
139	60
141	170
142	170
143	971
144	460
145	1772
146	450
147	931
148	240
149	360
150	110
151	190
153	40
154	40
155	180
156	240
157	681
158	941
159	1351
160	480
161	911
162	240
163	330
164	120
165	60
167	30
169	310
170	120
171	641
172	290
173	691
174	250
175	520
176	460
177	220
178	130
179	50
182	30
183	220
184	140
185	611
186	330
187	591
188	290
189	400
190	220
191	90
195	40
197	520
198	210
199	741
200	240
201	430
202	440
203	440
204	110
211	1772
212	490
213	1762
214	550
215	430
216	140
217	260
218	140
219	50
225	410
226	170
227	510
228	671
229	3613
230	861
231	1051
232	410
239	380
240	190
241	280
242	120
243	220
244	200
245	240
246	260
247	50
253	530
254	280
255	601
256	260
257	240
258	270
259	80
267	140
268	90
269	60
270	210
271	1051
272	510
273	140
281	3883
282	931
283	160
284	30
285	110
286	70
287	30
295	50
296	1411
297	360
298	80
299	2682
300	751
301	160
312	50
313	60
314	9999
315	2362
316	300
317	20
379	130
380	40
394	50
397	130
398	40
412	520
413	160
