Mass Spectrum: Androst-4-en-3-one, 17-hydroxy-, (17.alpha.)-
Formula: C19 H28 O2
CAS: 481-30-1
Molecular weight: 288
Origin: D.HENNEBERG, MAX-PLANCK INSTITUTE, MULHEIM, WEST GERMANY
m/z	RELATIVE INTENSITY
27	1440
28	151
29	2035
30	165
31	344
32	17
35	12
38	21
39	1786
40	254
41	4764
42	341
43	1783
44	246
45	197
46	13
49	9
50	62
51	476
52	291
53	2092
54	287
55	4006
56	212
57	1446
58	143
59	38
60	23
61	23
63	126
64	98
65	1224
66	540
67	3379
68	542
69	716
70	74
71	334
72	29
73	60
74	92
75	95
76	81
77	3378
78	869
79	4796
80	914
81	2730
82	382
83	620
84	126
85	133
86	151
87	292
88	43
89	97
90	116
91	5687
92	947
93	3694
94	1357
95	2326
96	727
97	1405
98	93
99	112
100	80
101	110
102	84
103	460
104	477
105	3816
106	1193
107	2984
108	1308
109	2878
110	1180
111	1043
112	59
113	67
114	66
115	714
116	322
117	1183
118	535
119	2214
120	957
121	2197
122	1856
123	3309
124	9999
125	1295
126	100
127	143
128	486
129	745
130	329
131	2067
132	791
133	2045
134	1650
135	1225
136	886
137	1426
138	535
139	134
141	272
142	213
143	668
144	885
145	1663
146	2932
147	9086
148	2475
149	1125
150	295
151	494
152	175
153	97
154	49
155	197
156	125
157	424
158	460
159	1116
160	666
161	774
162	559
163	384
164	1281
165	2551
166	544
167	146
168	80
169	192
170	146
171	430
172	350
173	615
174	705
175	439
176	456
177	276
178	141
179	181
180	91
181	90
182	95
183	152
184	118
185	1053
186	406
187	917
188	364
189	368
190	348
191	210
192	66
193	42
194	34
195	87
196	61
197	187
198	116
199	492
200	428
201	442
202	426
203	2669
204	731
205	84
206	104
207	48
209	128
210	57
211	367
212	193
213	1346
214	377
215	213
216	244
217	177
218	107
219	26
220	25
221	28
222	22
223	52
224	70
225	76
226	248
227	653
228	4626
229	1282
230	206
231	403
232	160
233	34
234	19
235	45
236	23
237	234
238	68
239	38
240	32
241	108
242	181
243	58
244	237
245	298
246	3671
247	711
248	83
249	15
250	20
251	47
252	380
253	199
254	140
255	501
256	82
257	22
258	18
259	52
260	230
261	28
262	24
265	21
266	20
267	23
268	71
269	119
270	1235
271	315
272	48
273	574
274	124
275	17
277	12
279	19
280	25
281	16
282	9
283	19
286	72
287	166
288	9408
289	1946
290	278
291	12
