Mass Spectrum: Naphtho[1,2-b]furan-2,8(3H,4H)-dione, 3a,5,5a,9b-tetrahydro-3,5a,9-trimethyl-, [3R-(3.alpha.,3a.beta.,5a.alpha.,9b.alpha.)]-
Formula: C15 H18 O3
CAS: 481-07-2
Molecular weight: 246
Origin: E. S. WAIGHT, IMPERIAL COLLEGE, LONDON
m/z	RELATIVE INTENSITY
39	3300
41	7400
43	1200
51	1400
53	1900
55	2400
65	2200
67	1300
69	2200
77	2100
79	1700
83	1500
85	1000
91	4900
93	1000
105	1500
107	2000
115	1000
119	1300
121	2200
122	2400
129	1200
133	1000
134	2000
135	6500
136	1000
145	1600
146	1600
147	1700
149	1200
152	1000
157	1000
159	1000
161	1800
162	1000
163	1800
172	4200
173	9100
174	1700
175	2700
185	1000
187	1300
190	2000
191	2000
204	1800
227	1000
231	3100
246	9999
247	2000
