Mass Spectrum: 1-Heptene, 3-methyl-
Formula: C8 H16
CAS: 4810-09-7
Molecular weight: 112
Origin: D.HENNEBERG, MAX-PLANCK INSTITUTE, MULHEIM, WEST GERMANY
m/z	RELATIVE INTENSITY
24	5
25	17
26	151
27	2386
28	337
29	3646
30	107
31	3
34	3
35	3
36	16
37	43
38	91
39	2093
40	350
41	6644
42	2154
43	1284
45	9
46	8
47	5
48	2
49	8
50	97
51	233
52	110
53	795
54	727
55	9999
56	6687
57	1649
58	66
61	37
62	12
63	45
64	10
65	96
66	47
67	387
68	190
69	2355
70	5365
71	849
72	29
75	3
77	50
78	13
79	46
80	7
81	51
82	77
83	986
84	832
85	54
91	29
92	6
95	94
97	80
105	94
112	208
113	14
