Mass Spectrum: 2-Isopropoxyphenol
Formula: C9 H12 O2
CAS: 4812-20-8
Molecular weight: 152
Origin: NIST Mass Spectrometry Data Center
m/z	RELATIVE INTENSITY
15	30
26	90
27	751
29	70
31	20
37	40
38	150
39	811
40	70
41	791
42	110
43	971
44	20
45	40
49	20
50	220
51	390
52	490
53	741
54	210
55	180
56	10
59	40
61	10
62	70
63	480
64	851
65	310
66	50
67	10
69	10
74	10
75	10
77	40
79	60
80	80
81	1141
82	380
83	20
91	50
92	561
93	120
94	30
95	20
105	20
107	10
108	10
109	540
110	9999
111	1001
112	80
121	50
123	20
135	10
137	90
151	40
152	2022
153	200
154	10
