Mass Spectrum: Benzenemethanol, .alpha.-[1-(ethylmethylamino)ethyl]-, [R-(R*,S*)]-
Formula: C12 H19 N O
CAS: 48141-64-6
Molecular weight: 193
Origin: Finnigan MAT: Toxicological Library (LIBR-TX)
m/z	RELATIVE INTENSITY
40	84
42	283
43	111
44	108
51	93
56	212
57	112
58	1533
70	91
77	187
79	104
86	9999
87	511
