Mass Spectrum: .beta.-Phenoxyethyl acrylate
Formula: C11 H12 O3
CAS: 48145-04-6
Molecular weight: 192
Origin: NIST Mass Spectrometry Data Center, 1994
m/z	RELATIVE INTENSITY
12	9
13	14
14	5
15	120
16	5
26	809
27	3410
29	243
30	30
31	58
37	76
38	336
39	1368
40	99
41	64
42	57
43	104
44	33
45	60
50	428
51	1321
52	126
53	195
54	33
55	9999
56	347
57	35
61	39
62	124
63	377
64	190
65	1046
66	315
67	21
68	13
69	38
73	47
74	96
75	80
76	13
77	2658
78	248
79	327
80	30
81	9
89	15
91	416
92	104
93	175
94	533
95	35
99	8916
100	524
101	53
103	31
105	15
107	290
108	32
119	121
120	281
121	70
192	270
193	29
