Mass Spectrum: Ethoxyacetaldehyde diethylacetal
Formula: C8 H18 O3
CAS: 4819-77-6
Molecular weight: 162
Origin: NIST Mass Spectrometry Data Center
m/z	RELATIVE INTENSITY
14	30
15	851
17	20
18	70
19	460
26	290
27	2472
28	140
29	5415
30	310
31	2652
33	10
39	10
41	210
42	230
43	1742
44	691
45	1531
47	9999
48	110
49	60
57	40
59	821
60	410
61	3904
62	90
63	20
69	10
71	10
72	120
73	1151
75	4244
76	130
77	20
87	10
89	641
90	20
103	5315
104	280
105	30
117	450
118	30
