Mass Spectrum: 2H-Pyran, 2-ethoxytetrahydro-
Formula: C7 H14 O2
CAS: 4819-83-4
Molecular weight: 130
m/z	RELATIVE INTENSITY
41	9815
42	1734
43	5166
44	5092
45	1697
46	295
47	8486
48	184
51	332
53	517
54	443
55	3542
56	6457
57	3874
58	406
59	406
67	1550
72	2472
73	480
75	5608
76	295
83	443
84	369
85	9999
86	812
101	480
102	664
129	1476
130	849
