Mass Spectrum: Isothipendyl
Formula: C16 H19 N3 S
CAS: 482-15-5
Molecular weight: 285
Origin: AAFS Toxicology Section MS DB Committee, U. Alberta, Canada
m/z	RELATIVE INTENSITY
42	250
43	360
44	480
55	340
56	320
57	360
58	520
59	320
65	180
67	210
69	560
70	560
71	740
72	9999
73	650
76	190
77	410
79	180
81	270
82	270
83	410
85	300
86	480
91	250
92	180
93	190
94	280
96	230
97	320
98	210
99	210
101	190
103	210
109	230
111	270
113	210
115	230
117	180
119	370
121	230
127	180
128	210
131	190
133	320
135	210
138	180
140	270
141	190
152	180
154	180
155	320
166	250
167	540
168	250
172	230
179	210
181	790
198	430
199	1571
200	1151
201	270
207	180
213	750
214	1421
215	320
225	360
239	210
241	180
285	1060
286	190
