Mass Spectrum: 7H-Furo[3,2-g][1]benzopyran-7-one, 9-[(3-methyl-2-butenyl)oxy]-
Formula: C16 H14 O4
CAS: 482-44-0
Molecular weight: 270
Origin: Japan AIST/NIMC Database- Spectrum MS-IW-7981
m/z	RELATIVE INTENSITY
27	99
28	10
29	30
37	10
38	30
39	239
40	60
41	819
42	50
43	20
44	20
45	20
50	50
51	90
52	20
53	189
54	10
55	10
59	10
61	20
62	99
63	349
64	60
65	40
66	30
67	259
68	179
69	709
70	40
74	30
75	40
76	20
77	20
79	20
86	20
87	60
88	40
89	609
90	319
91	30
92	20
93	10
100	10
101	30
102	10
116	10
117	50
118	149
119	30
129	30
132	10
145	259
146	309
147	40
157	10
158	10
173	179
174	1769
175	199
176	20
201	129
202	9999
203	1269
204	149
205	10
215	10
217	60
218	10
232	90
233	10
255	10
270	30
271	30
