Mass Spectrum: 1H-Indole-3-ethanol, 2-(5-ethenyl-1-azabicyclo[2.2.2]oct-2-yl)-, [1S-(1.alpha.,2.alpha.,4.alpha.,5.beta.)]-
Formula: C19 H24 N2 O
CAS: 482-28-0
Molecular weight: 296
Origin: A. Brossi, LAC, NIDDK, NIH, Bethesda, MD 20892
m/z	RELATIVE INTENSITY
41	1946
42	2807
43	915
44	1129
45	153
46	61
49	49
50	98
51	348
52	191
53	748
54	524
55	1319
56	663
57	310
58	88
59	354
60	83
62	39
63	154
64	66
65	344
66	147
67	558
68	423
69	272
70	180
71	98
72	34
73	63
74	49
75	128
76	186
77	998
78	542
79	638
80	486
81	491
82	955
83	337
84	362
85	103
86	35
87	38
88	48
89	220
90	180
91	372
92	136
93	305
94	357
95	549
96	358
97	146
98	135
99	59
100	32
101	219
102	340
103	353
104	145
105	214
106	401
107	178
108	1197
109	1353
110	1755
111	326
112	122
113	97
114	125
115	867
116	343
117	497
118	258
119	136
120	640
121	2648
122	1225
123	4457
124	1105
125	140
126	328
127	619
128	1395
129	1648
130	1612
131	951
132	408
133	201
134	405
135	392
136	918
137	258
138	137
139	294
140	335
141	237
142	561
143	1315
144	2735
145	1004
146	371
147	80
148	220
149	105
150	42
151	52
152	158
153	137
154	1563
155	1275
156	9999
157	2800
158	1420
159	376
160	174
161	79
162	69
164	63
165	110
166	234
167	1243
168	1673
169	2916
170	1065
171	689
172	597
173	285
174	421
175	286
176	224
177	55
178	91
179	93
180	826
181	534
182	902
183	901
184	434
185	293
186	207
187	4363
188	710
189	92
190	40
191	115
192	175
193	268
194	544
195	483
196	437
197	408
198	214
199	307
200	213
201	620
202	107
203	42
204	135
205	111
206	325
207	261
208	359
209	451
210	238
211	486
212	221
213	103
214	75
215	70
216	55
217	55
218	100
219	107
220	224
221	310
222	467
223	1547
224	409
225	323
226	383
227	112
228	40
229	112
232	57
233	64
234	239
235	292
236	282
237	358
238	175
239	187
240	71
241	639
242	135
243	39
246	59
247	54
248	109
249	401
250	206
251	1436
252	69
253	42
254	116
255	85
256	18
257	4
263	62
264	220
265	2540
266	3733
267	1617
268	122
269	75
270	13
277	312
278	2540
279	856
280	144
281	73
282	22
283	12
284	5
293	34
294	143
295	294
296	4298
297	1369
298	192
299	54
