Mass Spectrum: [1,1'-Biphenyl]-2,2'-dicarboxylic acid
Formula: C14 H10 O4
CAS: 482-05-3
Molecular weight: 242
Origin: Japan AIST/NIMC Database- Spectrum MS-NW-5606
m/z	RELATIVE INTENSITY
17	10
18	30
26	20
27	80
28	20
29	30
31	20
37	30
38	70
39	349
40	20
41	20
43	10
44	80
45	179
46	20
49	30
50	299
51	359
52	70
53	60
55	40
56	20
57	189
58	30
60	10
61	80
62	199
63	549
64	99
65	159
66	20
67	10
68	20
69	159
70	229
71	70
72	10
73	30
74	309
75	489
76	839
77	339
78	60
79	20
81	10
83	20
84	239
85	60
86	129
87	189
88	80
89	179
90	80
91	80
92	40
93	20
94	10
96	10
97	20
98	429
99	229
100	70
101	109
102	149
103	30
104	109
105	60
106	10
109	20
110	50
111	50
112	40
113	139
114	129
115	909
116	129
117	10
118	10
119	30
120	20
121	30
122	40
123	20
124	30
125	119
126	249
127	179
128	70
129	40
130	10
131	10
133	10
134	10
135	10
136	10
137	30
138	40
139	709
140	229
141	729
142	139
143	20
144	10
146	10
149	50
150	329
151	829
152	2259
153	2039
154	289
155	30
157	10
159	10
160	30
161	20
162	10
163	10
164	10
165	10
166	10
167	50
168	369
169	229
170	60
171	10
174	10
175	10
176	10
177	10
178	10
179	169
180	819
181	1919
182	269
183	40
184	10
185	10
188	10
189	10
190	10
194	10
195	30
196	149
197	9999
198	1869
199	229
200	20
206	10
207	30
208	10
211	40
212	20
213	10
223	30
224	159
225	99
226	20
241	20
242	2749
243	469
244	90
245	10
