Mass Spectrum: Indigo
Formula: C16 H10 N2 O2
CAS: 482-89-3
Molecular weight: 262
Origin: NIST Mass Spectrometry Data Center
m/z	RELATIVE INTENSITY
18	70
29	40
39	170
44	180
50	1251
51	871
52	220
62	150
63	240
64	150
74	430
75	951
76	2903
77	1511
78	370
89	250
102	1121
103	2823
104	4384
105	731
129	330
130	390
131	1451
132	220
151	420
152	290
157	1081
158	1221
177	310
178	280
179	400
180	210
205	2112
206	681
207	210
233	931
234	1451
235	180
261	220
262	9999
263	1752
264	230
