Mass Spectrum: 7H-Furo[3,2-g][1]benzopyran-7-one, 4-[(3-methyl-2-butenyl)oxy]-
Formula: C16 H14 O4
CAS: 482-45-1
Molecular weight: 270
Origin: Japan AIST/NIMC Database- Spectrum MS-IW-7263
m/z	RELATIVE INTENSITY
17	20
18	70
26	20
27	259
28	70
29	70
31	20
37	50
38	139
39	609
40	329
41	2039
42	239
43	60
44	20
45	40
49	30
50	179
51	389
52	80
53	849
54	50
55	40
56	20
57	10
58	10
59	159
61	40
62	109
63	269
64	60
65	169
66	129
67	1629
68	1139
69	3539
70	199
71	10
72	20
73	20
74	60
75	70
76	30
77	80
78	30
79	90
80	30
81	10
85	10
86	30
87	209
88	50
89	459
90	319
91	50
92	30
93	30
94	10
95	40
97	10
98	20
99	30
100	30
101	149
102	20
103	20
105	10
106	10
107	30
108	20
113	10
114	10
115	40
116	30
117	80
118	499
119	60
120	10
121	20
127	10
128	30
129	30
130	10
131	30
133	10
135	40
141	10
143	10
144	20
145	409
146	289
147	30
149	10
152	10
155	10
156	10
157	30
158	10
159	40
162	10
163	10
169	10
171	50
172	10
173	209
174	2029
175	229
176	20
181	10
184	10
185	20
186	20
187	60
188	10
191	10
197	10
198	10
199	80
200	20
201	299
202	9999
203	1279
204	159
205	10
209	10
211	20
213	30
214	20
215	479
216	80
217	10
225	20
226	10
227	229
228	40
229	20
237	20
239	10
240	10
241	30
242	50
243	20
252	10
253	50
254	10
255	629
256	99
257	10
268	20
269	60
270	929
271	209
272	30
