Mass Spectrum: 2-Mercaptoacetanilide
Formula: C8 H9 N O S
CAS: 4822-44-0
Molecular weight: 167
Origin: NIST Mass Spectrometry Data Center, 1994
m/z	RELATIVE INTENSITY
12	30
13	53
14	224
15	49
18	68
26	65
27	102
28	360
30	67
32	109
33	207
34	77
35	22
37	287
38	897
39	2792
40	450
41	286
42	510
43	152
44	103
45	1044
46	689
47	3179
48	166
49	223
50	654
51	1481
52	550
53	103
54	113
60	22
61	138
62	320
63	921
64	994
65	2996
66	1441
67	171
69	35
73	30
74	96
75	190
76	22
77	3103
78	373
79	289
80	168
81	26
82	19
87	40
88	23
89	29
90	86
91	766
92	2511
93	9999
94	1055
95	49
97	149
102	17
104	142
105	65
106	573
107	54
109	26
111	19
116	16
119	1894
120	1714
121	174
122	28
123	109
124	458
125	91
126	30
132	72
133	53
134	313
135	124
136	35
138	39
149	17
165	30
167	5011
168	553
169	277
170	20
