Mass Spectrum: Bromophos-ethyl
Formula: C10 H12 Br Cl2 O3 P S
CAS: 4824-78-6
Molecular weight: 392
Origin: CATALOGUE OF MASS SPECTRA OF PESTICIDES, APRIL, 1975; J. FREUDENTHAL & L. G. GRAMBERG, NAT'L INST. OF PUBLIC HEALTH, THE NETHERLANDS
m/z	RELATIVE INTENSITY
39	163
40	272
41	230
47	681
48	102
55	208
57	216
59	110
60	136
62	931
63	506
65	2458
67	144
69	166
71	102
72	132
73	194
74	376
75	261
79	553
80	373
81	1292
83	235
84	118
90	142
91	565
93	1522
96	349
97	9999
98	254
99	1015
102	137
107	127
108	256
109	3855
110	231
111	358
113	165
114	377
115	442
118	182
121	1150
125	3913
126	540
127	326
128	107
129	221
131	127
132	342
133	683
134	212
135	348
137	319
141	315
142	303
143	416
144	545
145	113
146	537
147	185
151	173
153	534
154	251
156	263
157	316
158	175
160	164
161	341
162	287
163	179
164	250
170	267
172	131
173	133
174	130
176	445
177	237
178	625
179	203
180	196
190	163
193	196
198	673
204	272
205	162
206	256
207	107
208	241
210	107
211	934
212	102
213	1208
215	602
217	140
221	135
222	475
223	413
224	230
225	253
226	129
237	238
239	603
240	4300
241	861
242	6464
243	630
244	3128
245	281
246	473
250	182
251	329
252	101
253	334
255	194
256	874
257	427
258	615
259	221
260	205
268	754
269	136
270	1117
271	151
272	523
278	145
279	382
280	134
281	143
283	129
284	160
285	227
286	131
287	235
289	176
291	131
298	265
300	197
301	4216
302	596
303	5913
304	589
305	1704
306	160
313	151
314	122
315	167
316	174
317	159
319	338
320	124
321	450
322	104
323	256
329	3691
330	561
331	5275
332	526
333	1590
334	192
347	177
349	138
351	124
357	5784
358	621
359	7362
360	867
361	2056
362	191
363	190
