Mass Spectrum: 1,3-Dithiolane
Formula: C3 H6 S2
CAS: 4829-04-3
Molecular weight: 106
Origin: CBDCOM/ERDEC, Edgewood, MD
m/z	RELATIVE INTENSITY
41	290
42	290
45	3092
46	1040
47	790
48	190
53	290
58	690
59	1991
60	4193
61	1040
73	790
76	290
78	4193
79	290
80	590
103	190
105	1090
106	9999
107	590
108	1090
