Mass Spectrum: Ajmalicine
Formula: C21 H24 N2 O3
CAS: 483-04-5
Molecular weight: 352
Origin: Japan AIST/NIMC Database- Spectrum MS-IW-2130
m/z	RELATIVE INTENSITY
15	289
26	20
27	269
28	319
29	439
30	70
31	80
32	10
33	20
38	20
39	509
40	109
41	579
42	929
43	289
44	90
45	50
50	60
51	209
52	109
53	359
54	199
55	1339
56	239
57	50
58	10
59	229
61	30
62	40
63	149
64	60
65	269
66	129
67	229
68	159
69	90
70	30
71	50
72	10
74	40
75	99
76	119
77	819
78	179
79	289
80	119
81	129
82	99
83	70
84	50
85	60
86	20
87	40
88	60
89	199
90	129
91	249
92	129
93	119
94	109
95	409
96	109
97	70
98	40
99	60
100	40
101	149
102	239
103	229
104	119
105	80
106	90
107	159
108	80
109	99
110	119
111	139
112	50
113	90
114	139
115	849
116	339
117	369
118	179
119	40
120	30
121	129
122	80
123	269
124	90
125	139
126	80
127	509
128	919
129	1099
130	739
131	209
132	80
133	40
134	20
135	80
136	70
137	99
138	60
139	189
140	309
141	249
142	769
143	1449
144	1199
145	189
146	99
147	30
148	20
149	50
150	40
151	90
152	149
153	379
154	1149
155	919
156	9999
157	1909
158	229
159	40
160	189
161	40
162	30
163	20
164	70
165	90
166	199
167	769
168	1049
169	2799
170	1749
171	1459
172	249
173	40
174	20
175	40
176	899
177	70
178	119
179	129
180	389
181	249
182	599
183	1229
184	7599
185	1729
186	289
187	40
188	20
189	20
190	60
191	109
192	129
193	139
194	169
195	249
196	359
197	329
198	219
199	80
200	40
201	10
202	10
203	20
204	119
205	149
206	279
207	309
208	589
209	1949
210	439
211	109
212	20
213	20
214	80
215	20
216	30
217	70
218	109
219	139
220	149
221	379
222	489
223	559
224	239
225	1149
226	219
227	30
228	10
229	20
230	30
231	40
232	50
233	70
234	109
235	289
236	169
237	209
238	259
239	70
240	20
241	10
242	20
243	20
244	20
245	50
246	229
247	149
248	90
249	289
250	109
251	219
252	50
253	30
254	10
255	20
256	10
257	10
258	10
259	20
260	50
261	90
262	60
263	239
264	99
265	519
266	109
267	90
268	60
269	20
270	10
272	10
273	10
274	20
275	40
276	40
277	60
278	60
279	60
280	30
281	30
282	10
283	10
289	20
290	40
291	109
292	109
293	179
294	60
295	90
296	40
297	80
298	10
303	10
305	30
306	10
307	50
308	30
309	60
310	30
317	10
318	10
319	109
320	40
321	289
322	80
323	159
324	80
325	20
333	10
334	10
335	20
337	319
338	70
351	3849
352	5319
353	1259
354	239
355	30
