Mass Spectrum: Naphthalene, 1,2,3,4-tetrahydro-1,6-dimethyl-4-(1-methylethyl)-, (1S-cis)-
Formula: C15 H22
CAS: 483-77-2
Molecular weight: 202
Origin: NIST Mass Spectrometry Data Center, 2010
m/z	RELATIVE INTENSITY
27	60
28	70
29	90
30	10
31	10
32	20
39	110
40	30
41	160
42	20
43	140
44	20
45	10
49	10
50	20
51	50
52	40
53	30
55	110
56	40
57	40
58	20
59	40
60	10
61	20
63	100
64	30
65	130
67	60
68	40
70	180
75	10
76	10
77	150
78	40
79	30
83	50
84	60
85	60
86	50
87	30
89	70
91	150
96	20
97	70
98	30
100	30
102	30
103	70
104	50
105	390
106	30
113	50
114	50
115	651
116	200
117	370
118	130
119	160
123	90
124	40
126	20
127	290
128	851
129	1071
130	260
131	861
132	160
139	70
140	20
141	400
142	220
143	400
144	771
145	210
146	20
149	20
151	40
152	40
153	80
154	40
155	60
157	170
158	160
159	9999
160	1191
187	40
202	1131
203	200
