Mass Spectrum: Naphthalene, 1,2,3,5,6,8a-hexahydro-4,7-dimethyl-1-(1-methylethyl)-, (1S-cis)-
Formula: C15 H24
CAS: 483-76-1
Molecular weight: 204
Origin: N.W. DAVIES, UNIV. OF TASMANIA, HOBART, TASMANIA, AUSTRALIA
m/z	RELATIVE INTENSITY
26	70
27	970
29	470
31	50
38	20
39	1040
41	3450
42	230
43	570
50	110
51	280
52	210
53	730
54	190
55	1700
56	90
57	140
58	90
59	160
63	160
64	110
65	610
66	110
67	450
68	50
69	1110
71	90
73	90
75	20
76	110
77	1180
78	400
79	990
80	140
81	2750
82	160
83	50
89	110
91	2490
92	900
93	1590
94	160
95	450
96	50
99	20
102	20
103	350
104	110
105	4470
106	870
107	420
108	160
109	50
110	90
113	90
115	490
116	210
117	610
118	470
119	4590
120	750
121	400
122	110
123	70
127	160
128	350
129	450
130	260
131	490
132	310
133	1060
134	5780
135	780
136	140
141	210
142	160
143	160
144	90
145	490
146	260
147	520
148	140
149	90
157	50
159	420
161	9999
162	1850
163	140
165	90
175	140
176	110
177	70
189	1390
190	280
204	4120
205	730
