Mass Spectrum: Naphthalene, 1,6-dimethyl-4-(1-methylethyl)-
Formula: C15 H18
CAS: 483-78-3
Molecular weight: 198
Origin: CONTINENTAL OIL CO., PONCA CITY, OKLA, USA
m/z	RELATIVE INTENSITY
13	9
14	47
15	731
16	17
26	45
27	650
28	170
29	137
30	16
37	10
38	47
39	487
40	56
41	251
42	33
43	32
44	15
48	1
49	16
50	118
51	344
52	75
53	87
54	10
55	40
56	9
57	14
58	15
61	13
62	95
63	375
64	201
65	137
66	17
67	10
68	3
69	38
70	61
71	82
72	16
73	16
74	90
75	178
76	571
77	375
78	80
79	23
82	447
83	772
84	396
85	190
86	46
87	91
88	159
89	534
90	251
91	352
92	63
94	9
95	11
96	15
97	17
98	68
99	204
100	28
101	60
102	109
103	45
104	10
105	38
106	9
109	6
110	21
111	31
112	12
113	64
114	43
115	563
116	83
117	21
118	6
119	6
122	9
123	8
125	22
126	124
127	282
128	610
129	244
130	36
131	22
132	2
136	4
137	20
138	35
139	402
140	147
141	795
142	409
143	184
144	31
145	20
146	2
148	3
149	22
150	96
151	304
152	1268
153	1483
154	422
155	747
156	586
157	171
158	52
159	57
160	33
161	10
162	39
163	145
164	183
165	1468
166	568
167	1198
168	1814
169	870
170	209
171	23
172	5
180	93
181	440
182	296
183	9999
184	1662
185	143
186	15
196	94
197	251
198	4578
199	752
200	57
201	2
