Mass Spectrum: Benzene, (4-chlorobutyl)-
Formula: C10 H13 Cl
CAS: 4830-93-7
Molecular weight: 168
Origin: NIST Mass Spectrometry Data Center, 1990.
m/z	RELATIVE INTENSITY
26	45
27	252
38	84
39	595
40	61
41	307
42	32
49	193
50	264
51	635
52	161
53	118
55	36
58	35
61	38
62	115
63	430
64	165
65	1262
66	76
74	95
75	96
76	108
77	638
78	679
79	253
89	291
91	9999
92	1766
93	109
102	92
103	304
104	1029
105	514
106	68
115	228
116	70
117	244
118	33
119	84
127	45
128	67
129	36
131	65
132	259
133	168
168	1108
169	122
170	365
171	38
