Mass Spectrum: 1-Decalone (cis-trans)
Formula: C10 H16 O
CAS: 4832-16-0
Molecular weight: 152
Origin: NIST Mass Spectrometry Data Center, 1990.
m/z	RELATIVE INTENSITY
14	70
15	359
18	112
27	4328
28	1808
29	2281
37	116
39	6413
40	1525
41	8341
42	1728
43	984
44	176
50	338
51	1042
52	744
53	3541
54	4258
55	9999
56	863
57	289
63	321
65	1194
66	1094
67	8229
68	3474
69	1394
70	1257
71	865
77	1371
78	924
79	4055
80	1567
81	8830
82	3474
83	1200
84	327
91	835
92	561
93	2232
94	3628
95	4903
96	3688
97	2369
98	416
105	488
106	372
108	7525
109	2920
110	1650
111	166
119	543
120	102
121	94
122	94
123	1178
124	387
134	911
135	110
137	444
152	4772
153	489
