Mass Spectrum: N,N'-di-n-Butyl-1,6-hexanediamine
Formula: C14 H32 N2
CAS: 4835-11-4
Molecular weight: 228
Origin: Japan AIST/NIMC Database- Spectrum MS-NW-3935
m/z	RELATIVE INTENSITY
14	10
15	40
17	20
18	139
26	30
27	359
28	459
29	1279
30	3199
31	70
32	40
34	10
38	10
39	249
40	40
41	1579
42	579
43	569
44	2569
45	99
50	10
51	10
52	10
53	99
54	90
55	1069
56	759
57	859
58	279
59	30
64	10
65	10
66	10
67	70
68	129
69	169
70	569
71	939
72	859
73	589
74	269
75	10
77	20
78	10
79	50
80	40
81	389
82	139
83	119
84	519
85	50
86	9999
87	619
88	20
92	20
93	10
94	30
95	30
96	99
97	30
98	1559
99	239
100	2279
101	199
106	10
108	30
109	10
110	379
111	50
112	4289
113	379
114	859
115	80
120	10
122	10
123	10
124	50
125	50
126	239
127	30
128	239
129	70
130	60
131	10
136	10
138	50
139	20
140	129
141	30
142	1509
143	629
144	70
149	10
150	10
151	20
152	70
153	90
154	1989
155	319
156	1059
157	279
158	30
166	20
167	50
168	20
169	30
170	10
171	509
172	70
173	10
181	10
183	60
184	10
185	1629
186	229
187	20
199	60
200	10
213	10
227	40
228	189
229	40
