Mass Spectrum: Osthole
Formula: C15 H16 O3
CAS: 484-12-8
Molecular weight: 244
Origin: NIST Mass Spectrometry Data Center, 1998.
m/z	RELATIVE INTENSITY
15	100
26	20
27	310
29	240
30	10
31	10
37	10
38	120
39	820
40	110
41	870
42	70
43	480
44	10
45	30
46	10
49	10
50	330
51	950
52	260
53	700
54	70
55	580
56	30
57	120
59	50
60	10
61	40
62	300
63	1220
64	640
65	740
66	190
67	210
68	30
69	200
70	70
71	60
72	150
74	220
75	370
76	480
77	1630
78	400
79	670
80	100
81	80
82	10
83	30
84	30
85	50
86	140
87	200
88	140
89	1070
90	550
91	880
92	310
93	310
94	90
95	50
97	10
98	50
99	70
100	10
101	310
102	710
103	1050
104	210
105	320
106	60
107	480
109	20
110	10
111	20
112	10
113	120
114	190
115	2020
116	360
117	380
118	390
119	180
120	40
121	110
122	20
125	10
126	100
127	630
128	1370
129	760
130	270
131	3250
132	410
133	360
134	60
135	30
136	10
137	10
138	10
139	270
140	90
141	730
142	350
143	400
144	220
145	380
146	340
147	360
148	450
149	60
150	20
151	60
152	250
153	300
154	150
155	360
156	110
157	430
158	540
159	1910
160	470
161	280
162	40
163	50
164	10
165	100
166	40
167	340
168	220
169	330
170	210
171	760
172	720
173	910
174	230
175	1890
176	1170
177	210
178	20
179	10
181	50
182	40
183	470
184	250
185	1510
186	2350
187	2250
188	350
189	5669
190	700
191	80
192	10
193	10
194	20
195	300
196	160
197	290
198	260
199	1110
200	290
201	5919
202	910
203	300
204	30
209	80
210	50
211	1420
212	310
213	4050
214	780
215	710
216	130
217	20
225	280
226	150
227	90
228	20
229	7799
230	1210
231	140
232	10
241	10
242	10
243	150
244	9999
245	1670
246	190
247	10
