Mass Spectrum: 9-Phenanthrenol
Formula: C14 H10 O
CAS: 484-17-3
Molecular weight: 194
Origin: Japan AIST/NIMC Database- Spectrum MS-NW-4524
m/z	RELATIVE INTENSITY
18	10
27	20
28	30
29	10
37	10
38	30
39	109
49	10
50	90
51	109
52	20
53	10
55	20
56	20
57	10
61	40
62	119
63	219
64	30
65	30
67	10
68	20
69	389
70	99
73	20
74	129
75	149
76	60
77	50
78	10
81	419
82	1029
83	749
84	20
85	30
86	99
87	159
88	99
89	90
90	10
91	10
96	50
97	539
98	70
99	40
100	10
101	20
102	10
109	10
110	40
111	40
112	10
113	80
114	30
115	179
116	20
122	20
123	10
125	10
126	50
127	10
137	60
138	50
139	359
140	50
142	10
143	10
149	10
150	50
151	20
152	10
161	30
162	80
163	699
164	599
165	5879
166	2519
167	299
168	20
174	30
175	30
176	50
177	10
178	10
192	20
193	149
194	9999
195	1549
196	139
197	10
