Mass Spectrum: Phenol, 2,3,5,6-tetrachloro-4-methoxy-
Formula: C7 H4 Cl4 O2
CAS: 484-67-3
Molecular weight: 260
Origin: Div. of Experiment Therapeutics WRAIR, WRAMC, Washington DC 20307
m/z	RELATIVE INTENSITY
41	20
43	39
47	143
48	85
49	161
50	6
52	81
53	123
55	33
56	6
59	119
60	236
61	176
62	60
63	125
65	107
66	62
67	29
71	89
72	48
73	92
74	30
75	22
76	45
77	67
78	8
80	18
82	6
83	257
84	175
85	102
86	62
87	2179
88	78
89	709
90	34
91	21
94	104
95	343
96	214
97	193
98	75
99	44
106	41
107	136
108	38
109	99
110	6
111	311
112	40
113	102
118	323
119	130
120	208
121	79
122	51
123	49
124	50
125	28
126	19
130	237
131	196
132	165
133	161
134	41
135	53
141	51
142	20
143	50
145	6
147	312
148	20
149	228
151	38
153	361
154	118
155	352
156	108
157	120
158	52
159	42
160	41
161	46
162	51
163	31
164	22
165	186
166	40
167	430
168	49
169	298
170	16
171	83
173	7
175	48
177	17
181	680
182	67
183	672
184	65
185	202
186	20
187	27
188	47
189	48
190	65
191	55
192	32
193	22
194	33
195	32
196	61
197	90
198	44
199	75
200	12
201	188
202	12
203	234
204	10
205	116
207	21
209	1027
210	230
211	1014
212	220
213	312
214	78
215	38
216	46
217	1588
218	130
219	2039
220	129
221	982
222	51
223	203
224	15
225	97
226	136
227	66
228	129
229	32
230	46
231	20
232	10
233	12
242	8
243	12
245	7837
246	796
247	9999
248	958
249	4860
250	437
251	1003
252	95
253	96
257	12
258	6
259	138
260	4471
261	712
262	5577
263	755
264	2676
265	326
266	553
267	65
268	46
