Mass Spectrum: 3-Pyridinol, 6-methyl-, acetate (ester)
Formula: C8 H9 N O2
CAS: 4842-89-1
Molecular weight: 151
Origin: T.COHEN UNIV. OF PITTSBURGH, PITTSBURGH, PENNSYLVANIA, USA
m/z	RELATIVE INTENSITY
27	1860
39	780
43	7250
50	560
51	840
52	780
53	1780
54	670
80	2780
81	890
108	860
109	9999
110	1190
151	2170
