Mass Spectrum: Bicyclo[3.3.1]non-2-en-9-one
Formula: C9 H12 O
CAS: 4844-11-5
Molecular weight: 136
m/z	RELATIVE INTENSITY
38	198
39	2209
40	372
41	1814
50	209
51	791
52	419
53	1012
54	802
55	1012
65	791
66	1395
67	4511
68	1977
69	209
70	221
77	1604
78	791
79	6860
80	4837
81	407
82	186
91	1000
92	419
93	5255
94	616
95	419
105	221
107	407
108	1977
109	198
117	198
118	198
121	209
136	9999
137	1000
