Mass Spectrum: Cinchonidine
Formula: C19 H22 N2 O
CAS: 485-71-2
Molecular weight: 294
Origin: Japan AIST/NIMC Database- Spectrum MS-NW-7035
m/z	RELATIVE INTENSITY
15	50
18	20
26	30
27	369
28	279
29	249
30	90
31	20
37	10
38	20
39	569
40	90
41	1089
42	1089
43	129
44	129
50	109
51	289
52	159
53	589
54	359
55	619
56	239
57	70
58	20
62	40
63	129
64	40
65	209
66	119
67	379
68	229
69	149
70	80
71	10
74	99
75	289
76	149
77	829
78	159
79	599
80	309
81	959
82	379
83	30
84	40
85	10
86	10
87	40
88	30
89	80
90	30
91	169
92	50
93	149
94	259
95	329
96	70
97	10
98	20
99	20
100	40
101	419
102	319
103	439
104	80
105	99
106	99
107	99
108	179
109	50
110	60
111	20
113	30
114	40
115	229
116	90
117	80
118	30
119	20
120	60
121	40
122	50
123	20
124	40
125	10
126	40
127	119
128	529
129	429
130	1519
131	189
132	30
133	10
134	99
135	60
136	9999
137	1079
138	129
139	60
140	80
141	50
142	239
143	289
144	90
145	30
152	50
153	50
154	219
155	70
156	189
157	80
158	359
159	599
160	99
161	10
165	20
166	149
167	249
168	199
169	129
170	129
171	60
172	60
173	20
178	20
179	30
180	70
181	80
182	70
183	109
184	99
185	40
186	20
189	30
190	10
191	20
192	40
193	30
194	40
195	50
196	40
197	40
198	10
199	20
201	10
204	30
205	30
206	30
207	30
208	20
209	30
210	20
211	20
212	10
213	20
217	20
218	40
219	30
220	30
221	30
222	20
223	20
227	20
233	20
234	20
235	30
236	20
237	20
238	20
239	30
253	30
254	10
263	20
264	10
275	30
276	40
277	50
278	50
279	20
292	20
293	50
294	80
295	30
