Mass Spectrum: Binapacryl
Formula: C15 H18 N2 O6
CAS: 485-31-4
Molecular weight: 322
Origin: NIST Mass Spectrometry Data Center, 1998.
m/z	RELATIVE INTENSITY
26	10
27	240
28	50
29	580
30	50
37	10
38	30
39	550
40	60
41	110
42	30
43	40
50	60
51	140
52	70
53	490
54	150
55	2510
56	130
57	20
61	10
62	40
63	140
64	60
65	90
66	30
67	90
68	20
69	20
74	20
75	50
76	50
77	180
78	70
79	40
80	20
81	10
82	230
83	9999
84	830
85	60
86	10
87	10
88	10
89	170
90	60
91	110
92	20
93	10
100	10
101	20
102	40
103	80
104	30
105	30
106	10
107	10
115	60
116	40
117	90
118	50
119	20
120	10
127	10
128	10
129	10
130	20
131	30
132	10
133	10
134	10
135	10
144	10
145	20
146	10
147	30
148	10
150	10
158	10
159	10
160	10
161	10
163	40
164	10
175	10
176	10
177	20
193	10
205	10
207	10
210	10
211	20
230	10
231	10
