Mass Spectrum: Cytisine
Formula: C11 H14 N2 O
CAS: 485-35-8
Molecular weight: 190
Origin: R.E.Ardrey ET AL.Pharmaceutical Mass Spectra,L.,1985
m/z	RELATIVE INTENSITY
26	200
27	1702
28	20
29	400
30	901
37	100
38	601
39	4904
40	601
41	4604
42	3003
43	2002
44	9999
45	300
50	300
51	1101
52	801
53	1401
54	601
55	300
56	300
58	500
63	500
64	400
65	1101
66	801
67	601
68	1401
69	200
70	400
75	100
76	100
77	1001
78	701
79	601
80	701
81	400
82	1501
83	200
89	200
90	200
91	601
92	400
93	1301
94	400
95	300
96	200
102	100
103	300
104	701
105	300
106	300
107	100
108	200
109	1702
110	200
115	200
116	100
117	1601
118	901
119	300
120	400
121	300
122	500
123	200
130	400
131	400
132	601
133	901
134	2702
135	500
136	100
142	100
145	300
146	7707
147	6206
148	2803
149	400
158	100
159	400
160	2202
161	500
162	400
163	300
190	4104
191	701
