Mass Spectrum: 2-(Methylsulphonyl)propane
Formula: C4 H10 O2 S
CAS: 4853-74-1
Molecular weight: 122
Origin: Japan AIST/NIMC Database- Spectrum MS-IW-8099
m/z	RELATIVE INTENSITY
15	449
26	80
27	2789
28	159
29	70
31	119
32	20
33	10
34	20
37	50
38	129
39	1299
40	199
41	7729
42	889
43	9999
44	539
45	119
46	60
47	90
48	119
49	30
50	60
57	50
58	10
59	50
63	1049
64	189
65	1049
66	20
67	50
75	20
76	10
79	279
80	1939
81	5229
82	199
83	259
90	20
107	189
121	40
122	10
123	869
124	40
125	30
