Mass Spectrum: 2-Chlorobenzimidazole
Formula: C7 H5 Cl N2
CAS: 4857-06-1
Molecular weight: 152
Origin: James Little,Eastman Chem.Co.,Kingsport,TN
m/z	RELATIVE INTENSITY
27	70
28	70
37	220
38	340
39	400
40	90
47	170
50	180
51	220
52	360
61	160
62	390
63	841
64	791
65	210
75	100
76	420
77	160
78	110
87	70
88	150
89	190
90	1782
91	530
105	150
116	671
117	821
118	80
125	390
126	50
127	130
151	140
152	9999
153	981
154	3323
155	300
