Mass Spectrum: 2H-Quinolizine-1-methanol, octahydro-, (1R-trans)-
Formula: C10 H19 N O
CAS: 486-70-4
Molecular weight: 169
Origin: NB-266
m/z	RELATIVE INTENSITY
26	500
27	4400
28	4700
29	3200
30	1500
31	4300
32	300
37	100
38	200
39	3400
40	600
41	6399
42	3200
43	1300
44	1100
45	100
50	100
51	400
52	400
53	1500
54	2500
55	6099
56	2100
57	1300
58	300
63	100
64	100
65	400
66	300
67	1500
68	1500
69	1100
70	700
71	100
77	300
78	200
79	400
80	1000
81	900
82	3700
83	9999
84	2900
85	300
91	200
92	100
93	300
94	600
95	400
96	4000
97	5799
98	3000
99	300
105	100
106	200
107	100
108	600
109	400
110	4400
111	3800
112	400
113	700
114	100
117	100
118	100
120	200
121	100
122	600
123	200
124	2300
125	800
126	400
127	800
128	300
134	300
135	100
136	1600
137	500
138	7099
139	1700
140	700
141	300
150	500
151	300
152	9499
153	1200
154	300
166	100
167	200
168	3900
169	4800
170	600
171	100
