Mass Spectrum: Captodiamine
Formula: C21 H29 N S2
CAS: 486-17-9
Molecular weight: 359
Origin: MI-0088
m/z	RELATIVE INTENSITY
41	190
42	340
43	90
44	290
45	390
56	190
57	190
58	9999
59	390
71	190
72	190
73	741
74	90
104	90
152	140
153	90
163	40
164	90
165	1141
166	791
167	340
168	90
197	190
198	140
199	440
200	90
255	991
256	290
257	90
286	140
287	90
359	891
360	340
361	140
