Mass Spectrum: Triprolidine
Formula: C19 H22 N2
CAS: 486-12-4
Molecular weight: 278
Origin: NIST Mass Spectrometry Data Center, 1998.
m/z	RELATIVE INTENSITY
15	20
26	10
27	130
28	40
29	90
30	60
38	10
39	220
40	40
41	390
42	670
43	100
44	10
50	60
51	270
52	140
53	110
54	140
55	510
56	100
57	20
58	10
62	40
63	180
64	50
65	200
66	30
67	30
68	110
69	80
70	220
72	10
74	30
75	70
76	100
77	260
78	490
79	240
80	130
81	30
82	100
83	440
84	1050
85	60
86	20
87	40
88	70
89	350
90	250
91	260
92	90
93	540
94	80
95	20
96	1220
98	30
99	20
100	10
103	510
105	240
106	140
107	20
108	30
110	150
113	50
114	60
115	560
116	320
117	1050
118	780
119	130
120	50
121	10
123	10
124	70
125	30
126	80
127	260
128	450
129	280
130	230
131	260
132	90
133	70
134	10
137	20
138	70
139	210
140	140
141	150
142	80
143	90
144	150
145	190
146	40
147	20
149	10
150	50
151	140
152	320
153	140
154	140
155	50
156	60
157	120
158	100
159	100
160	40
161	10
162	10
163	100
164	120
165	380
166	250
167	800
168	180
169	30
170	80
171	40
172	200
173	510
174	80
175	20
176	80
177	90
178	270
179	180
180	1040
181	1480
182	690
183	470
184	130
185	150
186	180
187	130
188	20
189	30
190	200
191	990
192	1330
193	2510
194	2110
195	330
196	1070
197	170
198	80
199	30
200	1310
201	210
202	40
203	60
204	580
205	410
206	2020
207	2780
208	9999
209	7589
210	1160
211	90
212	10
216	10
217	30
218	80
219	150
220	280
221	1260
222	370
223	70
224	10
230	10
231	20
232	60
233	50
234	100
235	130
236	30
237	10
244	10
245	10
246	10
247	70
248	40
249	70
250	20
260	20
261	20
262	30
263	70
264	10
271	10
272	20
273	10
274	20
275	70
276	250
277	350
278	3250
279	700
280	70
