Mass Spectrum: 3-Octanol, acetate
Formula: C10 H20 O2
CAS: 4864-61-3
Molecular weight: 172
Origin: N.W. Davies, Centr. Sci. Lab., Univ. Tasmania, Hobart, Australia
m/z	RELATIVE INTENSITY
21	120
26	40
27	650
28	10
29	730
30	150
31	300
32	10
33	30
34	260
36	10
39	350
40	620
41	1500
42	450
43	9999
44	550
45	270
53	230
55	1350
56	1120
57	870
58	380
59	270
60	120
61	230
67	70
68	100
69	620
70	1370
71	310
72	80
73	190
83	860
84	210
85	40
93	70
97	210
101	790
112	980
113	120
116	100
129	40
143	220
