Mass Spectrum: 1H-Indole-3-carboxaldehyde
Formula: C9 H7 N O
CAS: 487-89-8
Molecular weight: 145
Origin: Japan AIST/NIMC Database- Spectrum MS-NW-2247
m/z	RELATIVE INTENSITY
17	6
18	37
26	20
27	40
28	29
29	70
37	99
38	149
39	429
40	50
41	30
43	30
44	20
45	10
49	40
50	179
51	179
52	99
53	20
56	10
57	109
58	569
59	50
60	10
61	139
62	419
63	799
64	189
65	90
66	20
71	20
72	269
73	30
74	99
75	80
76	60
77	30
78	20
84	10
85	50
86	99
87	149
88	239
89	2119
90	529
91	40
98	10
99	10
101	10
102	10
114	99
115	249
116	2569
117	399
118	20
142	10
143	109
144	9999
145	9139
146	899
147	60
