Mass Spectrum: Lumazine
Formula: C6 H4 N4 O2
CAS: 487-21-8
Molecular weight: 164
Origin: Japan AIST/NIMC Database- Spectrum MS-NW-1868
m/z	RELATIVE INTENSITY
12	30
13	20
14	20
16	10
18	10
24	20
25	40
26	379
27	259
28	889
29	109
30	10
32	50
33	99
36	20
37	20
38	779
39	1219
40	809
41	519
42	149
43	239
44	219
45	90
46	90
47	80
50	60
51	329
52	519
53	1119
54	289
55	99
56	30
57	129
60	30
64	129
65	589
66	4409
67	1199
68	99
69	319
70	549
71	80
73	30
74	10
76	30
77	159
78	129
79	30
80	10
81	80
82	30
83	60
84	20
85	50
91	30
92	149
93	5679
94	539
95	50
96	20
97	60
98	20
99	20
105	119
106	10
107	20
108	20
109	80
110	20
111	40
112	10
113	10
118	30
119	10
120	179
121	5909
122	509
123	30
125	20
127	10
129	10
135	10
136	10
137	10
139	10
141	10
146	60
149	10
164	9999
165	829
166	70
