Mass Spectrum: 9H-Pyrido[3,4-b]indol-7-ol, 1-methyl-
Formula: C12 H10 N2 O
CAS: 487-03-6
Molecular weight: 198
Origin: Japan AIST/NIMC Database- Spectrum MS-NW-6605
m/z	RELATIVE INTENSITY
15	10
26	20
27	70
28	60
29	10
39	129
40	30
41	40
42	50
43	20
44	20
45	20
49	10
50	119
51	219
52	109
53	60
54	20
55	30
56	10
57	60
58	50
61	50
62	139
63	249
64	80
65	70
66	20
67	10
68	20
69	20
70	139
71	60
72	50
73	20
74	149
75	239
76	149
77	149
78	40
79	20
80	10
81	10
82	10
83	10
84	149
85	189
86	60
87	70
88	80
89	169
90	90
91	30
92	10
93	10
94	10
97	10
98	50
99	669
100	99
101	159
102	149
103	50
104	40
105	30
106	10
111	10
112	10
113	60
114	99
115	289
116	119
117	60
118	40
119	20
120	10
122	10
125	20
126	40
127	119
128	139
129	90
130	80
131	40
132	10
133	10
134	10
138	10
139	20
140	149
141	129
142	149
143	99
144	119
145	80
146	70
147	10
148	10
149	30
150	10
151	10
152	99
153	70
154	119
155	70
156	129
157	80
158	20
165	10
166	20
167	60
168	119
169	649
170	989
171	469
172	70
173	10
179	50
180	30
181	90
182	60
183	60
184	10
195	80
196	109
197	1979
198	9999
199	1409
200	119
201	10
