Mass Spectrum: Bufotenine
Formula: C12 H16 N2 O
CAS: 487-93-4
Molecular weight: 204
Origin: Dr. P.K. Shah, NYC Police Laboratory, NY
m/z	RELATIVE INTENSITY
39	60
42	290
43	70
44	70
51	80
52	50
53	40
56	50
57	110
58	9999
59	380
63	90
65	120
77	130
78	50
89	120
90	80
91	160
102	40
103	70
105	40
115	60
116	40
117	180
118	100
128	40
130	90
131	60
145	50
146	410
147	50
158	50
159	200
160	130
204	370
205	60
