Mass Spectrum: Salacetamide
Formula: C9 H9 N O3
CAS: 487-48-9
Molecular weight: 179
Origin: NIST Mass Spectrometry Data Center, 1998.
m/z	RELATIVE INTENSITY
15	70
27	70
28	130
31	40
32	70
37	110
38	370
41	100
42	270
43	1700
45	40
46	40
51	140
52	230
53	330
54	60
55	60
61	130
62	340
63	1250
64	1260
65	990
66	160
67	40
70	50
74	120
76	100
77	60
81	60
89	30
90	150
92	4950
93	450
94	80
102	100
119	310
120	9999
121	2070
122	180
136	50
137	6439
138	540
139	50
161	180
178	70
179	1460
