Mass Spectrum: Flavanone
Formula: C15 H12 O2
CAS: 487-26-3
Molecular weight: 224
Origin: Japan AIST/NIMC Database- Spectrum MS-NW-9381
m/z	RELATIVE INTENSITY
18	10
26	20
27	129
28	109
37	30
38	189
39	569
40	30
41	20
42	10
43	20
50	329
51	679
52	189
53	139
55	20
61	20
62	149
63	909
64	1069
65	609
66	60
69	10
70	10
74	119
75	149
76	309
77	1339
78	1079
79	80
82	40
83	30
86	10
87	20
88	20
89	229
90	149
91	629
92	3419
93	519
94	70
97	20
98	20
101	40
102	289
103	1619
104	3869
105	469
106	20
112	50
115	40
118	129
119	90
120	9269
121	1749
122	139
123	10
126	10
127	20
128	20
129	10
131	379
132	30
133	20
139	30
141	10
146	569
147	4739
148	489
149	40
150	10
151	30
152	129
153	30
163	10
164	10
165	149
166	40
167	80
168	30
176	40
177	60
178	139
179	90
180	10
181	129
182	20
194	30
195	169
196	109
197	20
205	119
206	109
207	759
208	129
209	20
221	10
222	70
223	5329
224	9999
225	1599
226	169
227	10
