Mass Spectrum: .alpha.-Bromophenylacetic acid
Formula: C8 H7 Br O2
CAS: 4870-65-9
Molecular weight: 214
Origin: Japan AIST/NIMC Database- Spectrum MS-NW-4864
m/z	RELATIVE INTENSITY
12	10
16	10
17	10
18	30
26	50
27	109
28	149
29	109
36	40
37	50
38	169
39	559
40	99
41	70
43	40
44	459
45	109
49	30
50	209
51	469
52	129
53	80
54	10
55	50
56	20
59	10
60	10
61	60
62	199
63	609
64	279
65	299
66	30
67	10
68	20
69	20
73	50
74	40
75	40
76	40
77	1189
78	329
79	2779
80	549
81	129
82	539
83	30
84	10
85	20
86	30
87	30
88	30
89	1409
90	2259
91	1739
92	279
93	20
94	30
99	10
102	20
103	30
104	40
105	499
106	279
107	2069
108	189
109	10
110	10
117	10
118	999
119	99
120	10
121	10
122	10
127	10
128	20
130	10
132	10
133	20
134	70
135	9999
136	1219
137	129
138	10
163	10
165	70
166	10
167	20
169	699
170	60
171	669
172	60
196	10
198	10
214	349
215	30
216	349
217	40
