Mass Spectrum: Diethyl 4-methylphenyl phosphate
Formula: C11 H17 O4 P
CAS: 4877-08-1
Molecular weight: 244
Origin: ASES Database, Dalian Institute, P.R. China
m/z	RELATIVE INTENSITY
77	2402
81	2232
91	2822
99	1901
107	4333
108	9999
109	1621
118	6916
119	1010
127	1201
155	1111
188	2091
201	1090
216	2111
229	490
244	6225
