Mass Spectrum: 2-Cyclopenten-1-one, 3-methyl-2-(2-pentenyl)-, (Z)-
Formula: C11 H16 O
CAS: 488-10-8
Molecular weight: 164
Origin: Japan AIST/NIMC Database- Spectrum MS-NW-8624
m/z	RELATIVE INTENSITY
15	60
17	10
18	40
26	99
27	2039
28	389
29	1439
30	30
31	20
32	10
37	30
38	179
39	3309
40	679
41	4379
42	289
43	1159
44	40
45	40
46	20
50	389
51	1379
52	839
53	2649
54	419
55	5059
56	299
57	179
58	70
59	20
60	20
61	20
62	129
63	559
64	189
65	1949
66	1119
67	3659
68	619
69	399
70	30
71	50
72	10
73	30
74	90
75	99
76	80
77	4079
78	1009
79	8389
80	1489
81	4219
82	1509
83	169
84	10
85	10
86	20
87	20
88	10
89	139
90	70
91	5089
92	789
93	5709
94	1329
95	1919
96	339
97	119
98	20
99	20
101	20
102	60
103	389
104	179
105	2129
106	419
107	3979
108	929
109	4349
110	7579
111	629
112	40
113	10
114	10
115	349
116	199
117	489
118	119
119	479
120	289
121	2779
122	6469
123	1259
124	119
125	10
127	30
128	70
129	119
130	80
131	2839
132	339
133	379
134	169
135	5979
136	1719
137	169
138	20
139	10
140	10
141	10
142	10
143	10
144	10
145	289
146	499
147	469
148	80
149	7019
150	779
151	60
160	10
161	20
162	20
163	299
164	9999
165	1399
166	109
