Mass Spectrum: Mucobromic acid
Formula: C4 H2 Br2 O3
CAS: 488-11-9
Molecular weight: 256
Origin: NIST Mass Spectrometry Data Center, 1994
m/z	RELATIVE INTENSITY
12	168
13	69
14	86
16	104
17	107
18	84
24	735
25	1197
26	1141
27	69
28	828
29	3454
30	108
32	55
36	420
37	669
38	50
40	134
41	201
42	142
43	50
44	1100
45	563
46	33
52	1126
53	1606
54	234
66	26
67	28
69	949
70	55
75	25
79	1328
80	610
81	1476
82	557
83	22
91	267
92	84
93	334
94	57
95	85
97	119
103	954
104	1873
105	2388
106	1882
107	1490
108	35
109	41
115	50
116	109
117	63
118	141
119	49
120	74
121	159
122	63
123	99
129	24
131	6275
132	545
133	9999
134	728
135	3571
136	129
147	335
149	989
151	654
152	31
158	82
159	244
160	192
161	247
162	102
172	22
173	41
175	26
177	8759
178	385
179	8630
180	379
181	22
182	552
183	748
184	1092
185	1411
186	556
187	691
188	47
199	46
201	66
203	43
210	1189
211	240
212	2379
213	479
214	1451
215	207
216	173
227	89
228	29
229	189
230	37
231	97
239	235
241	437
243	229
255	296
256	1469
257	549
258	2892
259	344
260	1340
261	62
