Mass Spectrum: Elsholtzia ketone
Formula: C10 H14 O2
CAS: 488-05-1
Molecular weight: 166
Origin: Mark Whitten, Florida Museum of Natural History, U. of Florida
m/z	RELATIVE INTENSITY
41	1739
42	291
43	628
44	31
45	17
50	385
51	763
52	731
53	1932
54	313
55	270
56	305
57	221
58	13
59	12
62	34
63	65
65	451
66	133
67	220
68	37
69	332
70	24
71	12
74	17
75	17
77	154
78	50
79	86
81	560
82	837
83	90
84	15
85	20
91	57
93	40
94	28
95	226
96	26
103	16
105	78
106	25
107	86
109	9999
110	719
111	90
115	11
118	17
119	11
121	22
122	19
124	4748
125	382
126	33
133	43
135	20
137	22
149	15
151	1200
152	127
166	637
167	78
