Mass Spectrum: 3-Furancarboxylic acid
Formula: C5 H4 O3
CAS: 488-93-7
Molecular weight: 112
Origin: NIST Mass Spectrometry Data Center, 2010
m/z	RELATIVE INTENSITY
14	10
17	10
24	10
25	50
26	80
27	100
28	120
29	550
30	10
31	20
33	10
36	110
37	701
38	1171
39	2432
40	140
41	70
42	100
43	10
44	60
45	781
46	10
47	110
49	50
50	130
51	140
52	30
53	190
54	30
55	571
56	120
58	30
60	10
64	10
65	50
66	410
67	641
68	100
69	360
70	10
77	10
78	10
83	60
84	220
85	10
86	20
93	10
95	9418
96	510
97	80
105	10
112	9999
113	561
114	80
