Mass Spectrum: Ribitol
Formula: C5 H12 O5
CAS: 488-81-3
Molecular weight: 152
Origin: RADIAN CORP
m/z	RELATIVE INTENSITY
15	200
17	50
18	150
19	410
26	50
27	410
28	900
29	1150
30	150
31	1850
32	110
33	10
38	10
39	140
40	40
41	350
42	740
43	4000
44	2690
45	2150
46	160
47	160
49	40
51	20
53	70
54	120
55	1400
56	3920
57	1520
58	190
59	260
60	1580
61	9140
62	500
63	110
67	100
68	90
69	460
70	150
71	610
72	440
73	6360
74	9999
75	640
76	70
77	30
79	60
80	30
81	190
82	90
83	190
84	120
85	1050
86	210
87	110
88	180
89	120
90	190
91	4930
92	240
93	110
94	20
95	100
96	80
97	180
98	110
99	70
100	60
101	150
102	100
103	4840
104	310
105	70
107	20
109	60
110	40
111	80
112	50
113	40
115	50
116	40
117	10
119	40
121	160
123	50
124	20
125	30
127	50
128	20
129	110
131	160
133	20
134	10
135	20
136	30
137	40
143	20
149	160
