Mass Spectrum: 2-Hydroxy-3,5,5-trimethyl-cyclohex-2-enone
Formula: C9 H14 O2
CAS: 4883-60-7
Molecular weight: 154
Origin: NIST Mass Spectrometry Data Center
m/z	RELATIVE INTENSITY
27	360
29	540
39	1431
41	2402
42	771
43	2082
51	310
53	751
55	2953
56	510
57	1351
59	601
65	360
66	290
67	781
69	2282
70	9999
71	891
77	651
79	410
81	250
83	2132
84	671
85	731
91	400
93	791
94	400
95	420
97	791
98	4384
99	561
107	200
108	571
110	160
111	2632
112	2212
113	170
121	941
125	1171
126	1201
127	150
136	100
139	3133
140	300
154	6196
155	500
156	60
