Mass Spectrum: 1-Cyclopentylcyclopentene
Formula: C10 H16
CAS: 4884-21-3
Molecular weight: 136
Origin: NIST Mass Spectrometry Data Center, 1990.
m/z	RELATIVE INTENSITY
15	215
26	247
27	1997
28	1253
29	880
39	4231
40	880
41	4431
42	670
50	439
51	1132
52	617
53	1394
54	412
55	674
62	140
63	481
65	1787
66	3664
67	9999
68	4118
69	924
77	3155
78	1060
79	7461
80	1585
81	746
82	301
91	2792
92	461
93	3878
94	3104
95	7144
96	478
103	176
105	321
107	2115
108	1132
121	1312
136	3826
137	395
