Mass Spectrum: [1,1'-Bicyclopentyl]-2-one
Formula: C10 H16 O
CAS: 4884-24-6
Molecular weight: 152
Origin: NIST Mass Spectrometry Data Center, 1990.
m/z	RELATIVE INTENSITY
26	138
27	818
28	601
29	350
32	62
39	1837
40	433
41	2093
42	482
43	143
50	127
51	325
52	212
53	981
54	997
55	1371
56	366
57	68
63	108
65	466
66	434
67	3401
68	868
69	298
77	380
78	133
79	721
80	197
81	890
82	297
83	2430
84	9999
85	1028
86	63
91	252
92	85
93	356
94	63
95	512
96	130
108	63
109	173
123	96
152	389
