Mass Spectrum: .alpha.,.alpha.-Dichloromethyl methyl ether
Formula: C2 H4 Cl2 O
CAS: 4885-02-3
Molecular weight: 114
Origin: Chuck Anderson, Aldrich Chemical Co.
m/z	RELATIVE INTENSITY
13	73
14	199
15	2654
16	51
18	3
28	150
29	2278
30	76
31	149
32	17
35	362
36	119
37	114
38	16
43	60
44	51
47	271
48	553
49	370
50	265
51	1183
52	16
53	331
60	14
63	459
65	155
78	35
79	9999
80	223
81	3229
82	92
83	1603
84	17
85	1017
87	154
113	76
115	36
