Mass Spectrum: Cyclopentane, 1,2-dimethyl-3-(1-methylethyl)-
Formula: C10 H20
CAS: 489-20-3
Molecular weight: 140
Origin: D.HENNEBERG, MAX-PLANCK INSTITUTE, MULHEIM, WEST GERMANY
m/z	RELATIVE INTENSITY
24	8
25	12
26	28
27	973
28	72
29	982
30	31
31	23
32	10
33	3
35	21
36	9
37	39
38	33
39	909
40	147
41	3050
42	692
43	1824
44	53
45	6
46	10
47	9
48	4
49	24
50	29
51	108
52	52
53	434
54	204
55	9999
56	2908
57	724
58	30
61	3
62	5
63	18
64	6
65	99
66	45
67	366
68	226
69	3462
70	2313
71	371
72	14
74	3
75	5
76	3
77	104
78	19
79	118
80	32
81	2164
82	239
83	1043
84	563
85	118
86	5
88	5
91	33
92	2
93	16
94	16
95	158
96	3202
97	6419
98	570
99	25
109	6
110	14
111	253
112	89
113	3
123	7
125	250
126	24
140	274
141	29
