Mass Spectrum: (-)-Globulol
Formula: C15 H26 O
CAS: 489-41-8
Molecular weight: 222
Origin: NIST Mass Spectrometry Data Center, 2010
m/z	RELATIVE INTENSITY
27	601
29	1001
38	50
39	2042
40	430
41	6856
42	601
43	9999
45	350
51	510
52	300
53	2392
54	410
55	5355
56	490
57	1001
58	581
59	310
60	40
63	210
65	1661
66	661
67	6966
68	921
69	8458
70	781
71	2983
72	250
73	270
74	40
76	120
77	3693
78	941
79	6095
80	1331
81	7827
82	3773
83	2572
84	550
85	951
86	150
87	60
89	110
90	50
91	5335
92	1001
93	6996
94	1842
95	5635
96	2152
97	1141
98	1311
99	240
103	460
104	190
105	6786
106	1782
107	8788
108	4444
109	8538
110	1001
111	2112
112	250
115	470
116	210
117	801
119	4844
120	1501
121	6556
122	6166
123	3013
124	831
125	2993
126	581
127	220
131	490
132	200
133	3803
134	1361
135	3783
136	1531
137	741
138	330
139	360
141	40
142	60
145	320
146	160
147	3183
148	2562
149	1922
150	390
151	300
153	50
158	20
160	190
161	6386
162	1672
163	691
164	290
165	450
166	120
167	50
168	20
175	981
176	340
177	140
178	90
179	571
180	100
189	3393
190	540
204	3073
205	611
207	651
208	110
222	350
223	90
