Mass Spectrum: 1,5-Hexadiene, 3,4-dimethyl-
Formula: C8 H14
CAS: 4894-63-7
Molecular weight: 110
Origin: D.HENNEBERG, MAX-PLANCK INSTITUTE, MULHEIM, WEST GERMANY
m/z	RELATIVE INTENSITY
25	17
26	86
27	1125
28	134
29	1800
30	28
32	28
35	38
38	62
39	1162
40	127
41	818
42	30
43	36
45	34
50	90
51	222
52	69
53	720
54	1034
55	9999
56	1114
57	71
58	17
62	32
63	47
64	8
65	106
66	80
67	558
68	690
69	181
77	127
78	10
79	170
80	140
81	1458
82	372
83	43
84	25
91	34
93	30
95	1073
96	86
98	21
109	12
110	23
