Mass Spectrum: Cyclohexanol, 5-methyl-2-(1-methylethyl)-, (1.alpha.,2.beta.,5.beta.)-
Formula: C10 H20 O
CAS: 490-99-3
Molecular weight: 156
m/z	RELATIVE INTENSITY
15	80
18	160
26	60
27	821
28	340
29	821
30	50
31	360
39	1481
40	260
41	4524
42	701
43	3243
44	380
45	240
51	200
52	110
53	901
54	430
55	4314
56	2022
57	2562
58	280
59	150
65	220
66	140
67	2572
68	1481
69	3383
70	1351
71	9999
72	581
73	140
77	320
78	70
79	500
80	711
81	6286
82	3173
83	1211
84	340
85	911
86	440
87	60
91	180
93	300
94	490
95	7237
96	2162
97	450
98	70
99	400
100	90
109	941
110	581
111	220
112	540
113	210
123	2702
124	280
125	60
137	60
138	2432
139	430
141	70
154	80
