Mass Spectrum: 3,4-Pyridinedicarboxylic acid
Formula: C7 H5 N O4
CAS: 490-11-9
Molecular weight: 167
Origin: Japan AIST/NIMC Database- Spectrum MS-NW-9143
m/z	RELATIVE INTENSITY
12	10
17	89
18	729
24	10
25	50
26	199
27	149
28	799
29	90
32	20
35	20
36	269
37	229
38	509
39	1199
40	159
41	90
42	40
43	40
44	1389
45	759
46	30
48	60
49	609
50	5239
51	2579
52	1379
53	439
54	40
55	60
56	10
57	40
60	20
61	30
62	20
63	20
64	40
65	189
66	839
67	649
68	139
69	40
70	20
71	30
73	10
74	30
75	289
76	739
77	3299
78	3589
79	369
80	20
81	20
82	10
83	30
84	10
85	10
90	10
92	10
93	769
94	1759
95	209
96	30
97	20
98	10
99	10
104	439
105	7019
106	2859
107	199
108	10
109	10
111	10
120	20
121	309
122	399
123	9999
124	729
125	70
127	10
148	20
149	1959
150	719
151	70
154	10
167	1439
168	149
169	20
