Mass Spectrum: Naphthalene, 1-methyl-7-(1-methylethyl)-
Formula: C14 H16
CAS: 490-65-3
Molecular weight: 184
Origin: Japan AIST/NIMC Database- Spectrum MS-NW-8415
m/z	RELATIVE INTENSITY
15	20
18	20
27	99
28	20
29	10
38	10
39	219
40	10
41	259
42	10
43	20
50	80
51	209
52	40
53	30
55	10
57	80
58	10
61	10
62	70
63	299
64	139
65	109
69	129
70	99
71	30
74	80
75	129
76	309
77	439
78	159
79	10
81	70
82	239
83	229
84	279
85	40
86	40
87	80
88	50
89	179
90	30
91	119
92	90
98	30
99	20
100	10
101	30
102	80
103	20
105	10
110	10
111	10
113	70
114	40
115	889
116	99
117	10
125	10
126	90
127	209
128	709
129	389
130	40
137	20
138	20
139	439
140	109
141	1369
142	469
143	139
144	10
150	60
151	199
152	979
153	1419
154	2519
155	609
156	70
157	10
162	10
163	80
164	90
165	569
166	169
167	579
168	359
169	9999
170	1439
171	99
179	10
181	20
182	40
183	119
184	5789
185	889
186	60
