Mass Spectrum: Amiphenazole
Formula: C9 H9 N3 S
CAS: 490-55-1
Molecular weight: 191
Origin: Japan AIST/NIMC Database- Spectrum MS-NW-6383
m/z	RELATIVE INTENSITY
26	30
27	99
28	139
29	10
32	20
34	10
36	40
37	50
38	99
39	299
40	40
41	50
42	209
43	909
44	659
45	249
46	30
47	20
49	20
50	199
51	619
52	129
53	50
54	20
55	10
57	20
58	10
59	20
60	99
61	189
62	149
63	279
64	80
65	209
66	30
68	189
69	209
70	139
71	139
72	50
73	30
74	70
75	70
76	129
77	1149
78	399
83	10
84	30
85	20
86	40
87	60
88	189
89	299
90	229
91	699
92	119
93	80
94	60
95	139
96	30
97	10
100	10
102	20
103	60
104	1319
105	489
106	40
108	10
113	20
114	40
115	50
116	259
117	689
118	199
119	199
120	109
121	2769
122	1269
123	249
124	70
129	40
130	20
131	159
132	129
133	20
135	10
136	10
137	10
141	10
142	40
143	10
146	159
147	109
148	339
149	1629
150	199
151	109
152	10
157	30
158	139
159	809
160	99
161	10
162	20
163	289
164	219
165	50
166	10
173	10
174	169
175	30
176	20
189	50
190	859
191	9999
192	1159
193	529
194	70
