Mass Spectrum: Naphthalene, 1-methoxy-4-nitro-
Formula: C11 H9 N O3
CAS: 4900-63-4
Molecular weight: 203
Origin: Japan AIST/NIMC Database- Spectrum MS-NW-9615
m/z	RELATIVE INTENSITY
15	20
27	10
28	90
30	139
38	30
39	90
41	10
43	40
50	139
51	139
52	40
53	30
55	20
57	40
59	10
61	30
62	189
63	339
64	109
65	30
71	40
73	10
74	209
75	229
76	249
77	139
78	40
79	10
80	40
85	30
86	119
87	199
88	519
89	99
90	50
91	159
92	30
93	10
96	179
97	10
98	60
99	50
100	50
101	149
102	409
103	70
104	179
105	50
106	10
109	10
110	20
111	20
112	10
113	519
114	2429
115	599
116	169
117	209
118	99
119	90
120	40
121	10
122	20
125	60
126	329
127	1319
128	569
129	179
130	659
131	80
132	329
133	90
134	10
140	10
141	30
142	1009
143	199
144	339
145	779
146	229
147	119
148	50
149	10
155	90
156	50
157	1329
158	389
159	70
160	499
161	70
162	20
171	10
172	119
173	1249
174	189
175	329
176	30
185	40
186	20
187	179
188	219
189	20
202	30
203	9999
204	1269
205	129
206	10
