Mass Spectrum: Phenol, 2,3,4,5-tetrachloro-
Formula: C6 H2 Cl4 O
CAS: 4901-51-3
Molecular weight: 230
Origin: Japan AIST/NIMC Database- Spectrum MS-NW-6752
m/z	RELATIVE INTENSITY
12	40
14	30
16	20
17	80
18	90
24	40
25	50
26	30
27	10
28	40
29	189
31	10
32	10
35	269
36	419
37	369
38	109
39	20
40	20
41	20
42	20
43	20
44	70
45	10
47	269
48	529
49	309
50	70
51	20
52	20
53	209
54	30
55	20
56	10
57	30
59	60
60	609
61	1649
62	569
63	90
64	20
65	549
66	419
67	109
68	10
69	10
70	10
71	359
72	399
73	399
74	129
75	80
76	40
77	50
78	20
79	20
80	90
81	50
82	40
83	679
84	459
85	359
86	80
87	449
88	40
89	189
90	119
91	20
92	10
94	60
95	389
96	1609
97	1119
98	759
99	369
100	109
101	30
102	30
103	10
105	10
106	209
107	779
108	309
109	499
110	99
111	99
112	10
113	20
115	199
116	249
117	169
118	169
119	99
120	99
121	40
122	20
123	30
124	129
125	90
126	50
127	30
128	10
129	10
130	149
131	3469
132	359
133	2259
134	219
135	419
136	40
141	159
142	60
143	199
144	50
145	80
146	20
147	40
149	20
151	10
152	10
153	10
157	10
158	10
159	70
160	179
161	60
162	119
163	20
164	40
165	50
166	1699
167	1159
168	1679
169	1099
170	589
171	369
172	90
173	50
174	10
176	10
177	10
178	30
179	10
180	30
181	10
182	10
183	10
184	10
185	10
186	20
187	10
189	10
190	10
191	10
192	10
193	10
194	2119
195	209
196	2089
197	189
198	779
199	70
200	129
201	299
202	40
203	369
204	50
205	179
206	20
207	50
208	10
209	10
211	10
229	30
230	8109
231	579
232	9999
233	729
234	4779
235	369
236	1069
237	80
238	109
239	10
