Mass Spectrum: Diaziridine,3,3-dimethyl-
Formula: C3 H8 N2
CAS: 4901-76-2
Molecular weight: 72
Origin: A.Pleshkova, Nesmeyanov Inst.Org.Elem.Cpds, Moscow
m/z	RELATIVE INTENSITY
27	3103
28	4504
29	1501
30	6105
31	4674
32	9999
33	500
39	3003
40	1101
41	6406
42	5755
43	1251
44	450
45	420
46	40
54	3013
55	1702
56	530
57	2322
58	230
71	250
72	2012
73	210
74	50
