Mass Spectrum: Diaziridine, 3-ethyl-3-methyl-
Formula: C4 H10 N2
CAS: 4901-75-1
Molecular weight: 86
Origin: A.Pleshkova, Nesmeyanov Inst.Org.Elem.Cpds, Moscow
m/z	RELATIVE INTENSITY
29	3103
30	1752
31	1501
32	150
39	2052
40	1301
41	5605
42	9999
43	2002
44	1902
45	180
53	490
54	3503
55	1702
56	1351
57	3803
58	450
68	2052
69	1101
70	701
71	1501
72	150
85	1051
86	100
87	10
