Mass Spectrum: Methanamine, 1,1-bis(2,2-dimethylpropoxy)-N,N-dimethyl-
Formula: C13 H29 N O2
CAS: 4909-78-8
Molecular weight: 231
Origin: NIST Mass Spectrometry Data Center, 2010
m/z	RELATIVE INTENSITY
27	150
29	430
30	90
31	80
39	260
40	70
41	941
42	440
43	2813
44	681
45	330
46	280
53	100
54	30
55	711
56	250
57	661
58	180
60	10
70	110
71	7577
72	631
73	430
74	9999
75	360
76	30
86	50
87	40
90	50
100	70
101	20
114	10
117	260
118	20
128	40
144	3083
145	280
146	10
187	731
188	100
189	10
231	10
