Mass Spectrum: Quinoline, 4-methyl-
Formula: C10 H9 N
CAS: 491-35-0
Molecular weight: 143
Origin: Japan AIST/NIMC Database- Spectrum MS-NW-3763
m/z	RELATIVE INTENSITY
26	30
27	90
28	30
37	50
38	90
39	349
40	30
41	30
43	10
49	20
50	249
51	339
52	90
53	30
55	20
56	10
57	159
58	169
59	10
61	60
62	159
63	379
64	119
65	169
66	20
70	119
71	149
72	20
73	20
74	149
75	249
76	159
77	359
78	80
85	20
86	50
87	80
88	99
89	439
90	209
91	60
92	10
93	10
98	20
99	20
100	30
101	179
102	109
103	70
104	339
105	30
113	90
114	139
115	1949
116	709
117	419
118	40
127	20
128	229
129	20
140	129
141	139
142	1589
143	9999
144	1129
145	60
