Mass Spectrum: 4(1H)-Quinazolinone
Formula: C8 H6 N2 O
CAS: 491-36-1
Molecular weight: 146
Origin: NIST Mass Spectrometry Data Center, 1994
m/z	RELATIVE INTENSITY
14	12
26	82
28	1152
29	73
37	433
38	562
39	732
40	143
41	133
44	65
45	32
49	126
50	914
51	310
52	369
53	200
59	247
60	40
61	315
62	559
63	1624
64	1596
65	333
66	50
67	35
73	243
74	400
75	348
76	628
77	126
78	48
86	32
87	68
88	107
89	32
90	1823
91	1975
92	1690
93	102
102	135
103	132
104	77
117	935
118	3020
119	1885
120	154
121	35
129	43
145	3929
146	9999
147	986
148	72
