Mass Spectrum: 2-Cyclohexen-1-one, 3-methyl-6-(1-methylethylidene)-
Formula: C10 H14 O
CAS: 491-09-8
Molecular weight: 150
Origin: NIST Mass Spectrometry Data Center
m/z	RELATIVE INTENSITY
26	50
27	721
28	190
29	300
31	10
37	70
38	300
39	3653
40	591
41	2332
42	300
43	400
44	20
45	40
49	30
50	540
51	1391
52	601
53	2032
54	921
55	921
61	100
62	240
63	711
64	170
65	1471
66	651
67	1762
68	190
69	571
70	120
74	170
75	140
76	90
77	2392
78	591
79	3203
80	741
81	550
82	1912
83	831
85	20
86	50
87	60
89	190
90	100
91	4064
92	480
93	961
94	561
95	971
96	220
98	20
102	100
103	370
104	90
105	1752
106	280
107	9999
108	2052
109	2913
110	290
115	721
116	230
117	540
118	80
119	200
120	90
121	1611
122	1251
123	190
134	50
135	4014
136	380
149	711
150	9919
151	1101
152	80
