Mass Spectrum: 1H-Pyrrole, 4-ethyl-2,3-dimethyl-
Formula: C8 H13 N
CAS: 491-18-9
Molecular weight: 123
Origin: Philip Morris R&D
m/z	RELATIVE INTENSITY
36	30
38	50
39	347
40	87
41	445
42	297
43	22
47	136
50	78
51	197
52	214
53	486
54	251
55	109
59	220
60	79
61	296
62	27
63	54
64	23
65	299
66	121
67	1012
68	104
77	382
78	103
79	429
80	147
81	326
82	35
91	137
92	117
93	425
94	354
95	90
104	44
105	57
106	722
107	1027
108	9999
109	804
110	30
118	57
120	241
121	98
122	1520
123	4900
124	427
