Mass Spectrum: 4H-1-Benzopyran-4-one, 2,3-dihydro-
Formula: C9 H8 O2
CAS: 491-37-2
Molecular weight: 148
Origin: Japan AIST/NIMC Database- Spectrum MS-IW- 684
m/z	RELATIVE INTENSITY
14	10
15	30
26	60
27	259
28	30
29	30
31	10
37	99
38	319
39	409
40	30
41	30
42	30
43	60
44	10
45	60
46	30
49	30
50	389
51	219
52	30
53	199
54	10
55	149
59	80
60	30
61	80
62	249
63	1129
64	1379
65	449
66	80
68	10
69	10
73	30
74	199
75	149
76	239
77	159
78	40
79	20
86	10
87	189
88	10
89	99
90	70
91	279
92	5069
93	429
94	139
95	10
103	10
104	40
105	30
107	40
108	10
118	40
119	50
120	9999
121	899
122	80
131	10
133	20
146	10
147	80
148	8929
149	939
150	80
