Mass Spectrum: Benzenamine, N,N,3,5-tetramethyl-
Formula: C10 H15 N
CAS: 4913-13-7
Molecular weight: 149
Origin: NIST Mass Spectrometry Data Center, 1994
m/z	RELATIVE INTENSITY
15	1668
16	28
26	98
27	945
28	382
29	126
30	90
37	44
38	214
39	1441
40	210
41	468
42	1399
43	168
44	385
50	370
51	1008
52	380
53	438
54	106
55	102
56	42
59	144
60	62
61	89
62	211
63	634
64	252
65	798
66	42
67	707
68	75
69	22
72	43
73	133
74	450
75	400
76	210
77	1647
78	600
79	1033
80	140
81	31
82	15
86	42
87	50
89	291
91	1687
92	270
93	134
94	67
95	13
98	18
99	11
101	23
102	161
103	620
104	309
105	1245
106	406
107	299
108	132
109	12
115	56
116	164
117	309
118	578
119	379
120	347
121	143
122	63
129	23
130	115
132	939
133	1212
134	1145
135	124
136	12
144	13
146	134
148	9999
149	6590
150	669
151	36
