Mass Spectrum: 2-Pentene, 3,4-dimethyl-, (Z)-
Formula: C7 H14
CAS: 4914-91-4
Molecular weight: 98
Origin: Japan AIST/NIMC Database- Spectrum MS-NW-3705
m/z	RELATIVE INTENSITY
14	10
15	149
26	99
27	1569
28	149
29	1099
30	20
36	20
37	40
38	99
39	1609
40	249
41	4569
42	419
43	1939
44	70
45	30
49	20
50	179
51	289
52	129
53	689
54	229
55	9999
56	1009
57	139
61	10
62	30
63	50
65	149
66	70
67	729
68	119
69	1199
70	459
71	129
72	10
74	10
77	99
78	20
79	119
80	20
81	249
82	139
83	9439
84	659
85	30
95	10
96	10
97	50
98	3559
99	319
100	10
