Mass Spectrum: 3-Hexene, 3-methyl-, (Z)-
Formula: C7 H14
CAS: 4914-89-0
Molecular weight: 98
Origin: NIST Mass Spectrometry Data Center, 1990.
m/z	RELATIVE INTENSITY
15	529
26	243
27	2223
28	297
29	1272
38	341
39	3586
40	791
41	8071
42	658
43	567
50	348
51	672
52	258
53	1400
55	7087
56	1919
57	116
63	214
65	390
66	171
67	1188
69	9999
70	1403
77	231
79	259
81	260
83	1470
98	3434
99	264
