Mass Spectrum: Benzeneacetic acid, 4-ethoxy-
Formula: C10 H12 O3
CAS: 4919-33-9
Molecular weight: 180
Origin: Japan AIST/NIMC Database- Spectrum MS-NW-6615
m/z	RELATIVE INTENSITY
14	50
15	40
16	30
17	10
18	30
26	99
27	529
28	79
29	469
30	20
31	10
37	30
38	70
39	399
40	50
41	60
42	20
43	80
44	139
45	169
49	10
50	259
51	609
52	329
53	259
54	30
55	109
57	10
60	10
61	30
62	99
63	289
64	90
65	119
66	40
67	40
68	10
69	20
73	20
74	50
75	40
76	60
77	1289
78	619
79	359
80	50
81	60
82	10
84	10
85	20
86	20
87	20
88	10
89	259
90	189
91	159
92	40
93	20
94	20
95	50
96	10
101	10
102	10
103	20
104	20
105	209
106	219
107	9999
108	869
109	179
110	20
111	10
115	10
117	20
118	10
119	40
120	20
121	649
122	80
123	50
124	10
128	10
131	20
133	169
134	159
135	4129
136	459
137	50
149	10
150	30
151	30
152	389
153	40
154	10
161	10
162	279
163	50
164	10
165	20
178	10
179	20
180	3749
181	459
182	60
