Mass Spectrum: Benzeneacetic acid, .alpha.-methyl-
Formula: C9 H10 O2
CAS: 492-37-5
Molecular weight: 150
Origin: Japan AIST/NIMC Database- Spectrum MS-NW-4702
m/z	RELATIVE INTENSITY
15	20
17	10
18	30
26	30
27	419
28	129
29	30
37	30
38	80
39	399
40	30
41	50
43	99
44	50
45	139
49	30
50	309
51	859
52	219
53	139
54	10
55	20
60	10
61	30
62	90
63	259
64	60
65	169
66	30
67	10
73	20
74	109
75	90
76	99
77	1749
78	699
79	1449
80	99
81	10
86	10
87	30
89	119
90	50
91	769
92	60
93	10
94	20
95	10
98	10
101	20
102	149
103	1089
104	689
105	9999
106	1059
107	109
108	10
115	10
116	10
118	10
120	10
121	10
122	10
131	10
132	199
133	20
134	10
135	20
148	20
150	1989
151	209
152	20
