Mass Spectrum: .alpha.-D-Glucose
Formula: C6 H12 O6
CAS: 492-62-6
Molecular weight: 180
Origin: W.E. FRANKLIN, SOUTH. REG. RES. CENT., NEW ORLEANS, LA., USA
m/z	RELATIVE INTENSITY
15	780
17	215
18	611
26	330
27	994
28	440
29	2938
30	631
31	3916
32	220
39	533
41	800
42	1869
43	5003
44	1961
45	1902
47	578
54	176
55	1353
56	1639
57	2442
58	500
60	8261
61	6031
62	86
69	935
70	339
71	2960
72	1494
73	9999
74	1478
84	34
85	1476
89	210
91	754
97	313
101	214
103	1285
130	34
131	104
