Mass Spectrum: .alpha.-Furil
Formula: C10 H6 O4
CAS: 492-94-4
Molecular weight: 190
Origin: Japan AIST/NIMC Database- Spectrum MS-NW-2322
m/z	RELATIVE INTENSITY
14	20
16	10
26	20
27	20
28	30
29	80
36	10
37	139
38	369
39	1639
40	50
41	40
44	60
49	20
50	40
51	129
52	10
53	70
62	10
63	10
65	10
66	40
67	239
68	20
77	20
78	30
79	10
95	9999
96	549
97	60
105	20
109	20
158	10
162	109
163	10
190	729
191	90
192	10
