Mass Spectrum: Cathine
Formula: C9 H13 N O
CAS: 492-39-7
Molecular weight: 151
Origin: Virginia Division of Forensic Science
m/z	RELATIVE INTENSITY
41	30
42	210
43	120
44	9999
45	300
50	110
51	310
52	80
53	60
59	20
62	20
63	70
65	50
74	40
75	20
76	30
77	840
78	200
79	540
80	40
89	50
90	30
91	110
105	190
106	50
107	180
108	20
115	30
117	90
118	80
119	20
