Mass Spectrum: Thioxanthone
Formula: C13 H8 O S
CAS: 492-22-8
Molecular weight: 212
Origin: Japan AIST/NIMC Database- Spectrum MS-NW-6865
m/z	RELATIVE INTENSITY
17	20
18	99
26	10
27	20
28	30
37	30
38	70
39	159
44	20
45	109
49	20
50	259
51	109
52	10
53	20
57	20
58	99
59	10
60	10
61	60
62	119
63	299
64	50
65	50
66	30
69	549
70	50
71	30
73	30
74	189
75	199
76	199
77	70
78	30
79	529
80	30
81	70
82	219
83	20
84	20
85	20
86	40
87	70
88	30
89	99
90	20
91	249
92	789
93	109
94	10
95	10
97	10
98	40
99	30
100	10
101	30
102	20
104	10
105	70
106	289
107	50
108	399
109	60
110	40
111	20
113	109
114	109
115	99
116	10
117	20
119	10
121	10
122	10
125	20
126	50
127	20
132	10
133	10
134	60
135	20
136	70
137	50
138	119
139	1129
140	209
141	20
145	40
149	10
150	90
151	159
152	639
153	90
156	10
157	20
158	139
159	20
160	10
180	40
181	10
182	149
183	509
184	3949
185	579
186	219
187	30
211	119
212	9999
213	1509
214	579
215	70
216	10
