Mass Spectrum: 1,2-Cyclohexanedione dioxime
Formula: C6 H10 N2 O2
CAS: 492-99-9
Molecular weight: 142
Origin: Japan AIST/NIMC Database- Spectrum MS-NW-1947
m/z	RELATIVE INTENSITY
13	20
14	50
15	479
16	70
17	149
18	699
25	20
26	599
27	3089
28	2449
29	1769
30	1189
31	369
32	30
33	10
36	10
37	269
38	549
39	4009
40	1279
41	9999
42	1989
43	819
44	1039
45	179
46	80
48	40
49	50
50	319
51	719
52	1539
53	3179
54	4629
55	4789
56	709
57	779
58	159
59	80
60	50
61	30
62	70
63	179
64	319
65	1259
66	2259
67	7239
68	2649
69	619
70	1139
71	119
72	60
73	10
74	30
75	50
76	70
77	609
78	349
79	1189
80	2669
81	809
82	809
83	319
84	309
85	60
86	10
87	10
88	10
90	50
91	70
92	649
93	899
94	1819
95	1879
96	569
97	789
98	239
99	40
104	30
105	739
106	189
107	2999
108	619
109	1589
110	359
111	349
112	40
113	30
118	10
120	20
121	20
122	119
123	179
124	339
125	1889
126	1059
127	109
128	40
136	20
138	20
140	299
141	269
142	6869
143	569
144	50
