Mass Spectrum: Benzaldehyde, 3-ethoxy-2-hydroxy-
Formula: C9 H10 O3
CAS: 492-88-6
Molecular weight: 166
Origin: Japan AIST/NIMC Database- Spectrum MS-IW-4358
m/z	RELATIVE INTENSITY
15	10
25	10
26	119
27	709
28	249
29	639
30	10
31	20
37	30
38	90
39	389
40	30
41	30
42	20
43	99
44	10
45	30
49	20
50	179
51	349
52	309
53	589
54	90
55	479
56	10
57	10
61	20
62	80
63	429
64	469
65	349
66	80
67	20
68	20
69	20
74	30
75	159
76	80
77	70
78	10
79	149
80	149
81	1069
82	189
83	10
85	10
91	149
92	1679
93	339
94	80
95	50
100	10
104	20
105	10
106	10
107	209
108	229
109	1229
110	529
111	40
119	80
120	2359
121	399
122	399
123	149
124	10
133	10
135	10
136	529
137	9669
138	9999
139	829
140	90
147	20
148	80
149	40
151	279
152	30
165	50
166	8089
167	889
168	90
