Mass Spectrum: Benzene, 1-ethyl-3-(1-methylethyl)-
Formula: C11 H16
CAS: 4920-99-4
Molecular weight: 148
Origin: Philip Morris R&D
m/z	RELATIVE INTENSITY
36	14
37	2
38	63
39	450
40	42
41	486
42	21
43	115
44	7
45	2
49	9
50	147
51	386
52	103
53	160
55	58
57	25
58	113
59	129
60	10
61	7
62	67
63	214
64	192
65	336
66	61
67	41
71	4
72	7
74	64
75	103
76	53
77	853
78	275
79	652
80	40
84	13
87	33
88	12
89	173
90	44
91	2005
92	158
93	52
94	2
101	18
102	103
103	451
104	217
105	4105
106	377
107	25
115	556
116	226
117	734
118	165
119	2162
120	243
121	12
127	46
128	150
129	83
130	23
131	201
132	52
133	9999
134	1167
135	81
139	1
147	76
148	3445
149	445
