Mass Spectrum: Cyclohexane, 1-ethyl-2-methyl-, trans-
Formula: C9 H18
CAS: 4923-78-8
Molecular weight: 126
Origin: NIST Mass Spectrometry Data Center, 1990.
m/z	RELATIVE INTENSITY
15	96
16	24
26	123
27	1356
28	357
29	1448
30	26
38	134
39	1587
40	330
41	3248
42	917
43	847
44	28
50	93
51	201
52	104
53	601
54	28
55	8362
56	1390
57	340
63	46
64	32
65	159
66	90
67	601
68	401
69	2133
70	554
71	79
77	108
78	43
79	135
80	32
81	563
82	94
83	259
84	177
91	60
93	29
97	9999
98	942
99	43
111	202
126	1475
127	183
