Mass Spectrum: Cyclohexane, 1-ethyl-2-methyl-, cis-
Formula: C9 H18
CAS: 4923-77-7
Molecular weight: 126
Origin: SHELL OIL CO., HOUSTON, TEXAS, USA
m/z	RELATIVE INTENSITY
40	465
41	4951
42	1560
43	1363
44	47
45	7
46	7
47	3
48	1
49	6
50	127
51	325
52	156
53	896
54	606
55	9689
56	1984
57	434
58	18
60	1
61	7
62	27
63	75
64	17
65	170
66	83
67	686
68	466
69	2136
70	789
71	129
72	6
73	2
74	9
75	7
76	4
77	161
78	40
79	141
80	31
81	357
82	134
83	572
84	324
85	44
86	3
87	3
88	1
89	7
90	3
91	68
92	15
93	19
94	6
95	77
96	1181
97	9999
98	838
99	32
100	1
102	1
103	1
104	1
105	4
106	1
107	1
108	1
109	7
110	4
111	206
112	21
113	1
115	1
119	1
120	1
121	1
122	1
123	1
124	2
125	13
126	583
127	59
128	3
