Mass Spectrum: Azetidine, 1-methyl-
Formula: C4 H9 N
CAS: 4923-79-9
Molecular weight: 71
Origin: R. G. KOSTYANOVSKY
m/z	RELATIVE INTENSITY
27	1500
28	9999
29	1600
30	7500
31	1200
39	800
40	500
41	2000
42	6600
43	4000
44	1300
45	500
55	200
56	3600
57	300
70	1000
71	3000
72	300
