Mass Spectrum: 9-Oxabicyclo[6.1.0]nonane, cis-
Formula: C8 H14 O
CAS: 4925-71-7
Molecular weight: 126
Origin: Japan AIST/NIMC Database- Spectrum MS-NW-8689
m/z	RELATIVE INTENSITY
15	99
18	10
26	119
27	1829
28	509
29	2119
30	60
31	179
37	30
38	99
39	2149
40	369
41	6879
42	2659
43	1679
44	479
45	129
50	70
51	159
52	70
53	669
54	3409
55	9999
56	2589
57	4439
58	729
59	199
60	10
62	10
63	30
65	169
66	179
67	5319
68	929
69	1689
70	1419
71	909
72	1119
73	50
74	10
77	159
78	60
79	759
80	509
81	749
82	1379
83	2829
84	1349
85	309
86	20
91	99
92	10
93	589
94	60
95	219
96	40
97	1919
98	1479
99	149
100	10
105	10
107	40
108	50
109	80
110	20
111	629
112	50
125	90
126	199
127	30
