Mass Spectrum: Cyclohexane, 1-ethyl-4-methyl-, cis-
Formula: C9 H18
CAS: 4926-78-7
Molecular weight: 126
Origin: NIST Mass Spectrometry Data Center, 1990.
m/z	RELATIVE INTENSITY
14	128
15	87
16	48
27	1328
28	126
29	1406
30	34
37	19
39	2302
40	480
41	3802
42	789
43	661
44	51
50	133
51	367
52	170
53	1185
54	1245
55	9999
56	1328
57	275
63	87
65	326
66	147
67	1108
68	450
69	2784
70	501
71	74
77	341
78	74
79	357
80	74
81	1485
82	162
83	221
84	49
91	102
93	27
96	3843
97	8923
98	714
99	23
111	144
126	2028
127	195
