Mass Spectrum: Bicyclo[3.2.0]hept-6-ene
Formula: C7 H10
CAS: 4927-03-1
Molecular weight: 94
Origin: A.G. HARRISON, UNIV. OF TORONTO, TORONTO 5, ONTARIO, CANADA
m/z	RELATIVE INTENSITY
27	854
39	1962
41	759
53	696
65	791
66	1835
77	2627
79	9999
91	1994
92	475
93	1487
94	1203
