Mass Spectrum: 1,2-Ethanediamine, N,N-dimethyl-N'-phenyl-N'-(2-thienylmethyl)-
Formula: C15 H20 N2 S
CAS: 493-78-7
Molecular weight: 260
Origin: Finnigan MAT: Toxicological Library (LIBR-TX)
m/z	RELATIVE INTENSITY
45	332
51	589
53	567
58	9999
59	345
70	148
73	162
77	1298
91	193
97	7749
98	498
99	340
104	625
105	383
111	65
117	39
118	35
128	9
130	32
154	6
159	5
161	93
167	5
168	6
186	181
187	154
188	71
202	1576
203	198
204	77
212	10
213	17
214	5
252	1
260	328
261	32
