Mass Spectrum: 1,4-Benzodioxin, 2,3-dihydro-
Formula: C8 H8 O2
CAS: 493-09-4
Molecular weight: 136
Origin: Japan AIST/NIMC Database- Spectrum MS-NW-7388
m/z	RELATIVE INTENSITY
15	20
18	10
25	20
26	409
27	359
28	80
29	119
30	10
31	20
32	10
36	10
37	119
38	279
39	259
40	40
41	10
42	40
43	149
44	10
48	10
49	80
50	899
51	1119
52	4089
53	379
54	169
55	90
59	10
60	40
61	70
62	159
63	589
64	429
65	239
66	30
67	10
68	179
69	10
73	30
74	169
75	109
76	189
77	299
78	99
79	159
80	8169
81	759
82	80
85	10
86	10
90	10
91	20
92	119
93	40
94	10
105	10
107	149
108	1569
109	239
110	349
111	30
121	1619
122	149
123	20
134	10
135	159
136	9999
137	889
138	80
