Mass Spectrum: Benzo(b)thiophene-2,3-dione
Formula: C8 H4 O2 S
CAS: 493-57-2
Molecular weight: 164
Origin: Humboldt-Universitat zu Berlin, Department of Chemistry, Analytical Group
m/z	RELATIVE INTENSITY
12	133
13	41
14	44
15	228
16	48
17	60
18	206
24	35
25	133
26	438
27	155
28	527
29	133
30	10
31	82
32	542
33	79
34	41
35	13
36	209
37	1304
38	1497
39	1240
40	60
41	70
42	10
44	362
45	1136
46	51
47	60
48	86
49	501
50	1694
51	365
53	514
54	837
56	168
57	476
58	1396
59	98
60	362
61	695
62	812
63	1681
64	384
65	79
66	41
68	647
69	5367
70	286
71	260
72	63
73	371
74	933
75	504
76	1021
77	171
78	32
80	98
81	1006
82	2290
83	178
84	219
85	63
86	32
87	13
92	698
93	469
94	44
95	29
101	10
104	127
105	108
106	92
108	6395
109	539
110	314
111	29
117	22
119	13
120	13
136	9999
137	872
138	546
139	51
164	631
165	82
166	44
