Mass Spectrum: 2H-1-Benzopyran, 3,4-dihydro-
Formula: C9 H10 O
CAS: 493-08-3
Molecular weight: 134
Origin: ORMSBG,10(11)992(1975); H. BUDZIKIEWICZ
m/z	RELATIVE INTENSITY
41	100
42	100
50	600
51	1500
52	700
53	200
55	200
58	100
61	100
62	200
63	600
64	100
65	500
66	400
67	200
74	300
75	200
76	200
77	1700
78	4100
79	800
89	400
90	400
91	2400
92	300
94	300
102	100
103	500
104	200
105	1400
106	2200
107	900
108	100
115	1200
116	400
117	600
118	100
119	2700
120	300
131	800
132	400
133	3400
134	9999
135	1100
136	100
