Mass Spectrum: Prolintane
Formula: C15 H23 N
CAS: 493-92-5
Molecular weight: 217
Origin: Finnigan MAT: Toxicological Library (LIBR-TX)
m/z	RELATIVE INTENSITY
41	295
42	288
43	115
54	91
55	317
65	96
68	92
69	287
70	511
84	92
91	490
96	206
97	204
126	9999
127	813
174	485
