Mass Spectrum: Naphthalene, decahydro-, trans-
Formula: C10 H18
CAS: 493-02-7
Molecular weight: 138
Origin: NIST Mass Spectrometry Data Center, 1990.
m/z	RELATIVE INTENSITY
15	159
26	185
27	2205
28	640
29	1741
30	26
37	31
39	3457
40	705
41	6157
42	675
43	417
44	25
45	23
50	163
51	548
52	344
53	1756
54	1962
55	3356
56	299
57	96
58	21
62	45
63	138
65	780
66	1264
67	9999
68	7524
69	3347
70	364
71	57
74	19
77	839
78	291
79	1452
80	793
81	6208
82	6447
83	1339
84	69
89	32
91	484
92	90
93	491
94	580
95	5479
96	6394
97	841
98	35
103	22
105	20
107	67
109	1440
110	784
111	78
115	21
121	32
123	152
138	7814
139	925
140	47
