Mass Spectrum: Methyl red
Formula: C15 H15 N3 O2
CAS: 493-52-7
Molecular weight: 269
Origin: Japan AIST/NIMC Database- Spectrum MS-NW- 428
m/z	RELATIVE INTENSITY
15	99
17	30
18	189
27	80
28	139
29	20
30	20
32	20
37	30
38	99
39	529
40	50
41	119
42	1729
43	109
44	169
45	20
50	269
51	419
52	189
53	99
54	50
55	70
56	20
57	40
60	30
61	20
62	60
63	329
64	209
65	799
66	189
67	80
68	119
69	109
70	40
71	30
73	40
74	50
75	90
76	309
77	1489
78	689
79	949
80	159
81	80
82	40
83	40
84	20
85	20
88	20
89	40
90	299
91	659
92	489
93	509
94	129
95	20
96	10
97	30
98	20
99	20
101	20
102	50
103	159
104	889
105	1539
106	239
107	70
108	70
109	10
111	129
112	40
115	40
116	30
117	80
118	449
119	769
120	9999
121	1129
122	99
123	20
125	20
126	109
127	60
128	30
129	50
130	20
131	20
132	40
133	159
134	129
135	139
136	159
137	70
139	30
140	20
141	40
142	10
145	40
146	119
147	30
148	2619
149	279
150	30
151	40
152	179
153	129
154	60
155	30
156	10
161	30
165	20
166	60
167	50
168	60
169	129
170	30
179	60
180	149
181	599
182	119
183	40
184	109
185	20
193	20
194	60
195	50
196	70
197	109
198	20
207	20
208	239
209	109
210	269
211	60
221	20
222	50
223	60
224	859
225	649
226	99
227	10
236	20
237	80
238	119
239	219
240	90
241	20
250	20
251	109
252	329
253	1519
254	289
255	60
266	30
267	20
268	109
269	5309
270	929
271	99
