Mass Spectrum: Acetic acid, (2,4,5-trichlorophenoxy)-, 2-methylpropyl ester
Formula: C12 H13 Cl3 O3
CAS: 4938-72-1
Molecular weight: 310
Origin: RADIAN CORP
m/z	RELATIVE INTENSITY
27	400
28	250
29	1740
30	70
31	90
32	60
37	30
38	40
39	590
40	90
41	4100
42	1230
43	1080
44	60
45	30
49	30
50	80
51	40
53	90
55	370
56	540
57	9999
58	480
59	50
60	20
61	140
62	290
63	130
65	30
71	130
72	120
73	260
74	530
75	160
83	120
84	200
85	130
86	70
87	70
96	100
97	560
98	60
99	190
100	10
104	20
107	230
108	250
109	670
110	140
111	290
112	10
113	40
118	10
119	40
131	40
132	90
133	80
134	60
135	30
143	500
144	330
145	750
146	550
147	330
148	260
149	70
150	30
160	30
162	50
167	290
169	290
171	90
173	50
174	10
175	50
177	40
179	590
180	70
181	630
182	60
183	270
185	50
190	50
192	30
195	120
196	990
197	170
198	920
199	100
200	290
201	20
202	30
209	920
210	190
211	820
212	180
213	280
214	50
215	30
218	70
219	700
220	110
221	430
222	40
223	70
254	640
255	60
256	610
257	60
258	190
310	480
311	70
312	450
313	60
314	150
