Mass Spectrum: 1-Hepten-3-ol
Formula: C7 H14 O
CAS: 4938-52-7
Molecular weight: 114
Origin: NIST Mass Spectrometry Data Center, 1990.
m/z	RELATIVE INTENSITY
26	182
27	1116
28	153
29	1629
30	153
31	407
38	171
39	1293
40	286
41	1816
42	365
43	1347
44	263
45	144
50	119
51	237
52	108
53	516
54	848
55	1043
56	108
57	9999
58	628
65	207
66	143
67	651
68	441
69	313
70	263
71	462
72	1734
73	106
77	113
79	234
81	1009
85	635
86	100
96	389
