Mass Spectrum: 3,4-Dimethoxytoluene
Formula: C9 H12 O2
CAS: 494-99-5
Molecular weight: 152
Origin: NIST Mass Spectrometry Data Center, 1994
m/z	RELATIVE INTENSITY
4	39
13	35
14	153
15	2176
16	41
26	220
27	639
28	240
29	464
30	92
31	282
32	51
33	62
37	181
38	586
39	3203
40	1023
41	730
42	87
43	536
45	44
47	45
49	96
50	974
51	2037
52	925
53	1650
54	178
55	563
57	50
61	179
62	404
63	1018
64	456
65	2742
66	2689
67	365
68	82
69	195
73	40
74	201
75	132
76	40
77	3721
78	1296
79	3437
80	302
81	2258
82	164
85	36
86	50
89	343
91	3971
92	375
93	441
94	1744
95	263
105	464
106	323
107	1117
108	263
109	4737
110	432
119	60
120	34
121	273
122	43
135	227
137	5070
138	472
150	43
152	9999
153	969
154	95
