Mass Spectrum: Benzofuran, 4,5,6,7-tetrahydro-3,6-dimethyl-
Formula: C10 H14 O
CAS: 494-90-6
Molecular weight: 150
m/z	RELATIVE INTENSITY
27	330
29	170
38	60
39	751
40	120
41	601
43	160
50	100
51	340
52	190
53	330
55	170
63	150
64	60
65	320
66	140
67	100
77	721
78	260
79	1301
80	240
91	490
92	60
93	170
95	200
103	70
105	240
107	160
108	9999
109	841
110	50
115	80
117	70
121	230
122	90
131	60
135	230
145	100
146	90
149	150
150	2582
151	300
