Mass Spectrum: Nornicotine
Formula: C9 H12 N2
CAS: 494-97-3
Molecular weight: 148
m/z	RELATIVE INTENSITY
15	30
16	80
17	701
22	10
26	40
27	150
28	651
29	100
30	80
31	50
37	60
38	210
39	751
40	170
41	941
42	310
43	370
45	50
47	10
49	50
50	440
51	1101
52	661
53	380
54	130
55	90
56	70
57	180
58	40
59	60
60	110
61	70
62	220
63	831
64	460
65	841
66	260
67	500
68	420
69	220
70	8047
71	410
72	30
73	70
74	70
75	160
76	180
77	400
78	941
79	490
80	2152
81	140
82	20
83	50
84	70
85	10
86	20
87	30
88	30
89	150
90	150
91	651
92	801
93	971
94	120
95	20
96	10
97	20
98	30
101	20
102	40
103	110
104	390
105	1351
106	941
107	200
108	20
110	10
114	10
115	20
116	90
117	470
118	2212
119	9999
120	3253
121	270
122	10
128	30
129	30
130	320
131	140
132	90
133	100
134	30
138	10
142	10
143	30
144	80
145	480
146	510
147	3413
148	2312
149	410
150	20
