Mass Spectrum: 2,5-Cyclohexadien-1-one, 4-(4-oxo-2,5-cyclohexadien-1-ylidene)-
Formula: C12 H8 O2
CAS: 494-72-4
Molecular weight: 184
Origin: R.W.A.OLIVER, UNIV. OF SALFORD, SALFORD, LANCASHIRE, UK
m/z	RELATIVE INTENSITY
57	400
77	600
78	500
93	600
127	500
128	900
129	500
131	600
157	1100
182	1000
183	700
184	9999
185	1400
