Mass Spectrum: 5-Undecene
Formula: C11 H22
CAS: 4941-53-1
Molecular weight: 154
Origin: CARL DJERASSI DEPT OF CHEM STANFORD UNIV STANFORD CALIF 94305
m/z	RELATIVE INTENSITY
41	4900
42	2100
43	3700
44	200
51	100
52	100
53	500
54	1200
55	9999
56	6600
57	2800
58	100
65	100
66	100
67	900
68	500
69	7100
70	5500
71	1100
72	100
77	100
79	100
81	400
82	600
83	3000
84	2800
85	600
95	100
96	200
97	2300
98	1100
99	100
110	100
111	1000
112	400
125	300
126	300
154	3300
155	400
