Mass Spectrum: Bamipine
Formula: C19 H24 N2
CAS: 4945-47-5
Molecular weight: 280
Origin: Finnigan MAT: Toxicological Library (LIBR-TX)
m/z	RELATIVE INTENSITY
42	2160
43	4351
44	2062
55	1329
65	404
70	2673
71	2876
77	1032
82	1193
91	2439
96	2545
97	9999
98	2265
99	1725
118	192
132	199
146	500
182	1385
183	399
189	386
280	394
