Mass Spectrum: 1-Butanone, 1-phenyl-
Formula: C10 H12 O
CAS: 495-40-9
Molecular weight: 148
Origin: Japan AIST/NIMC Database- Spectrum MS-NW-4058
m/z	RELATIVE INTENSITY
15	40
17	10
18	40
26	50
27	509
28	80
29	60
37	40
38	70
39	359
40	30
41	309
42	40
43	259
44	20
49	20
50	419
51	1559
52	139
53	20
55	209
59	10
61	10
62	50
63	90
64	30
65	119
66	20
69	30
70	10
71	30
73	20
74	139
75	109
76	199
77	4839
78	559
79	50
86	10
87	10
89	30
90	10
91	209
92	30
102	20
103	30
104	30
105	9999
106	859
107	60
115	50
116	10
117	10
119	149
120	1039
121	99
128	10
129	20
130	109
131	20
133	159
134	20
147	139
148	1599
149	169
150	10
