Mass Spectrum: 2,4-Hexadiyn-1-one, 1-phenyl-
Formula: C12 H8 O
CAS: 495-74-9
Molecular weight: 168
Origin: N.W. Davies, Centr. Sci. Lab., Univ. Tasmania, Hobart, Australia
m/z	RELATIVE INTENSITY
27	280
39	2050
50	1810
51	3570
57	210
61	460
62	1710
63	3490
69	120
70	840
71	110
74	770
75	600
76	490
77	3050
85	130
86	220
87	410
88	190
89	290
90	170
91	6550
92	270
98	200
105	560
113	400
114	1970
115	190
138	440
139	8970
140	9999
141	930
168	5100
169	450
