Mass Spectrum: 1,3-Cyclohexadiene, 5-(1,5-dimethyl-4-hexenyl)-2-methyl-, [S-(R*,S*)]-
Formula: C15 H24
CAS: 495-60-3
Molecular weight: 204
Origin: N.W. DAVIES, UNIVERSITY OF TASMANIA, TASMANIA, AUSTRALIA
m/z	RELATIVE INTENSITY
27	1000
29	860
39	1220
41	4410
42	360
43	500
51	330
53	770
55	1730
56	1790
57	460
65	500
67	500
69	3970
70	720
77	2620
78	490
79	760
80	210
81	360
82	250
83	230
91	2590
92	1590
93	9999
94	1000
95	410
105	1510
106	200
107	310
109	500
119	7850
120	950
121	560
132	210
133	310
161	700
204	800
