Mass Spectrum: Benzeneacetonitrile, .alpha.-methylene-
Formula: C9 H7 N
CAS: 495-10-3
Molecular weight: 129
m/z	RELATIVE INTENSITY
18	42
26	67
27	160
28	215
29	57
31	32
32	54
36	13
37	103
38	177
39	487
40	30
41	23
43	27
44	11
49	89
50	858
51	1472
52	393
53	47
55	12
59	19
60	16
61	117
62	231
63	498
64	331
65	112
68	25
69	29
70	15
72	12
73	72
74	813
75	518
76	798
77	806
78	749
79	427
80	24
85	24
86	47
87	77
88	64
89	150
90	37
91	51
97	21
98	55
99	93
100	125
101	573
102	2925
103	1194
105	96
126	23
127	137
128	2189
129	9999
130	1083
131	63
132	13
