Mass Spectrum: 1,3-Benzenediamine, 4-(phenylazo)-
Formula: C12 H12 N4
CAS: 495-54-5
Molecular weight: 212
Origin: J.E. WILKINSON S-CUBED, SAN DIEGO, CA.
m/z	RELATIVE INTENSITY
49	18
50	505
51	2359
52	1369
53	901
54	159
55	16
61	3
62	42
63	971
64	2103
65	874
66	407
67	292
68	9
69	5
73	67
74	37
75	54
76	148
77	3406
78	742
79	1073
80	2626
81	91
88	2
89	4
90	347
91	5301
92	1013
93	398
94	30
95	2
103	23
104	142
105	1492
106	240
107	7331
108	477
115	6
116	1
117	1
118	6
119	185
120	20
121	2
126	2
127	47
128	32
129	11
130	11
131	233
132	7
135	1436
136	25
139	5
140	7
141	2
142	4
143	6
144	2
145	1
153	3
154	111
155	36
156	22
157	2
158	1
159	1
165	3
166	19
167	25
168	2
169	1
170	30
171	1
181	571
182	104
183	116
184	303
185	4
193	7
194	3
195	2
208	3
209	356
210	9999
211	1355
212	4108
213	398
