Mass Spectrum: 2-Buten-1-one, 1,3-diphenyl-
Formula: C16 H14 O
CAS: 495-45-4
Molecular weight: 222
Origin: NIST Mass Spectrometry Data Center, 1994
m/z	RELATIVE INTENSITY
15	124
16	60
17	93
18	129
26	116
27	848
28	137
29	72
37	74
38	368
39	2799
40	226
41	224
44	66
50	2163
51	6464
52	866
53	240
58	89
61	60
62	480
63	1405
64	276
65	1313
66	124
67	129
70	51
74	637
75	736
76	1302
77	9046
78	1107
79	95
82	220
83	336
86	132
87	215
88	209
89	1230
90	95
91	3760
92	471
93	42
94	104
95	154
96	360
97	196
98	90
99	52
100	42
101	317
102	874
103	507
104	42
105	4167
106	351
107	69
109	44
111	252
113	108
115	7422
116	1755
117	2601
118	380
119	50
126	85
127	252
128	160
129	112
130	291
131	1722
132	149
139	98
143	866
144	610
145	2491
146	304
150	67
151	111
152	279
153	75
163	74
165	481
166	111
176	118
178	1131
179	823
180	134
181	69
188	35
189	222
190	124
191	314
192	163
193	426
194	175
195	45
202	595
203	1086
204	444
205	357
206	45
207	1175
208	224
219	82
221	9999
222	6275
223	956
224	99
