Mass Spectrum: Benzamide, N-hydroxy-
Formula: C7 H7 N O2
CAS: 495-18-1
Molecular weight: 137
Origin: NIST Mass Spectrometry Data Center, 1998.
m/z	RELATIVE INTENSITY
26	110
27	320
37	390
38	600
39	710
44	480
46	100
49	320
50	2380
51	3900
52	860
53	120
61	190
62	310
63	410
64	510
65	240
73	270
74	550
75	700
76	1670
77	9149
78	920
91	880
92	250
103	3200
104	430
105	9999
106	660
119	1320
121	1690
137	340
