Mass Spectrum: 1,4-Butanedione, 1,4-diphenyl-
Formula: C16 H14 O2
CAS: 495-71-6
Molecular weight: 238
Origin: D.HENNEBERG, MAX-PLANCK INSTITUTE, MULHEIM, WEST GERMANY
m/z	RELATIVE INTENSITY
26	3
27	52
28	7
29	3
39	20
41	4
43	3
50	29
51	522
52	24
53	6
55	259
56	15
57	8
63	7
64	4
65	36
66	3
71	3
74	7
75	13
76	95
77	3903
78	254
79	38
80	3
81	1
85	3
89	16
90	10
91	78
92	7
101	32
102	14
103	46
104	39
105	9999
106	773
107	48
108	3
110	4
115	106
116	36
117	19
118	35
119	57
120	7
127	3
131	26
132	15
133	1089
134	115
135	8
147	5
151	4
152	15
153	8
160	3
161	55
162	7
165	11
166	3
178	5
180	3
181	6
189	8
190	4
191	18
192	5
207	3
209	6
210	17
219	7
220	67
221	13
236	5
237	4
238	1480
239	270
240	26
