Mass Spectrum: Estra-1,3,5(10)-triene, 3,17-dimethoxy-, (17.beta.)-
Formula: C20 H28 O2
CAS: 4954-14-7
Molecular weight: 300
Origin: NIST Mass Spectrometry Data Center
m/z	RELATIVE INTENSITY
15	50
26	10
27	140
28	50
29	400
30	20
31	50
33	30
38	10
39	370
40	80
41	1361
42	200
43	460
45	601
46	10
50	20
51	180
52	80
53	671
54	110
55	1361
56	110
57	280
58	360
59	260
60	10
62	20
63	120
64	40
65	420
66	100
67	781
68	150
69	270
71	1021
72	180
73	30
74	10
75	30
76	80
77	841
78	350
79	781
80	100
81	540
82	110
83	170
84	20
85	140
86	50
87	20
88	20
89	210
90	70
91	1852
92	230
93	500
94	90
95	420
96	50
97	110
98	70
99	110
100	30
101	520
102	270
103	601
104	270
105	520
106	180
107	591
108	210
109	190
110	40
111	210
112	50
113	60
115	2272
116	711
117	761
118	130
119	280
120	80
121	1321
122	420
123	110
124	120
125	100
126	80
127	731
128	1611
129	1231
130	360
131	631
132	250
133	190
134	751
135	581
136	110
137	70
138	20
139	140
140	80
141	861
142	360
143	510
144	941
145	1151
146	571
147	3033
148	460
149	80
150	40
151	70
152	300
153	430
154	210
155	340
156	110
157	290
158	1351
159	2222
160	3213
161	801
162	90
163	30
164	30
165	480
166	170
167	260
168	100
169	210
170	160
171	1501
172	1551
173	3293
174	4444
175	561
176	60
177	40
178	120
179	150
180	60
181	170
182	90
183	170
184	250
185	861
186	1651
187	601
188	100
189	30
190	20
191	30
192	10
193	50
194	40
195	140
196	150
197	330
198	300
199	1031
200	581
201	180
202	40
203	1221
204	200
205	30
206	10
207	20
208	30
209	90
210	100
211	470
212	250
213	741
214	470
215	80
216	20
217	10
221	20
222	10
223	40
224	40
225	530
226	420
227	8708
228	1631
229	601
230	90
231	10
235	10
236	10
237	260
238	70
239	350
240	450
241	170
242	380
243	90
244	10
251	20
252	10
253	250
254	60
255	20
257	10
258	60
259	10
266	10
267	290
268	260
269	140
270	30
271	10
272	130
273	20
284	10
285	50
286	10
292	10
296	10
298	30
300	9999
301	2182
302	280
303	20
