Mass Spectrum: 2,6,9,11-Dodecatetraenal, 2,6,10-trimethyl-
Formula: C15 H22 O
CAS: 4955-32-2
Molecular weight: 218
m/z	RELATIVE INTENSITY
41	4404
42	200
43	1301
51	300
52	200
53	1201
54	300
55	5505
56	200
57	200
65	601
66	200
67	2102
68	500
69	1001
71	400
77	1401
78	300
79	1201
80	300
81	1301
82	500
83	500
84	801
91	1702
92	500
93	9999
94	1001
95	701
105	701
106	200
107	801
108	200
109	300
119	1101
120	1001
121	500
122	400
123	300
133	2002
134	701
135	400
145	200
146	200
147	300
148	200
149	200
159	200
160	200
161	300
162	200
175	200
185	200
190	801
203	200
218	200
