Mass Spectrum: Methane, di-p-tolyl-
Formula: C15 H16
CAS: 4957-14-6
Molecular weight: 196
Origin: Japan AIST/NIMC Database- Spectrum MS-NW- 150
m/z	RELATIVE INTENSITY
15	30
27	279
28	40
29	10
38	40
39	519
40	50
41	179
43	90
50	129
51	439
52	129
53	189
55	80
56	30
57	129
62	90
63	389
64	99
65	459
66	50
67	40
69	299
70	30
71	60
73	309
74	70
75	99
76	299
77	949
78	379
79	469
80	40
81	40
82	119
83	179
84	30
85	50
86	30
87	70
88	70
89	639
90	119
91	429
92	60
94	30
95	50
96	469
97	409
98	159
99	40
100	30
101	40
102	159
103	529
104	1369
105	1039
106	109
111	30
113	30
114	30
115	409
116	70
117	50
119	80
121	30
126	70
127	129
128	269
129	90
131	80
139	159
140	40
141	269
142	80
143	90
147	119
148	20
149	99
150	50
151	129
152	369
153	299
154	80
155	80
163	70
164	99
165	2539
166	2049
167	399
168	80
169	80
176	119
177	139
178	879
179	999
180	719
181	9999
182	1589
183	129
189	70
190	40
191	90
192	50
193	99
194	99
195	1009
196	5989
197	1029
198	90
199	10
