Mass Spectrum: 2-Methylaminomethyl-5-nitrobenzophenone
Formula: C14 H12 N2 O3
CAS: 4958-56-9
Molecular weight: 256
Origin: Japan AIST/NIMC Database- Spectrum MS-NW-8962
m/z	RELATIVE INTENSITY
27	20
28	20
30	129
39	50
41	10
42	20
43	10
50	70
51	269
52	70
53	50
54	20
55	20
57	10
58	10
62	20
63	119
64	40
65	70
66	60
67	20
68	10
69	10
71	10
74	20
75	80
76	319
77	1949
78	319
79	90
80	20
82	10
83	20
87	10
88	10
89	60
90	90
91	399
92	119
93	50
97	10
99	10
101	10
102	30
103	50
104	379
105	1929
106	179
107	20
113	30
114	20
115	119
116	20
117	20
118	20
119	50
120	40
121	20
125	10
126	30
127	50
128	99
129	30
130	10
131	119
132	99
133	839
134	80
135	10
137	10
138	10
139	149
140	90
141	109
142	20
143	10
148	10
149	50
150	179
151	159
152	309
153	179
154	80
155	40
156	10
157	10
161	70
162	80
163	40
164	80
165	429
166	229
167	359
168	99
169	30
170	30
171	10
177	169
178	189
179	1079
180	499
181	329
182	109
183	60
184	10
190	20
191	90
192	319
193	1729
194	339
195	529
196	109
197	129
198	50
207	20
208	229
209	1639
210	539
211	149
212	40
213	10
221	10
222	209
223	60
224	30
225	90
226	159
227	90
228	20
237	20
238	249
239	2169
240	479
241	189
242	70
243	10
254	40
255	6109
256	9999
257	1569
258	169
259	10
