Mass Spectrum: Bromisovalum
Formula: C6 H11 Br N2 O2
CAS: 496-67-3
Molecular weight: 222
Origin: Japan AIST/NIMC Database- Spectrum MS-IW-4282
m/z	RELATIVE INTENSITY
14	20
15	139
16	99
17	189
18	1029
21	20
26	119
27	1279
28	929
29	1499
30	129
31	30
32	10
36	20
37	80
38	209
39	1969
40	379
41	4259
42	919
43	3759
44	9949
45	379
46	80
49	10
50	80
51	129
52	109
53	499
54	449
55	4059
56	1009
57	3709
58	259
59	489
60	129
61	1499
62	30
63	10
64	30
65	30
66	139
67	90
68	279
69	1619
70	689
71	179
72	109
73	60
74	10
75	10
76	10
77	10
78	10
79	309
80	1109
81	389
82	1089
83	9999
84	889
85	379
86	129
87	2659
88	99
89	10
91	10
92	30
93	149
94	40
95	70
96	10
97	20
98	60
99	289
100	4199
101	4219
102	899
103	50
104	10
105	10
107	139
108	90
109	179
110	80
111	50
114	10
115	10
117	20
119	219
120	1009
121	369
122	1009
123	169
124	30
126	30
127	40
128	20
129	169
130	10
132	20
133	20
134	50
135	399
136	239
137	6969
138	259
139	6509
140	169
141	20
142	90
143	7179
144	539
145	60
146	10
147	119
148	10
149	109
160	10
161	10
162	60
163	139
164	349
165	129
166	289
167	10
178	10
179	30
180	9339
181	409
182	9139
183	389
184	40
189	30
207	279
208	20
209	269
210	20
223	229
224	20
225	229
226	10
