Mass Spectrum: Hygrine
Formula: C8 H15 N O
CAS: 496-49-1
Molecular weight: 141
Origin: NIST Mass Spectrometry Data Center
m/z	RELATIVE INTENSITY
26	10
27	100
28	100
29	60
30	50
37	10
38	20
39	190
40	50
41	310
42	1551
43	731
44	190
45	20
50	20
51	30
52	20
53	80
54	160
55	350
56	210
57	90
58	40
63	10
64	10
65	40
66	20
67	160
68	120
69	150
70	731
71	50
77	10
78	10
79	20
80	70
81	60
82	1051
83	230
84	9999
85	561
86	10
94	50
96	170
97	70
98	380
99	30
100	10
124	60
125	10
126	120
127	10
140	100
141	420
142	40
