Mass Spectrum: Phenol, 2,4,5-trimethyl-
Formula: C9 H12 O
CAS: 496-78-6
Molecular weight: 136
m/z	RELATIVE INTENSITY
12	10
13	10
14	40
15	300
16	10
17	10
18	10
19	30
25	10
26	190
27	971
28	190
29	320
30	20
31	40
32	10
36	10
37	100
38	320
39	1752
40	310
41	761
42	80
43	290
44	20
45	30
46	20
49	30
50	310
51	731
52	290
53	561
54	70
55	260
56	20
57	50
58	60
59	40
60	50
61	60
62	170
63	430
64	130
65	741
66	360
67	500
68	170
69	50
70	10
71	10
73	20
74	100
75	100
76	70
77	1181
78	310
79	540
80	70
81	70
82	20
83	10
84	10
85	20
86	30
87	40
89	130
90	90
91	1992
92	340
93	591
94	130
95	60
96	30
97	10
98	10
99	10
101	20
102	80
103	290
104	70
105	310
106	90
107	350
108	220
109	120
113	20
114	20
115	220
116	80
117	210
118	170
119	230
120	150
121	9999
122	871
123	60
131	30
133	90
134	150
135	2973
136	8798
137	851
138	50
