Mass Spectrum: Benzofuran-2-carboxylic acid
Formula: C9 H6 O3
CAS: 496-41-3
Molecular weight: 162
Origin: NIST Mass Spectrometry Data Center, 1998.
m/z	RELATIVE INTENSITY
25	10
26	50
27	40
29	40
36	20
37	170
38	330
39	1070
40	90
41	20
43	230
45	550
46	10
48	10
49	120
50	610
51	650
52	180
53	220
54	20
55	30
56	10
57	10
58	80
60	50
61	490
62	1450
63	2870
64	460
65	90
66	40
67	360
69	40
73	70
74	170
75	90
76	60
77	550
78	1660
79	150
80	10
81	40
84	40
85	180
86	340
87	360
88	350
89	4810
90	1470
91	110
92	40
93	20
94	10
97	10
98	10
99	10
101	70
102	10
103	10
104	10
105	410
106	240
107	20
115	10
116	120
117	60
118	320
119	40
121	10
124	10
126	10
133	40
134	810
135	80
136	10
143	10
144	30
145	3920
146	400
147	30
160	10
162	9999
163	1050
164	110
165	10
