Mass Spectrum: 5-Hydroxy-4-octanone
Formula: C8 H16 O2
CAS: 496-77-5
Molecular weight: 144
Origin: NIST Mass Spectrometry Data Center, 1994
m/z	RELATIVE INTENSITY
12	17
14	87
15	543
16	31
17	8
18	60
19	308
27	4169
28	640
29	2411
30	306
31	2181
32	33
36	16
37	53
39	1619
41	2776
42	766
43	8249
44	750
45	732
50	37
51	76
52	22
53	194
54	22
55	9999
56	546
57	610
58	155
59	32
67	18
69	76
71	2995
72	1834
73	4878
74	423
75	28
83	72
99	22
102	665
103	29
115	30
144	23
