Mass Spectrum: Glycoluril
Formula: C4 H6 N4 O2
CAS: 496-46-8
Molecular weight: 142
Origin: Japan AIST/NIMC Database- Spectrum MS-NW-8118
m/z	RELATIVE INTENSITY
12	10
13	10
14	30
15	99
16	309
26	60
27	389
28	7329
29	4319
30	299
31	30
32	10
35	10
36	70
38	30
39	30
40	109
41	249
42	999
43	3819
44	6109
45	529
46	40
52	10
53	90
54	139
55	589
56	749
57	159
58	20
59	40
60	819
61	20
65	10
67	10
68	30
69	259
70	279
71	6709
72	1219
73	50
81	10
82	20
83	99
84	229
85	30
86	1179
87	269
88	10
95	10
96	10
97	90
98	529
99	2989
100	349
101	20
103	10
111	10
112	20
113	119
114	6809
115	339
116	20
125	50
126	20
141	20
142	9999
143	689
144	60
