Mass Spectrum: Isophosphinoline, 3-methyl-
Formula: C10 H9 P
CAS: 49622-63-1
Molecular weight: 160
Origin: ORMSBG,10(7)515(1975); C. JONGSMA
m/z	RELATIVE INTENSITY
102	600
107	1400
115	6000
116	1600
120	300
126	200
127	400
128	9400
129	1300
131	400
132	200
133	2900
134	500
144	500
145	300
157	1700
158	1200
159	800
160	9999
161	1100
