Mass Spectrum: 2-Undecene, 2,5-dimethyl-
Formula: C13 H26
CAS: 49622-16-4
Molecular weight: 182
Origin: MPI,A1139-G0822,17-MAR-66 (ID=4, PURITY=4)
m/z	RELATIVE INTENSITY
24	4
25	14
26	119
27	1387
28	96
29	2238
30	48
31	11
33	4
36	5
38	38
39	1142
40	263
41	7135
42	1300
43	6688
44	162
45	4
49	5
50	22
51	73
52	52
53	684
54	237
55	3920
56	3496
57	9999
58	425
59	5
60	1
61	1
62	5
63	16
64	1
65	110
66	70
67	746
68	1793
69	7667
70	7519
71	5670
72	293
75	17
76	4
77	109
78	23
79	155
80	37
81	333
82	263
83	1489
84	863
85	236
86	7
87	2
89	1
91	45
92	4
93	29
94	7
95	143
96	189
97	1126
98	599
99	52
100	3
101	1
105	1
106	1
107	7
108	5
109	58
110	130
111	840
112	628
113	105
114	5
115	3
123	7
124	24
125	57
126	868
127	203
128	15
133	1
136	1
137	2
138	16
139	60
140	24
141	2
147	3
153	5
154	61
155	1
166	3
167	34
168	4
180	3
181	4
182	1385
183	193
184	9
