Mass Spectrum: 4-Isocyanatoacetophenone
Formula: C9 H7 N O2
CAS: 49647-20-3
Molecular weight: 161
Origin: NIST Mass Spectrometry Data Center, 1994
m/z	RELATIVE INTENSITY
13	34
14	180
15	760
18	2
25	34
26	221
27	228
28	216
29	112
37	592
38	787
39	1314
40	141
41	89
42	420
43	3486
44	147
45	212
49	155
50	835
51	645
52	394
53	118
54	64
59	164
60	47
61	397
62	791
63	1926
64	1052
65	140
67	103
73	218
74	278
75	254
76	211
77	233
78	157
80	28
86	52
87	129
88	158
89	28
90	4509
91	470
92	30
99	28
102	48
103	29
104	59
105	31
106	53
118	2769
119	261
120	26
132	90
146	9999
147	872
148	65
161	2716
162	322
