Mass Spectrum: Quinoline, 7-chloro-2-methyl-
Formula: C10 H8 Cl N
CAS: 4965-33-7
Molecular weight: 177
Origin: NIST Mass Spectrometry Data Center, 1994
m/z	RELATIVE INTENSITY
14	47
15	174
26	143
27	320
28	296
32	17
36	39
37	190
38	356
39	743
40	109
41	85
42	162
44	32
49	149
50	918
51	808
52	238
53	34
55	55
56	103
58	314
60	49
61	298
62	507
63	867
64	249
65	167
66	28
68	253
69	102
71	770
72	55
73	299
74	991
75	1346
78	28
84	88
85	187
86	292
87	391
88	28
89	645
91	30
96	22
97	130
98	284
99	804
100	420
101	321
102	193
108	30
109	86
110	139
111	113
112	125
113	498
114	640
115	2791
116	643
117	65
123	132
124	112
125	88
126	498
127	621
128	68
135	249
136	145
137	113
138	83
139	68
140	877
141	604
142	2266
143	251
149	313
150	139
151	295
152	60
153	64
162	1032
163	127
164	343
165	32
174	34
177	9999
178	1268
179	3145
180	365
