Mass Spectrum: 2-Norbornanone
Formula: C7 H10 O
CAS: 497-38-1
Molecular weight: 110
Origin: NIST Mass Spectrometry Data Center, 1990.
m/z	RELATIVE INTENSITY
15	102
26	353
27	1332
28	195
29	201
37	174
38	456
39	3619
40	740
41	2850
42	583
43	144
50	494
51	656
52	372
53	1369
54	3493
55	937
62	120
63	203
65	915
66	7623
67	9999
68	1734
69	183
77	294
79	857
81	1762
82	476
91	256
92	482
93	122
95	580
109	543
110	3728
111	292
