Mass Spectrum: Bicyclo[4.1.0]heptan-2-one, 3,7,7-trimethyl-
Formula: C10 H16 O
CAS: 497-62-1
Molecular weight: 152
Origin: ORMSBG,9(12)1173(1974); WHEELER
m/z	RELATIVE INTENSITY
39	2300
40	600
41	3300
42	400
43	600
51	400
52	200
53	1200
54	600
55	1400
56	200
65	500
66	300
67	7700
68	1500
69	700
70	900
77	400
79	700
80	200
81	1800
82	9999
83	1100
91	200
93	200
95	5100
96	600
97	300
109	1100
110	4500
111	400
124	700
137	300
152	2200
153	200
