Mass Spectrum: Carbohydrazide
Formula: C H6 N4 O
CAS: 497-18-7
Molecular weight: 90
Origin: Japan AIST/NIMC Database- Spectrum MS-NW-2999
m/z	RELATIVE INTENSITY
13	10
14	20
15	40
16	369
17	629
18	669
26	10
27	50
28	549
29	829
30	629
31	3649
32	9999
33	159
36	10
41	10
42	80
43	309
44	1019
45	30
58	60
59	229
60	50
72	30
74	359
75	10
90	829
91	20
