Mass Spectrum: 2-Methylenebicyclo[2.2.1]-heptane
Formula: C8 H12
CAS: 497-35-8
Molecular weight: 108
Origin: P. VAINIOTALO, DEPT. CHEM., UNIV. JOENSUU, JOENSUU, FINLAND
m/z	RELATIVE INTENSITY
38	160
39	1890
40	460
41	1730
42	110
50	280
51	730
52	500
53	820
54	1090
55	220
63	190
65	1030
66	8360
67	3090
68	510
77	3160
78	1320
79	9999
80	3900
81	360
91	2200
92	270
93	7000
94	540
105	190
107	510
108	5180
109	490
