Mass Spectrum: Propanal, 2,3-dihydroxy-, (S)-
Formula: C3 H6 O3
CAS: 497-09-6
Molecular weight: 90
Origin: Leung Pu, NIH, Bethesda, Maryland, U.S.
m/z	RELATIVE INTENSITY
42	1708
43	9999
44	2306
45	3180
47	1039
48	116
52	26
53	64
54	54
55	996
56	1491
57	2186
58	247
59	165
60	1506
61	4290
62	145
63	39
65	20
66	3
67	24
68	21
69	90
70	71
71	408
72	260
73	3257
74	806
75	76
76	19
89	92
90	255
91	50
