Mass Spectrum: 1,3-Dioxolane, 2-methyl-
Formula: C4 H8 O2
CAS: 497-26-7
Molecular weight: 88
Origin: P.F.DIAMOND SHELL RESEARCH LIMITED THORNTON RESEARCH CENTRE
m/z	RELATIVE INTENSITY
26	254
27	727
29	890
30	145
31	509
41	181
42	363
43	4545
44	381
45	4000
46	109
55	109
57	90
58	2200
59	145
73	9999
74	363
87	1290
88	90
