Mass Spectrum: 2(5H)-Furanone
Formula: C4 H4 O2
CAS: 497-23-4
Molecular weight: 84
Origin: Chuck Anderson, Aldrich Chemical Co.
m/z	RELATIVE INTENSITY
12	35
13	79
14	104
15	36
16	16
17	3
18	6
19	31
20	18
24	91
25	487
26	3373
27	5690
28	812
29	1981
30	259
31	26
32	2
33	12
34	9
36	130
37	566
38	690
39	1381
40	120
41	114
42	58
43	6
44	87
45	39
48	6
49	15
50	11
52	58
53	388
54	2154
55	9999
56	360
57	43
58	6
66	7
68	6
69	9
82	85
83	221
84	6909
85	327
86	49
