Mass Spectrum: 3,3-Diphenyl-5-methyl-3H-pyrazole
Formula: C16 H14 N2
CAS: 49716-26-9
Molecular weight: 234
Origin: J.T. SHARP, DEP. CHEM., EDINBURGH UNIV., EDINBURGH, UK
m/z	RELATIVE INTENSITY
128	1200
165	2500
189	2400
190	1400
191	9999
192	1600
205	2300
206	6300
207	1100
234	900
