Mass Spectrum: 2,4(3H,5H)-Furandione
Formula: C4 H4 O3
CAS: 4971-56-6
Molecular weight: 100
Origin: NIST Mass Spectrometry Data Center
m/z	RELATIVE INTENSITY
12	20
13	80
14	320
15	170
24	20
25	100
26	360
27	230
28	310
29	1081
30	340
31	30
32	10
35	40
36	30
37	90
38	90
39	90
40	80
41	561
42	9999
43	1772
44	150
45	20
53	50
56	40
68	30
69	260
70	30
71	50
72	591
100	3033
101	140
102	20
