Mass Spectrum: 2,6-Octadiene
Formula: C8 H14
CAS: 4974-27-0
Molecular weight: 110
Origin: NIST Mass Spectrometry Data Center, 1990.
m/z	RELATIVE INTENSITY
14	3
15	76
26	157
27	1607
28	414
29	1715
30	46
37	52
38	211
39	2068
40	241
41	989
42	87
43	48
44	20
49	22
50	200
51	335
52	176
53	976
54	971
55	9999
56	796
57	21
62	27
63	69
65	171
66	95
67	716
68	471
69	96
74	19
77	203
78	56
79	287
80	188
81	1782
82	218
91	94
93	57
95	971
96	71
110	255
111	20
