Mass Spectrum: Androst-5-en-3.beta.-ol, TMS derivative
Formula: C22 H38 O Si
CAS: 49774-79-0
Molecular weight: 346
Origin: STER ANDR TMSI SE30 01 0000 E M.HORN
m/z	RELATIVE INTENSITY
67	300
69	300
73	900
75	1000
79	300
81	900
83	200
91	300
93	600
94	200
95	2300
96	200
105	600
106	400
107	1800
108	400
109	1100
119	600
120	700
121	2700
122	400
123	500
129	8600
130	1300
131	900
132	200
133	700
134	500
135	3700
136	500
137	200
143	600
145	1200
146	400
147	900
148	600
149	500
155	400
159	700
160	600
161	800
162	500
163	1000
173	300
175	200
185	400
187	200
189	300
199	300
201	300
213	200
214	300
215	500
216	1800
217	9999
218	1800
219	200
227	200
228	200
241	3400
242	700
256	4500
257	1000
331	600
332	200
346	1700
347	500
