Mass Spectrum: 2-Butenedioic acid, 2-methyl-, (Z)-
Formula: C5 H6 O4
CAS: 498-23-7
Molecular weight: 130
Origin: Japan AIST/NIMC Database- Spectrum MS-NW-1804
m/z	RELATIVE INTENSITY
12	80
13	119
14	119
15	219
16	60
17	959
18	4539
19	60
20	60
24	70
25	289
26	359
27	349
28	589
29	369
30	10
31	80
32	10
33	90
34	119
36	279
37	1309
38	1919
39	9999
40	7319
41	1589
42	229
43	749
44	149
45	1029
46	70
47	10
48	30
49	50
50	40
51	30
52	60
53	529
54	30
55	159
56	90
57	80
58	50
60	20
66	109
67	379
68	7219
69	589
70	30
71	279
77	60
78	10
83	30
84	589
85	339
86	2459
87	119
88	10
96	10
112	649
113	309
114	20
130	20
131	10
