Mass Spectrum: 2-Butenedioic acid, 2-methyl-, (E)-
Formula: C5 H6 O4
CAS: 498-24-8
Molecular weight: 130
Origin: NIST Mass Spectrometry Data Center, 1994
m/z	RELATIVE INTENSITY
4	27
12	30
13	43
14	73
15	209
16	23
17	87
18	101
19	84
24	25
25	145
26	293
27	524
28	708
29	1292
30	56
31	303
32	4
33	33
34	32
36	164
37	996
38	2016
39	9241
40	2914
41	2314
42	667
43	2468
44	4
45	3770
46	152
47	37
48	22
49	55
50	61
51	16
52	82
53	535
54	62
55	509
56	383
57	210
58	30
60	19
63	38
66	346
67	1435
68	514
69	1233
70	83
71	114
73	34
77	11
84	7321
85	1002
86	99
87	32
112	9999
113	1001
114	103
