Mass Spectrum: 2-Norbornene
Formula: C7 H10
CAS: 498-66-8
Molecular weight: 94
Origin: Japan AIST/NIMC Database- Spectrum MS-NW-3601
m/z	RELATIVE INTENSITY
15	20
26	80
27	489
28	80
29	40
37	60
38	149
39	1059
40	439
41	329
42	20
45	20
49	20
50	139
51	279
52	109
53	249
54	60
55	20
61	30
62	60
63	129
64	30
65	579
66	9999
67	669
68	30
74	10
75	10
77	649
78	139
79	1039
80	60
89	10
91	309
92	30
93	169
94	809
95	60
