Mass Spectrum: Apocynin
Formula: C9 H10 O3
CAS: 498-02-2
Molecular weight: 166
Origin: NIST Mass Spectrometry Data Center
m/z	RELATIVE INTENSITY
15	420
16	10
25	10
26	40
27	100
28	50
29	130
30	20
31	70
32	20
36	10
37	60
38	130
39	320
40	50
41	220
42	110
43	1101
44	30
45	10
49	50
50	390
51	781
52	911
53	420
54	60
55	280
56	10
60	10
61	90
62	240
63	400
64	120
65	691
66	210
67	300
68	20
69	60
73	20
74	80
75	60
76	40
77	631
78	90
79	430
80	380
81	130
82	10
86	10
87	10
88	10
89	10
90	10
91	110
92	170
93	220
94	160
95	190
96	20
103	10
104	10
105	20
106	10
107	90
108	1031
109	160
110	10
119	50
120	100
121	60
122	170
123	2082
124	180
125	10
127	30
128	40
133	10
135	20
136	360
137	110
138	10
149	20
151	9999
152	851
153	90
154	10
166	4244
167	410
168	40
169	10
