Mass Spectrum: 3-Furaldehyde
Formula: C5 H4 O2
CAS: 498-60-2
Molecular weight: 96
Origin: Chuck Anderson, Aldrich Chemical Co.
m/z	RELATIVE INTENSITY
14	47
25	80
26	116
28	64
29	1172
36	114
37	740
38	1234
39	4197
40	297
41	120
42	137
48	105
49	159
50	281
51	131
53	156
55	94
66	168
67	1203
68	141
69	58
95	9999
96	9073
97	644
98	58
