Mass Spectrum: .beta.-D-Glucopyranose, 1,6-anhydro-
Formula: C6 H10 O5
CAS: 498-07-7
Molecular weight: 162
Origin: W.E. FRANKLIN, SOUTH. REG. RES. CENT., NEW ORLEANS, LA., USA
m/z	RELATIVE INTENSITY
15	342
19	434
27	491
29	1997
30	81
31	1093
39	226
41	472
42	1180
43	1269
44	594
45	751
47	676
53	6
55	884
56	1500
57	4417
58	51
60	9999
61	528
69	863
70	1414
71	835
72	595
73	3584
74	541
85	238
87	2
89	79
97	260
98	670
99	14
102	42
