Mass Spectrum: Cyclohexane, 1,4-bis(methylene)-
Formula: C8 H12
CAS: 4982-20-1
Molecular weight: 108
m/z	RELATIVE INTENSITY
15	520
26	611
27	5055
29	971
37	260
38	641
39	6636
40	1421
41	4924
42	380
43	150
45	130
49	100
50	811
51	1722
52	1001
53	2382
54	1682
55	631
56	100
62	140
63	270
65	1551
66	1021
67	3043
68	661
69	100
77	5835
78	1271
79	8618
80	3243
81	661
82	100
91	4424
92	711
93	9999
94	901
95	330
105	270
107	631
108	6526
109	581
110	80
