Mass Spectrum: Hydrazine, 1-methyl-1-propyl-
Formula: C4 H12 N2
CAS: 4986-49-6
Molecular weight: 88
Origin: ATLAS OF MASS SPECTRA OF ORGANIC COMPOUNDS, V. A. KOPTYUG, ED.
m/z	RELATIVE INTENSITY
27	750
28	210
29	310
30	1460
31	300
39	370
40	70
41	600
42	2770
43	910
44	490
45	1090
46	150
56	130
57	110
58	70
59	9999
60	310
70	100
71	90
72	50
73	30
88	1720
89	120
