Mass Spectrum: Hydrazine, 1,1-dipropyl-
Formula: C6 H16 N2
CAS: 4986-50-9
Molecular weight: 116
Origin: ATLAS OF MASS SPECTRA OF ORGANIC COMPOUNDS, V. A. KOPTYUG, ED.
m/z	RELATIVE INTENSITY
27	990
28	540
29	290
30	440
31	230
39	380
41	1150
42	400
43	2250
44	420
45	7840
46	170
56	320
58	300
59	240
70	190
72	90
73	130
87	9999
88	560
116	2210
117	260
