Mass Spectrum: 2H-Thiopyran, tetrahydro-, 1,1-dioxide
Formula: C5 H10 O2 S
CAS: 4988-33-4
Molecular weight: 134
m/z	RELATIVE INTENSITY
26	500
27	2002
28	1201
29	901
32	100
33	100
34	100
38	300
39	2702
40	801
41	6806
42	9999
43	801
44	200
45	200
46	100
47	100
48	300
49	100
50	200
51	200
52	100
53	400
54	200
55	3003
56	200
57	200
58	100
59	100
63	200
64	200
65	200
66	100
67	300
68	200
69	4304
70	901
71	100
76	100
78	100
106	300
117	200
134	1001
135	100
136	100
