Mass Spectrum: 3-Fluorobenzhydrazide
Formula: C7 H7 F N2 O
CAS: 499-55-8
Molecular weight: 154
Origin: NIST Mass Spectrometry Data Center, 1994
m/z	RELATIVE INTENSITY
14	44
16	53
27	62
28	156
29	253
30	135
31	549
32	103
37	99
38	132
39	132
44	37
45	59
49	86
50	645
51	335
52	39
53	43
56	51
57	197
61	94
62	139
63	145
68	339
69	460
70	128
73	89
74	501
75	2477
76	286
77	54
81	39
83	52
92	58
93	109
95	8294
96	594
121	61
123	9999
124	774
125	42
139	79
154	1915
155	176
