Mass Spectrum: Benzoic acid, 3-amino-4-propoxy-, 2-(diethylamino)ethyl ester
Formula: C16 H26 N2 O3
CAS: 499-67-2
Molecular weight: 294
Origin: Patti Price, Georgia Bureau of Investigation, Decatur, Georgia
m/z	RELATIVE INTENSITY
41	440
42	410
43	400
44	380
45	20
51	80
52	240
53	250
54	70
55	50
56	470
57	100
58	800
59	20
63	40
64	20
65	30
67	10
68	10
69	10
70	220
71	660
72	150
73	10
77	10
78	70
79	180
80	400
81	30
82	10
84	370
86	9999
87	620
88	10
90	20
91	40
92	20
93	10
94	10
96	10
97	10
98	20
99	3142
100	440
101	10
104	10
105	10
106	50
107	290
108	380
109	40
116	10
118	70
120	10
121	10
122	10
124	10
134	20
135	140
136	830
137	60
148	40
149	10
150	40
151	20
152	10
153	150
154	10
162	10
176	30
178	510
179	150
180	110
181	10
192	10
195	70
196	10
222	190
223	20
236	10
279	10
