Mass Spectrum: Benzene, 3-cyclohexen-1-yl-
Formula: C12 H14
CAS: 4994-16-5
Molecular weight: 158
Origin: NIST Mass Spectrometry Data Center, 1990.
m/z	RELATIVE INTENSITY
26	32
27	213
29	36
32	1
38	58
39	542
40	55
41	151
50	254
51	663
52	193
53	197
54	82
58	33
62	98
63	357
64	131
65	463
66	47
67	57
71	81
74	109
75	125
76	219
77	949
78	1265
79	355
80	200
87	37
88	25
89	217
90	25
91	946
92	76
101	50
102	291
103	1096
104	9999
105	837
106	27
115	840
116	173
117	179
126	47
127	191
128	542
129	583
130	163
139	31
141	147
142	55
143	91
151	26
152	81
153	78
154	70
155	33
158	1834
159	237
