Mass Spectrum: Benzene, 1,1',1'',1''',1'''',1'''''-[bi-2-cyclopropen-1-yl]-1,1',2,2',3,3'-hexaylhexakis-
Formula: C42 H30
CAS: 4997-62-0
Molecular weight: 534
Origin: ORMSBG,10(9)744(1975); P. GYOROSI
m/z	RELATIVE INTENSITY
105	1200
178	1200
265	600
267	9999
268	2400
269	300
363	300
365	400
376	300
377	300
378	400
379	400
441	300
455	300
456	300
457	600
493	300
533	300
534	4300
535	2200
536	400
