Mass Spectrum: 2H-Pyran-5-carboxylic acid, 2-oxo-
Formula: C6 H4 O4
CAS: 500-05-0
Molecular weight: 140
Origin: Japan AIST/NIMC Database- Spectrum MS-NW-1641
m/z	RELATIVE INTENSITY
12	50
13	70
14	70
15	50
16	30
17	40
18	149
24	50
25	199
26	399
27	389
28	379
29	1459
30	40
31	109
32	30
33	319
36	309
37	1829
38	3899
39	6759
40	1179
41	289
42	1609
43	309
44	609
45	1169
46	30
47	50
48	80
49	339
50	619
51	219
52	50
53	1019
54	139
55	1469
56	509
57	30
58	20
59	20
60	20
61	30
63	20
64	50
65	249
66	2359
67	729
68	529
69	329
70	50
71	329
72	20
73	10
74	10
75	10
77	60
78	10
79	30
81	20
82	20
83	259
84	6619
85	319
86	159
87	10
91	30
92	10
93	159
94	3789
95	2519
96	209
97	20
98	20
99	20
103	10
105	40
106	20
107	10
111	319
112	9999
113	579
114	80
121	30
122	379
123	939
124	70
125	10
139	199
140	6219
141	409
142	60
