Mass Spectrum: 1,3-Benzenediol, 5-pentyl-
Formula: C11 H16 O2
CAS: 500-66-3
Molecular weight: 180
Origin: NIST Mass Spectrometry Data Center
m/z	RELATIVE INTENSITY
15	10
26	20
27	290
28	40
29	330
30	10
31	10
37	10
38	50
39	430
40	90
41	701
42	80
43	260
44	10
45	10
50	80
51	280
52	110
53	320
54	60
55	571
56	30
57	70
58	10
61	10
62	40
63	120
64	40
65	380
66	200
67	440
68	50
69	741
70	30
71	40
73	10
74	20
75	40
76	20
77	490
78	140
79	230
80	40
81	220
82	80
83	30
84	30
85	30
87	10
89	40
90	20
91	240
92	30
93	70
94	120
95	420
96	150
97	40
98	10
101	10
102	20
103	50
104	10
105	80
106	170
107	250
108	50
109	110
110	150
111	140
112	10
115	20
117	10
118	10
119	50
120	10
121	50
123	2983
124	9999
125	861
126	80
127	10
131	20
132	10
133	20
134	10
135	30
136	120
137	941
138	891
139	80
140	10
147	10
149	40
150	20
151	100
152	30
165	30
180	1571
181	190
182	20
