Mass Spectrum: Benzeneacetic acid, .alpha.-methylene-, 8-methyl-8-azabicyclo[3.2.1]oct-3-yl ester, endo-
Formula: C17 H21 N O2
CAS: 500-55-0
Molecular weight: 271
Origin: NIST Mass Spectrometry Data Center
m/z	RELATIVE INTENSITY
27	20
28	20
29	20
30	20
39	90
40	10
41	190
42	591
43	50
44	110
50	60
51	190
52	50
53	80
54	80
55	190
56	140
57	140
58	50
62	20
63	70
64	10
65	120
66	30
67	1001
68	260
69	60
70	150
71	10
74	30
75	50
76	110
77	911
78	100
80	90
81	290
82	2032
83	1451
84	170
85	10
89	10
90	10
91	120
92	20
93	90
94	1962
95	741
96	2262
97	300
98	100
99	10
101	20
102	300
103	1581
104	170
105	20
106	20
108	120
109	40
110	30
112	30
115	10
117	10
118	10
120	20
122	240
123	400
124	9999
125	921
126	70
127	10
128	10
129	10
131	50
132	10
136	30
139	40
140	821
141	80
142	10
148	30
157	10
158	10
180	20
184	10
185	50
186	20
194	20
198	10
200	10
226	10
242	10
243	10
256	10
270	50
271	2542
272	480
273	50
