Mass Spectrum: Nordihydroguaiaretic acid
Formula: C18 H22 O4
CAS: 500-38-9
Molecular weight: 302
Origin: Japan AIST/NIMC Database- Spectrum MS-IW- 725
m/z	RELATIVE INTENSITY
17	20
18	77
27	30
28	20
29	10
39	40
40	10
41	129
43	50
44	30
51	119
52	10
53	20
55	60
56	10
57	20
63	10
64	10
65	50
66	20
67	50
69	189
70	10
71	10
76	10
77	389
78	60
79	30
81	20
82	10
83	10
85	10
89	10
91	70
92	10
93	20
94	40
95	40
96	10
97	10
103	30
104	10
105	169
106	109
107	90
108	20
109	30
110	99
111	20
115	20
117	20
119	40
120	10
121	30
122	80
123	9999
124	3939
125	329
126	30
127	10
129	10
131	40
132	10
133	50
135	20
136	60
137	749
138	129
139	10
145	60
146	10
147	10
149	60
150	90
151	419
152	50
153	10
157	20
159	30
160	30
161	60
162	20
163	119
164	20
165	10
173	20
174	10
175	40
176	20
177	70
178	259
179	209
180	40
181	10
188	10
189	10
190	50
191	30
192	40
193	10
197	10
213	10
225	10
226	20
227	60
228	10
229	20
231	10
239	10
243	30
244	20
245	30
246	10
255	10
256	10
273	10
283	10
284	30
285	10
286	20
300	90
301	20
302	3019
303	609
304	80
