Mass Spectrum: Cyclohexene, 4-methyl-1-(1-methylethyl)-
Formula: C10 H18
CAS: 500-00-5
Molecular weight: 138
Origin: G.VON BUNAU, MAX-PLANCK-INST., MULHEIM-RHUR, GERMANY, FRG
m/z	RELATIVE INTENSITY
27	1130
28	98
29	737
39	1204
40	221
41	2285
42	197
43	786
51	393
52	197
53	983
54	393
55	2187
56	295
57	295
63	123
65	442
66	246
67	2506
68	1204
69	983
70	246
77	737
78	221
79	983
80	442
81	6658
82	1818
83	516
91	516
93	491
94	1032
95	9999
96	2604
97	614
107	147
109	614
110	221
111	147
123	2629
124	344
138	3514
139	467
140	147
