Mass Spectrum: Chlorthion
Formula: C8 H9 Cl N O5 P S
CAS: 500-28-7
Molecular weight: 297
Origin: CATALOGUE OF MASS SPECTRA OF PESTICIDES, APRIL, 1975; J. FREUDENTHAL & L. G. GRAMBERG, NAT'L INST. OF PUBLIC HEALTH, THE NETHERLANDS
m/z	RELATIVE INTENSITY
37	109
38	133
40	276
41	434
42	295
43	566
44	216
45	363
46	149
47	2749
48	154
49	132
50	253
51	234
55	298
56	120
57	673
61	120
62	1160
63	2257
64	215
65	117
69	275
70	253
71	352
72	195
74	334
75	626
77	202
79	4341
80	187
83	125
84	214
85	279
87	180
93	2000
94	222
95	682
96	436
97	183
98	203
99	140
107	139
109	9999
110	682
111	322
112	352
113	123
115	285
123	145
124	101
125	9720
126	741
127	801
128	3428
129	317
130	160
140	259
141	320
142	231
143	335
156	270
157	284
158	188
159	139
170	209
171	354
172	401
173	418
174	117
186	122
187	240
188	231
189	265
190	118
191	102
201	104
202	132
206	106
232	134
234	283
236	171
239	114
250	218
252	206
266	178
267	303
280	323
281	115
282	253
297	4013
298	440
299	1557
300	174
301	111
