Mass Spectrum: .beta.-Eucaine
Formula: C15 H21 N O2
CAS: 500-34-5
Molecular weight: 247
Origin: R.E.Ardrey ET AL.Pharmaceutical Mass Spectra,L.,1985
m/z	RELATIVE INTENSITY
39	300
41	1301
42	1201
43	200
44	2702
50	100
51	500
53	100
55	500
56	200
57	200
58	1301
67	200
68	200
69	400
70	200
76	100
77	1601
78	100
81	100
82	200
83	200
84	801
85	601
93	100
94	200
95	100
96	100
98	200
105	1101
106	100
108	100
110	9999
111	701
122	100
124	200
125	200
126	3803
127	300
142	100
232	500
233	100
247	100
