Mass Spectrum: 2-Bromo-3'-methoxyacetophenone
Formula: C9 H9 Br O2
CAS: 5000-65-7
Molecular weight: 228
Origin: Japan AIST/NIMC Database- Spectrum MS-IW-1568
m/z	RELATIVE INTENSITY
14	10
15	30
26	10
27	30
28	30
29	20
36	10
37	30
38	159
39	169
40	10
41	30
42	90
43	129
44	10
49	20
50	319
51	279
52	99
53	70
55	30
56	10
58	50
61	40
62	139
63	589
64	689
65	179
66	20
67	10
73	20
74	119
75	99
76	239
77	1769
78	369
79	119
80	40
81	20
82	30
83	80
84	20
85	10
86	10
87	10
89	80
90	50
91	479
92	1079
93	90
94	10
95	30
98	20
102	10
104	30
105	40
106	70
107	2229
108	179
109	10
118	40
119	20
120	20
121	399
122	30
123	10
127	20
128	20
132	10
133	20
135	9999
136	899
137	70
139	20
140	70
141	10
228	759
229	70
230	759
231	70
