Mass Spectrum: .alpha.-Isopropylideneaminooxypropionic acid
Formula: C6 H11 N O3
CAS: 5001-36-5
Molecular weight: 145
Origin: NIST Mass Spectrometry Data Center, 1994
m/z	RELATIVE INTENSITY
12	63
13	56
14	217
15	2787
16	121
17	39
18	111
19	107
24	15
25	55
26	377
27	1066
28	2714
29	1986
30	1030
33	53
37	33
38	100
39	592
40	424
41	969
42	4101
43	920
44	787
45	1186
46	55
51	38
52	86
53	36
54	411
55	483
56	9999
57	1820
58	412
72	133
73	182
100	602
101	41
102	13
145	35
