Mass Spectrum: Butane, 2-(ethylthio)-
Formula: C6 H14 S
CAS: 5008-72-0
Molecular weight: 118
m/z	RELATIVE INTENSITY
25	40
26	701
27	5065
28	1041
29	5865
30	140
31	10
32	180
33	70
34	160
35	1171
36	20
37	80
38	120
39	1561
40	180
41	4784
42	230
43	90
44	80
45	1421
46	530
47	1341
48	60
49	80
50	90
51	120
52	40
53	270
54	70
55	1201
56	3063
57	2562
58	410
59	1051
60	601
61	4114
62	1361
63	1011
64	80
65	30
66	10
67	10
68	10
69	90
70	10
71	80
72	20
73	120
74	40
75	500
76	30
77	30
78	10
79	10
81	10
82	10
83	10
84	10
85	10
86	10
87	20
88	30
89	9999
90	540
91	450
92	20
93	10
95	10
101	10
102	10
103	691
104	40
105	30
117	20
118	3333
119	260
120	160
121	10
