Mass Spectrum: 8-Nonen-2-one
Formula: C9 H16 O
CAS: 5009-32-5
Molecular weight: 140
Origin: CARL DJERASSI DEPT OF CHEM STANFORD UNIV STANFORD CALIF 94305
m/z	RELATIVE INTENSITY
41	1800
42	300
43	9999
44	300
45	100
53	300
54	400
55	3100
56	300
57	200
58	6000
59	1100
67	1300
68	100
69	200
71	3300
72	500
79	200
80	500
81	500
82	2800
83	400
84	400
85	900
93	300
97	800
98	200
99	200
107	100
111	500
122	100
125	300
140	100
