Mass Spectrum: Benzeneethanol, 4-hydroxy-
Formula: C8 H10 O2
CAS: 501-94-0
Molecular weight: 138
Origin: Japan AIST/NIMC Database- Spectrum MS-IW-2150
m/z	RELATIVE INTENSITY
14	10
15	10
18	20
26	20
27	159
28	40
29	70
30	10
31	139
32	10
37	20
38	50
39	289
40	40
41	60
42	10
43	60
44	30
45	20
49	10
50	119
51	299
52	149
53	249
54	20
55	119
56	10
57	10
59	20
60	10
61	20
62	60
63	129
64	40
65	159
66	40
67	30
68	20
69	30
74	50
75	40
76	30
77	1069
78	269
79	229
80	50
81	80
82	10
83	10
86	10
87	10
89	60
90	50
91	259
92	30
93	50
94	80
95	20
96	10
101	10
102	10
103	30
104	10
105	60
106	50
107	9999
108	949
109	70
115	20
117	30
118	30
119	99
120	90
121	309
122	189
123	20
135	20
136	20
137	10
138	1989
139	169
140	10
