Mass Spectrum: Formamide, N-(cyanomethyl)-
Formula: C3 H4 N2 O
CAS: 5018-27-9
Molecular weight: 84
Origin: D.HENNEBERG, MAX-PLANCK INSTITUTE, MULHEIM, WEST GERMANY
m/z	RELATIVE INTENSITY
29	9999
30	1750
31	270
36	660
38	590
39	530
40	2130
41	560
42	140
43	980
44	500
45	640
53	600
54	160
55	5070
56	1950
57	400
58	200
60	170
61	300
66	120
83	180
84	5760
85	270
