Mass Spectrum: Cycloheptanol
Formula: C7 H14 O
CAS: 502-41-0
Molecular weight: 114
Origin: Japan AIST/NIMC Database- Spectrum MS-NW-3107
m/z	RELATIVE INTENSITY
14	10
15	129
17	20
18	139
19	30
26	99
27	1189
28	279
29	1199
30	109
31	539
32	30
37	30
38	80
39	1269
40	279
41	2499
42	1479
43	1029
44	2249
45	529
46	20
50	60
51	109
52	50
53	479
54	1589
55	2309
56	439
57	9999
58	909
59	70
62	20
63	30
65	80
66	199
67	1979
68	3859
69	399
70	1299
71	1489
72	629
73	70
77	70
78	20
79	90
80	40
81	3419
82	249
83	139
84	60
85	559
86	409
87	20
91	30
93	40
94	10
95	289
96	2259
97	199
98	10
99	70
112	30
113	109
114	209
115	10
