Mass Spectrum: 5-Nonanone
Formula: C9 H18 O
CAS: 502-56-7
Molecular weight: 142
Origin: Japan AIST/NIMC Database- Spectrum MS-NW- 843
m/z	RELATIVE INTENSITY
15	70
18	30
26	109
27	1549
28	609
29	3499
30	70
31	50
37	10
38	40
39	929
40	119
41	3619
42	299
43	529
44	30
45	30
50	40
51	70
52	30
53	209
54	50
55	509
56	209
57	9999
58	6899
59	459
60	109
63	10
65	10
67	80
68	10
69	40
70	50
71	649
72	289
73	50
77	20
79	20
81	20
83	50
84	90
85	8509
86	489
87	30
91	10
95	60
99	10
100	759
101	80
103	20
113	489
114	50
127	20
142	1569
143	189
144	10
