Mass Spectrum: 16-Hentriacontanone
Formula: C31 H62 O
CAS: 502-73-8
Molecular weight: 450
Origin: NIST Mass Spectrometry Data Center
m/z	RELATIVE INTENSITY
27	40
29	190
39	80
40	20
41	1031
42	250
43	2522
44	80
45	20
53	70
54	160
55	1932
56	540
57	3934
58	2002
59	1211
60	40
65	20
66	30
67	771
68	430
69	1922
70	621
71	5105
72	400
73	30
77	20
79	130
80	90
81	1031
82	1271
83	1842
84	490
85	2312
86	180
87	20
91	10
93	80
94	60
95	1581
96	2032
97	1551
98	550
99	480
100	490
101	80
107	60
108	30
109	1151
110	631
111	751
112	180
113	460
114	430
115	60
121	50
122	20
123	611
124	350
125	330
126	80
127	681
128	100
129	10
135	30
136	10
137	260
138	270
139	120
140	50
141	110
142	100
143	10
149	10
151	110
152	260
153	70
154	30
155	120
156	140
157	20
165	90
166	180
167	40
168	40
169	100
170	50
171	20
179	30
180	120
181	20
182	10
183	120
184	30
193	20
194	741
195	110
196	220
197	170
198	90
199	20
207	20
208	30
209	10
210	20
211	160
212	80
213	20
221	60
222	40
223	10
225	50
226	30
227	10
236	320
237	70
238	150
239	9999
240	1692
241	160
242	10
249	10
250	10
253	10
254	1421
255	3843
256	661
257	60
264	10
265	10
267	550
268	110
269	10
278	50
279	10
281	340
282	70
283	10
291	10
292	50
293	10
295	70
296	50
297	10
306	10
309	60
310	30
323	90
324	20
337	10
351	10
365	10
379	10
393	10
394	10
407	40
408	20
421	30
422	10
432	20
433	10
435	10
449	30
450	130
451	50
452	10
