Mass Spectrum: 1,4-Dioxane-2,5-dione
Formula: C4 H4 O4
CAS: 502-97-6
Molecular weight: 116
m/z	RELATIVE INTENSITY
28	8007
29	9609
30	8207
31	9509
32	300
41	1001
42	9999
43	2002
44	1501
72	500
116	8808
117	200
