Mass Spectrum: 2-Pentadecanone, 6,10,14-trimethyl-
Formula: C18 H36 O
CAS: 502-69-2
Molecular weight: 268
Origin: STC 0011
m/z	RELATIVE INTENSITY
27	891
29	1211
39	711
40	20
41	3733
42	1091
43	9999
44	290
45	180
51	50
53	360
54	170
55	3453
56	1952
57	4264
58	8988
59	4074
60	220
65	60
66	40
67	571
68	771
69	2452
70	1471
71	4504
72	440
73	50
77	50
79	140
80	100
81	1301
82	1051
83	1732
84	550
85	2292
86	270
91	60
93	110
94	110
95	2032
96	841
97	1011
98	200
99	370
101	50
107	50
108	70
109	1822
110	1301
111	721
112	230
113	761
114	100
122	50
123	961
124	1101
125	550
126	500
127	240
128	60
136	50
137	440
138	410
139	130
140	280
141	140
151	160
152	100
153	50
154	50
155	80
165	450
166	100
179	300
180	140
193	50
194	140
207	50
208	90
210	380
211	70
225	120
235	90
250	881
251	190
253	120
268	90
