Mass Spectrum: 2,6,10-Dodecatrienal, 3,7,11-trimethyl-, (E,E)-
Formula: C15 H24 O
CAS: 502-67-0
Molecular weight: 220
Origin: NIST Mass Spectrometry Data Center, 1994
m/z	RELATIVE INTENSITY
14	14
15	114
16	18
17	28
18	80
27	1845
28	332
29	2242
30	41
31	49
37	15
39	2623
41	9143
42	499
43	1000
44	50
45	30
50	84
51	344
53	1762
54	329
55	1757
56	295
57	227
58	20
59	40
62	18
63	64
65	422
66	179
67	1518
68	18
69	9999
70	577
71	228
72	15
77	561
78	137
79	730
80	416
81	1974
82	561
83	15
84	4697
85	298
86	16
89	22
91	584
92	202
93	788
94	251
95	807
96	152
97	192
98	44
103	51
105	292
106	101
107	466
108	308
109	407
110	119
111	39
115	49
116	16
117	58
118	24
119	92
120	16
121	443
122	113
123	407
124	165
125	31
128	12
129	12
131	55
132	37
133	139
134	101
135	171
136	495
137	315
138	131
139	194
140	30
145	47
146	34
147	73
148	34
149	178
150	66
151	115
152	43
159	103
160	27
161	23
162	31
163	29
164	35
165	15
175	29
176	47
177	136
178	42
187	60
189	13
191	64
192	17
202	28
205	75
220	34
