Mass Spectrum: Cyclopentadecanone
Formula: C15 H28 O
CAS: 502-72-7
Molecular weight: 224
Origin: NIST Mass Spectrometry Data Center, 1990.
m/z	RELATIVE INTENSITY
27	1231
28	910
29	2074
39	1782
41	8358
42	2736
43	4144
44	145
51	117
53	1048
54	1414
55	9999
56	2108
57	1949
58	5721
59	2454
60	102
65	251
66	268
67	2244
68	1485
69	3483
70	1861
71	6916
72	640
77	191
78	171
79	859
80	1156
81	2275
82	2536
83	2663
84	1777
85	1217
86	191
91	136
92	81
93	575
94	1131
95	1538
96	2482
97	2091
98	1986
99	422
100	320
107	476
108	676
109	724
110	1074
111	1534
112	408
113	337
114	227
121	754
122	452
123	368
124	779
125	1647
126	242
127	308
128	219
135	811
136	320
137	222
138	352
139	258
141	131
142	229
149	526
150	204
153	136
154	80
156	135
163	249
164	302
166	429
167	144
169	91
177	169
181	138
191	89
195	80
206	140
209	93
224	979
225	187
