Mass Spectrum: Diethoxydiethylsilane
Formula: C8 H20 O2 Si
CAS: 5021-93-2
Molecular weight: 176
Origin: NIST Mass Spectrometry Data Center
m/z	RELATIVE INTENSITY
15	220
19	30
26	150
27	1131
29	1391
30	40
31	130
41	60
42	60
43	320
45	3583
46	200
47	1902
48	50
49	50
51	30
55	70
56	40
57	150
58	180
59	601
60	110
61	250
62	450
63	3163
64	170
65	130
66	50
71	90
72	100
73	1191
74	210
75	2022
76	240
77	180
80	40
87	260
88	60
89	380
90	120
91	2272
92	130
93	100
99	40
100	30
101	110
103	4604
104	440
105	180
115	20
117	370
118	100
119	1822
120	170
121	70
129	30
130	40
131	460
132	60
133	100
145	60
147	9999
148	1171
149	410
150	30
161	50
176	140
