Mass Spectrum: 1H-Isoindole-1,3(2H)-dione, N-ethyl-
Formula: C10 H9 N O2
CAS: 5022-29-7
Molecular weight: 175
Origin: CARL DJERASSI DEPT OF CHEM STANFORD UNIV STANFORD CALIF 94305
m/z	RELATIVE INTENSITY
41	100
42	400
43	200
45	100
50	900
51	400
52	600
66	1500
74	300
75	500
76	1300
77	1000
78	100
102	300
103	200
104	700
105	1100
106	200
130	600
132	200
133	300
146	400
147	200
160	9999
161	1100
162	100
174	200
175	5000
176	600
