Mass Spectrum: p-Nonyloxybenzaldehyde
Formula: C16 H24 O2
CAS: 50262-46-9
Molecular weight: 248
Origin: NIST Mass Spectrometry Data Center, 1994
m/z	RELATIVE INTENSITY
12	23
14	27
15	137
16	24
18	120
27	2745
28	735
29	5382
30	130
31	23
37	49
39	2804
41	8605
42	1727
43	9999
44	405
50	372
51	1044
52	130
53	520
54	49
55	4243
56	1862
57	3501
58	179
62	109
63	419
64	336
65	1649
66	305
67	457
68	239
69	1476
70	1468
71	2584
72	144
74	100
75	106
76	350
77	1603
78	196
79	543
80	57
81	79
82	263
83	758
84	793
85	1161
86	90
89	18
90	25
91	157
92	264
93	715
94	425
95	593
96	148
97	820
98	367
103	48
105	723
106	90
107	191
108	37
109	18
111	32
115	18
117	16
119	67
121	5757
122	6354
123	8176
124	658
125	58
126	303
135	265
136	29
147	103
148	32
248	1805
249	386
250	40
