Mass Spectrum: p-Propionoxybenzaldehyde
Formula: C10 H10 O3
CAS: 50262-48-1
Molecular weight: 178
Origin: NIST Mass Spectrometry Data Center, 1994
m/z	RELATIVE INTENSITY
12	15
13	22
14	78
15	113
16	13
18	20
25	47
26	502
27	1930
28	884
29	6283
30	149
32	12
37	167
38	612
39	2051
40	133
41	41
42	141
43	34
44	13
45	4
49	46
50	417
51	551
52	54
53	158
54	27
55	202
56	4
57	9999
58	305
59	12
60	11
61	94
62	290
63	798
64	420
65	1642
66	274
67	28
68	11
73	29
74	145
75	102
76	125
77	302
78	33
79	25
91	51
92	228
93	519
94	138
95	86
103	14
104	33
105	123
106	20
107	17
110	11
119	20
121	2793
122	798
123	1273
124	98
132	10
133	28
149	25
150	174
151	15
178	631
179	70
