Mass Spectrum: 1-Heptene, 6-methyl-
Formula: C8 H16
CAS: 5026-76-6
Molecular weight: 112
Origin: CARL DJERASSI DEPT OF CHEM STANFORD UNIV STANFORD CALIF 94305
m/z	RELATIVE INTENSITY
39	1900
40	100
41	6500
42	2100
43	8600
44	200
53	400
54	200
55	7600
56	9999
57	3300
67	400
68	600
69	6500
70	3400
71	200
83	300
84	800
97	1000
112	800
