Mass Spectrum: 2,6-Piperidinedione, 3-(1-hydroxyethyl)-3-phenyl-
Formula: C13 H15 N O3
CAS: 50275-57-5
Molecular weight: 233
Origin: R.L.FOLTZ BATTELLE MEMORIAL INST., COLUMBUS LAB., OHIO, USA
m/z	RELATIVE INTENSITY
41	846
42	538
43	923
44	1385
45	231
46	154
50	769
51	1692
52	538
53	615
54	231
55	1846
56	308
57	385
58	3923
59	769
60	154
61	77
62	231
63	923
64	385
65	923
66	231
67	154
68	77
69	308
70	308
73	769
74	462
75	923
76	615
77	3000
78	1769
79	692
80	77
89	1154
90	692
91	4462
92	692
93	154
100	769
101	385
102	1154
103	5077
104	6077
105	385
115	3923
116	1462
117	5615
118	2308
119	615
126	462
127	1000
128	1462
129	1923
130	2385
131	3231
132	2923
133	4462
134	692
135	154
140	77
141	231
142	231
143	1077
144	615
145	769
146	6692
147	1538
148	100
149	1000
150	154
155	538
156	154
157	1000
158	615
159	923
160	1538
161	9999
162	615
163	77
167	308
168	77
169	154
170	385
171	538
172	923
173	308
174	538
175	154
176	462
177	154
178	154
179	77
180	231
181	154
186	308
187	769
188	385
189	6000
190	1000
191	231
192	77
203	769
204	231
205	538
206	2385
207	538
208	231
209	77
215	1462
216	154
217	462
218	308
219	100
231	231
232	77
233	7692
234	1923
235	308
