Mass Spectrum: 1,3,5,8-Undecatetraene
Formula: C11 H16
CAS: 50277-31-1
Molecular weight: 148
Origin: F-J. MARNER, INST. BIOCHEM., COLOGNE, W. GER.
m/z	RELATIVE INTENSITY
40	557
41	4781
42	206
43	59
45	8
46	7
50	209
51	909
52	425
53	1088
54	156
55	932
56	45
57	47
58	62
59	41
60	29
61	12
62	81
63	287
64	58
65	1493
66	1535
67	1717
68	183
69	73
70	401
71	27
72	3
74	45
75	44
77	3662
78	2319
79	9999
80	2932
81	952
82	454
83	38
85	7
87	20
88	12
89	87
91	8085
92	1285
93	485
94	1681
95	87
96	6
98	7
99	2
101	11
102	56
103	408
104	207
105	2834
106	490
107	515
108	44
110	4
112	4
113	4
114	4
115	278
116	85
117	482
118	81
119	1140
120	133
121	16
125	2
126	6
127	19
128	47
129	30
130	11
131	47
132	7
133	131
134	22
137	2
141	6
142	3
143	3
144	3
147	13
148	3098
149	256
150	19
