Mass Spectrum: 1,1,2,2-Tetraacetylethane
Formula: C10 H14 O4
CAS: 5027-32-7
Molecular weight: 198
Origin: NIST Mass Spectrometry Data Center, 1994
m/z	RELATIVE INTENSITY
12	20
14	92
15	1074
16	21
17	16
18	11
26	15
27	176
28	77
29	135
37	34
38	83
39	560
40	105
41	329
42	15
43	9999
44	246
45	67
50	124
51	291
52	66
53	270
54	33
55	223
56	44
57	28
61	23
62	29
63	79
65	289
66	135
67	496
68	83
69	505
70	60
71	196
74	4
77	65
78	37
79	79
80	28
81	181
82	28
83	28
84	4
85	585
86	34
91	79
92	24
93	81
94	52
95	401
96	107
97	75
98	27
99	118
105	38
106	14
108	34
109	172
110	30
111	74
112	183
113	457
114	106
119	73
120	34
121	25
122	14
123	1389
124	103
125	30
133	79
134	28
137	313
138	209
139	38
141	189
147	172
148	15
151	25
155	27
156	20
161	50
162	190
163	115
164	15
165	3057
166	324
167	38
180	1797
181	207
182	31
198	319
199	31
