Mass Spectrum: Urea, N-ethyl-N',N'-dimethyl-N-nitroso-
Formula: C5 H11 N3 O2
CAS: 50285-71-7
Molecular weight: 145
Origin: W.T.RAINEY OAK RIDGE NATIONAL LABORATORY,OAK RIDGE,TN.USA
m/z	RELATIVE INTENSITY
30	976
40	249
41	346
42	2693
43	1010
44	2255
45	252
56	818
57	77
58	296
70	117
71	101
72	9999
73	673
74	144
87	175
88	107
89	202
99	63
145	30
