Mass Spectrum: Oxirane, (fluoromethyl)-
Formula: C3 H5 F O
CAS: 503-09-3
Molecular weight: 76
Origin: NIST Mass Spectrometry Data Center, 1998.
m/z	RELATIVE INTENSITY
12	10
13	50
14	180
15	420
16	10
19	10
20	10
24	30
25	190
26	1360
27	3130
28	4100
29	2980
30	530
31	1760
32	240
33	2300
34	40
36	50
37	250
38	300
39	420
40	60
41	110
42	960
43	2560
44	800
45	2360
46	9999
47	1810
48	40
49	140
52	10
53	50
54	10
55	150
56	70
57	280
58	40
59	180
60	130
61	460
62	10
73	90
75	240
76	170
77	10
