Mass Spectrum: Azetidine
Formula: C3 H7 N
CAS: 503-29-7
Molecular weight: 57
Origin: R.W. KISER KANSAS STATE UNIV., MANHATTAN, KANSAS, USA
m/z	RELATIVE INTENSITY
14	90
15	220
26	1410
27	2580
28	9999
29	6390
30	4660
31	220
39	170
40	90
41	190
42	640
43	140
44	90
52	70
54	90
56	1950
57	4530
58	164
59	2
