Mass Spectrum: Trimethylene oxide
Formula: C3 H6 O
CAS: 503-30-0
Molecular weight: 58
Origin: NIST Mass Spectrometry Data Center, 1990.
m/z	RELATIVE INTENSITY
12	38
13	104
14	205
15	204
18	2
19	26
24	60
25	244
26	2503
27	3283
28	9999
29	3894
30	647
31	687
37	167
38	182
39	196
40	32
41	78
42	65
43	49
53	55
55	82
57	1058
58	4459
59	176
