Mass Spectrum: Diazene, dimethyl-
Formula: C2 H6 N2
CAS: 503-28-6
Molecular weight: 58
Origin: P.F.DIAMOND,SHELL RESEARCH LIMITED THORNTON RESEARCH CENTRE
m/z	RELATIVE INTENSITY
13	241
14	724
15	9999
26	275
27	1344
28	3655
29	241
30	620
42	1103
43	6758
57	413
58	3172
