Mass Spectrum: Cyclohexene, 3,3,5-trimethyl-
Formula: C9 H16
CAS: 503-45-7
Molecular weight: 124
Origin: ATLANTIC REFINING CO., PHILADELPHIA, PA, USA
m/z	RELATIVE INTENSITY
38	371
39	4370
40	834
41	5030
42	600
43	1280
44	53
45	33
46	29
47	7
49	22
50	330
51	928
52	429
53	1640
54	460
55	2080
56	285
57	153
58	14
59	9
60	20
61	41
62	103
63	324
64	101
65	845
66	437
67	6240
68	1460
69	1960
70	187
71	24
73	51
74	41
75	62
76	41
77	1170
78	388
79	1030
80	359
81	3230
82	4500
83	389
84	21
85	4
86	5
87	5
88	2
89	46
90	34
91	904
92	158
93	474
94	273
95	2730
96	377
97	50
98	16
99	8
100	2
101	14
102	11
103	31
104	14
105	94
106	31
107	271
108	106
109	9999
110	928
111	44
115	4
121	3
122	3
123	142
124	2990
125	320
126	17
