Mass Spectrum: Trifluoromethyl peroxynitrate
Formula: C F3 N O4
CAS: 50311-48-3
Molecular weight: 147
Origin: F.A. HOHORST, ALLIED CHEMICAL, IDAHO FALLS, IDAHO, U
m/z	RELATIVE INTENSITY
30	9999
46	9000
47	7600
48	800
66	6000
69	4200
