Mass Spectrum: 1-(3-Aminopropyl)imidazole
Formula: C6 H11 N3
CAS: 5036-48-6
Molecular weight: 125
Origin: Japan AIST/NIMC Database- Spectrum MS-IW-2618
m/z	RELATIVE INTENSITY
14	30
15	129
16	10
25	10
26	279
27	719
28	1799
29	259
30	4969
31	159
37	10
38	70
39	429
40	719
41	1549
42	849
43	419
44	299
45	40
50	10
51	60
52	289
53	189
54	1379
55	3539
56	1079
57	339
58	90
65	10
66	50
67	209
68	2649
69	2179
70	159
71	20
78	10
79	40
80	199
81	3129
82	9999
83	639
84	20
85	10
93	10
94	50
95	899
96	589
97	50
98	30
107	309
108	169
109	40
110	10
122	10
123	20
124	50
125	709
126	70
