Mass Spectrum: 1(2H)-Naphthalenone, 3,4-dihydro-5,8-dimethyl-
Formula: C12 H14 O
CAS: 5037-63-8
Molecular weight: 174
Origin: NIST Mass Spectrometry Data Center, 1990.
m/z	RELATIVE INTENSITY
15	157
26	150
27	1005
28	93
29	138
37	58
38	264
39	1644
40	195
41	410
42	87
43	113
50	668
51	1640
52	464
53	457
55	202
57	311
58	277
61	83
62	381
63	1149
64	520
65	929
66	151
69	79
70	114
71	142
72	110
73	161
74	271
75	378
76	457
77	1708
78	802
79	310
85	62
86	146
87	180
88	91
89	522
90	242
91	2252
92	257
98	73
101	110
102	614
103	1914
104	303
105	274
113	67
115	3170
116	1062
117	5799
118	5525
119	710
126	148
127	590
128	1352
129	939
130	358
131	976
132	360
139	90
141	343
142	106
143	102
146	9999
147	1118
148	83
155	85
156	247
157	169
158	83
159	1118
160	168
174	4969
175	652
176	83
