Mass Spectrum: Hydrazine, propyl-
Formula: C3 H10 N2
CAS: 5039-61-2
Molecular weight: 74
Origin: ATLAS OF MASS SPECTRA OF ORGANIC COMPOUNDS, V. A. KOPTYUG, ED.
m/z	RELATIVE INTENSITY
29	1080
30	770
31	1450
32	250
39	720
40	170
41	1450
42	620
43	1130
44	340
45	9999
46	250
56	290
57	130
58	60
59	190
73	160
74	2640
75	460
