Mass Spectrum: 1,2-Propadiene-1,3-dione
Formula: C3 O2
CAS: 504-64-3
Molecular weight: 68
m/z	RELATIVE INTENSITY
12	3934
13	160
16	280
24	1441
25	190
28	2562
29	370
36	350
40	9999
41	801
44	631
45	10
52	400
53	30
56	170
57	10
68	7186
69	290
70	90
