Mass Spectrum: 2-Buten-1-ol, (E)-
Formula: C4 H8 O
CAS: 504-61-0
Molecular weight: 72
Origin: Japan AIST/NIMC Database- Spectrum MS-NW-1599
m/z	RELATIVE INTENSITY
13	20
14	70
15	319
16	10
17	40
18	129
19	10
25	50
26	449
27	2559
28	359
29	2869
30	80
31	2149
32	40
33	10
36	20
37	229
38	419
39	2909
40	379
41	2419
42	419
43	2289
44	919
45	289
48	10
49	80
50	309
51	289
52	109
53	1159
54	879
55	539
56	70
57	9999
58	339
59	40
68	10
69	249
70	139
71	719
72	3339
73	139
