Mass Spectrum: 1,3-Pentadiene
Formula: C5 H8
CAS: 504-60-9
Molecular weight: 68
Origin: Japan AIST/NIMC Database- Spectrum MS-IW-3455
m/z	RELATIVE INTENSITY
14	10
15	80
25	30
26	309
27	1739
28	179
29	259
31	379
32	109
33	80
34	129
36	40
37	459
38	939
39	5459
40	3319
41	4009
42	2159
43	70
48	20
49	129
50	569
51	779
52	469
53	7099
54	319
55	80
60	80
61	379
62	509
63	639
64	99
65	1679
66	999
67	9999
68	8999
69	539
70	60
