Mass Spectrum: Phorone
Formula: C9 H14 O
CAS: 504-20-1
Molecular weight: 138
Origin: NIST Mass Spectrometry Data Center, 1990.
m/z	RELATIVE INTENSITY
13	19
14	36
15	161
16	1
18	2
26	212
27	2157
28	448
29	2290
30	59
31	32
37	65
38	317
39	2709
40	315
41	830
42	186
43	722
44	42
45	61
49	22
50	277
51	565
52	225
53	1331
54	767
55	4569
56	205
57	36
58	16
59	54
60	34
61	22
62	52
63	133
64	32
65	252
66	146
67	1288
68	149
69	118
74	24
77	610
78	166
79	503
80	152
81	280
82	792
83	4122
84	247
85	24
89	38
91	309
92	39
93	280
94	24
95	1941
96	380
97	36
103	104
105	805
106	104
107	397
108	1320
109	174
110	39
119	56
121	291
123	9999
124	938
125	64
136	21
137	102
138	400
139	40
