Mass Spectrum: 3(2H)-Pyridazinone
Formula: C4 H4 N2 O
CAS: 504-30-3
Molecular weight: 96
Origin: Japan AIST/NIMC Database- Spectrum MS-IW-7722
m/z	RELATIVE INTENSITY
12	20
13	20
14	30
17	60
18	40
24	10
25	70
26	269
27	80
28	259
29	199
34	10
36	50
37	279
38	499
39	2599
40	529
41	809
42	929
43	129
44	20
50	40
51	179
52	219
53	99
54	20
66	30
67	169
68	2199
69	99
77	10
78	40
80	10
95	40
96	9999
97	769
98	40
