Mass Spectrum: 1,3-Propanediol
Formula: C3 H8 O2
CAS: 504-63-2
Molecular weight: 76
Origin: NIST Mass Spectrometry Data Center, 1994
m/z	RELATIVE INTENSITY
13	117
14	405
15	1093
16	84
17	116
18	155
25	154
26	1227
27	3964
28	9999
29	6516
30	2129
31	8782
32	77
33	60
36	52
37	130
38	175
39	462
40	346
41	299
42	588
43	1955
44	420
45	1488
46	910
47	369
48	37
49	81
53	85
55	198
57	6427
58	5981
59	109
75	58
76	17
