Mass Spectrum: Nanofin
Formula: C7 H15 N
CAS: 504-03-0
Molecular weight: 113
Origin: Japan AIST/NIMC Database- Spectrum MS-NW-4002
m/z	RELATIVE INTENSITY
14	10
15	18
18	21
26	60
27	559
28	1059
29	319
30	409
31	10
32	80
37	10
38	40
39	569
40	119
41	989
42	2329
43	1069
44	3269
45	80
46	10
50	20
51	40
52	40
53	139
54	139
55	1119
56	1329
57	369
58	309
59	10
63	10
65	30
66	20
67	109
68	169
69	189
70	2719
71	719
72	219
73	10
77	10
79	30
80	50
81	309
82	149
83	119
84	649
85	199
86	10
93	20
94	40
95	30
96	129
97	30
98	9999
99	739
100	20
110	30
111	70
112	799
113	699
114	60
