Mass Spectrum: 5-Amino-1-phenylpyrazole-4-carboxamide
Formula: C10 H10 N4 O
CAS: 50427-77-5
Molecular weight: 202
Origin: NIST Mass Spectrometry Data Center, 1994
m/z	RELATIVE INTENSITY
17	282
18	464
26	205
27	665
28	585
37	229
38	647
39	1586
40	1202
41	716
42	194
43	480
44	2086
45	254
50	1090
51	4364
52	3937
53	1797
54	442
55	286
62	245
63	794
64	1101
65	1392
66	637
67	864
68	781
69	189
70	189
74	279
75	255
76	455
77	6378
78	1072
79	188
80	129
88	99
89	232
90	267
91	4271
92	1054
93	509
95	67
101	113
102	301
103	781
104	790
105	977
106	207
107	88
114	119
115	114
116	187
117	148
118	457
119	841
120	377
128	268
129	346
130	452
131	557
132	120
141	103
142	141
143	144
144	173
156	1826
157	499
158	239
159	120
169	123
184	7964
185	9144
186	1625
187	125
202	9999
203	1351
204	124
