Mass Spectrum: Ethyl p-aminocinnamate
Formula: C11 H13 N O2
CAS: 5048-82-8
Molecular weight: 191
Origin: NIST Mass Spectrometry Data Center, 1994
m/z	RELATIVE INTENSITY
14	19
15	486
16	1
19	110
26	319
27	1611
28	790
29	1729
30	162
37	98
38	395
39	1432
40	262
41	502
42	236
43	174
44	80
45	48
50	326
51	717
52	602
53	232
54	241
55	56
59	1317
61	120
62	445
63	1328
64	646
65	2504
66	374
67	134
69	209
73	545
74	126
75	336
76	192
77	488
78	339
79	226
80	80
86	61
87	87
88	117
89	1824
90	1268
91	3927
92	679
93	270
94	310
101	349
102	231
103	56
104	122
105	55
106	490
107	82
114	41
116	801
117	3730
118	5362
119	8568
120	925
121	46
122	52
128	49
130	379
131	149
132	129
133	55
134	145
135	74
144	133
146	9999
147	1178
148	143
158	36
162	503
163	1257
164	154
176	179
191	7069
192	857
193	94
