Mass Spectrum: Aminopyrazine
Formula: C4 H5 N3
CAS: 5049-61-6
Molecular weight: 95
Origin: Japan AIST/NIMC Database- Spectrum MS-NW-6172
m/z	RELATIVE INTENSITY
12	40
13	60
14	149
15	30
16	20
24	30
25	70
26	809
27	359
28	1159
29	50
30	10
32	10
33	179
34	99
36	10
37	20
38	359
39	669
40	2209
41	3829
42	2229
43	429
44	40
45	10
46	10
47	80
48	10
49	10
50	50
51	219
52	349
53	709
54	50
55	20
63	20
64	30
65	60
66	279
67	849
68	7559
69	539
70	20
75	10
76	10
77	20
79	40
91	279
92	219
93	40
94	209
95	9999
96	569
97	20
