Mass Spectrum: Propane, 1-isothiocyanato-3-(methylthio)-
Formula: C5 H9 N S2
CAS: 505-79-3
Molecular weight: 147
Origin: NIST Mass Spectrometry Data Center
m/z	RELATIVE INTENSITY
27	130
35	70
39	470
40	110
41	2002
45	871
46	420
47	661
48	160
49	180
54	120
58	240
59	270
60	370
61	2112
62	230
68	140
72	3113
73	1191
74	310
75	360
86	210
88	160
98	510
99	951
100	1051
101	9999
102	550
103	450
147	1161
148	100
149	130
