Mass Spectrum: 1,2-Dithiane
Formula: C4 H8 S2
CAS: 505-20-4
Molecular weight: 120
m/z	RELATIVE INTENSITY
39	900
41	900
44	500
45	1000
46	700
47	500
53	500
54	400
55	9999
56	800
59	500
60	1000
64	1000
73	500
78	500
79	500
84	400
86	800
87	800
120	7499
