Mass Spectrum: Mustard Gas
Formula: C4 H8 Cl2 S
CAS: 505-60-2
Molecular weight: 158
Origin: VERIFINN
m/z	RELATIVE INTENSITY
26	250
27	2522
28	170
35	120
45	1321
46	510
47	1581
48	50
49	320
58	390
59	951
60	350
61	651
63	3473
65	1121
73	581
81	230
83	90
93	60
94	70
95	210
96	781
97	90
98	260
109	9999
110	380
111	3833
112	120
113	150
123	310
125	120
158	2382
159	120
160	1621
161	80
162	330
