Mass Spectrum: Pyridine, 2,3,4,5-tetrahydro-
Formula: C5 H9 N
CAS: 505-18-0
Molecular weight: 83
Origin: James Little,Eastman Chem.Co.,Kingsport,TN
m/z	RELATIVE INTENSITY
27	1782
28	1481
29	440
39	2002
40	951
41	3003
42	6226
43	470
52	400
53	390
54	1511
55	9999
56	540
65	70
66	290
67	310
68	170
69	110
82	270
83	4574
84	310
85	80
