Mass Spectrum: Homopiperazine
Formula: C5 H12 N2
CAS: 505-66-8
Molecular weight: 100
Origin: NIST Mass Spectrometry Data Center
m/z	RELATIVE INTENSITY
13	30
14	190
15	1231
16	20
17	80
18	571
26	410
27	1531
28	5705
29	1251
30	5175
31	130
32	220
33	10
36	10
37	30
38	130
39	901
40	410
41	1972
42	3663
43	9999
44	5675
45	350
46	30
49	10
50	20
51	10
52	70
53	20
54	190
55	150
56	1461
57	1481
58	2412
59	100
67	30
68	290
69	1071
70	1782
71	611
72	40
81	10
83	10
85	260
95	10
97	20
99	3053
100	871
101	70
