Mass Spectrum: 1,3-Dioxane
Formula: C4 H8 O2
CAS: 505-22-6
Molecular weight: 88
Origin: Japan AIST/NIMC Database- Spectrum MS-NW-2853
m/z	RELATIVE INTENSITY
13	10
14	60
15	139
16	10
17	30
18	109
25	20
26	429
27	1209
28	5199
29	1769
30	949
31	4489
32	99
33	20
37	20
38	40
39	249
40	60
41	769
42	90
43	139
44	80
45	169
47	20
53	10
55	90
56	30
57	1279
58	1599
59	1269
60	50
61	10
70	20
87	9999
88	469
89	60
