Mass Spectrum: 1,3-Dithiane
Formula: C4 H8 S2
CAS: 505-23-7
Molecular weight: 120
Origin: NIST Mass Spectrometry Data Center, 1990.
m/z	RELATIVE INTENSITY
12	23
14	100
15	145
25	44
26	290
27	985
28	137
29	132
32	165
33	85
34	82
35	76
36	38
37	168
38	327
39	1855
40	38
41	3424
42	240
45	7353
46	6908
47	1659
48	295
49	92
53	205
54	67
55	881
56	90
57	177
58	528
59	907
60	726
61	995
62	78
63	67
64	746
66	93
68	43
69	205
70	39
71	407
72	513
73	3200
74	3806
75	465
76	289
77	311
78	1251
79	254
80	152
81	38
85	596
86	491
87	1714
88	129
89	115
91	186
92	493
93	30
94	62
103	33
105	703
106	84
107	55
120	9999
121	718
122	958
123	73
