Mass Spectrum: Octanedioic acid
Formula: C8 H14 O4
CAS: 505-48-6
Molecular weight: 174
Origin: Japan AIST/NIMC Database- Spectrum MS-NW-4770
m/z	RELATIVE INTENSITY
14	50
15	249
16	10
17	99
18	559
19	60
25	10
26	239
27	2789
28	1019
29	2099
30	119
31	609
32	10
36	10
37	40
38	109
39	1819
40	329
41	5989
42	1459
43	3119
44	139
45	1959
46	70
47	60
48	10
49	10
50	70
51	129
52	70
53	479
54	609
55	5739
56	979
57	449
58	379
59	769
60	7909
61	329
62	50
63	30
64	10
65	80
66	99
67	879
68	2999
69	9439
70	649
71	499
72	70
73	3609
74	589
75	60
77	50
78	70
79	209
80	30
81	379
82	979
83	1029
84	1499
85	249
86	159
87	1159
88	70
89	20
91	20
92	50
93	169
94	139
95	119
96	639
97	8169
98	589
99	359
100	2219
101	399
102	60
107	10
108	10
109	209
110	2299
111	399
112	229
113	289
114	329
115	3599
116	249
117	20
119	10
120	80
121	20
123	10
126	10
127	80
128	1119
129	119
130	99
132	10
137	179
138	9999
139	879
140	80
141	30
142	10
143	10
155	20
156	70
157	319
158	30
