Mass Spectrum: Tridecanedioic acid
Formula: C13 H24 O4
CAS: 505-52-2
Molecular weight: 244
Origin: NIST Mass Spectrometry Data Center, 1994
m/z	RELATIVE INTENSITY
15	127
16	23
18	19
27	2527
28	1193
29	2780
30	131
31	525
32	26
39	2287
40	557
41	6523
42	2149
43	3273
44	26
45	4047
46	165
47	127
51	192
53	655
54	966
55	8411
56	1165
57	911
58	237
59	743
60	4934
61	421
65	179
67	1254
68	912
69	4373
70	720
71	654
72	179
73	3559
74	417
75	58
77	98
79	676
80	353
81	1135
82	627
83	2692
84	6193
85	627
86	169
87	639
91	300
92	238
93	752
94	709
95	1121
96	911
97	3141
98	9999
99	941
100	219
101	730
105	170
107	261
108	203
109	400
110	673
111	875
112	3018
113	420
114	254
115	257
116	34
119	175
120	405
121	1714
122	229
123	567
124	709
125	286
126	338
127	211
128	34
129	433
130	212
131	106
133	54
134	226
135	201
136	322
137	399
138	525
139	2593
140	443
143	183
150	77
152	2334
153	411
154	143
155	149
157	251
162	223
170	163
171	103
172	189
180	654
181	164
197	102
199	353
