Mass Spectrum: 2-Cyclopenten-1-one, 4-acetyl-2,3,4,5,5-pentamethyl-
Formula: C12 H18 O2
CAS: 50506-59-7
Molecular weight: 194
m/z	RELATIVE INTENSITY
53	1200
55	1200
67	1200
81	3500
91	1200
93	900
95	800
109	900
123	5299
137	5999
152	9999
166	100
179	100
194	150
