Mass Spectrum: 5-Methoxybenzofuran-2-carboxylic acid, ethyl ester
Formula: C12 H12 O4
CAS: 50551-56-9
Molecular weight: 220
Origin: NIST Mass Spectrometry Data Center, 1994
m/z	RELATIVE INTENSITY
14	152
15	1172
16	42
17	27
18	44
26	469
27	1546
28	722
29	2651
30	116
31	46
37	98
38	361
39	492
40	34
41	177
42	62
43	279
44	120
45	252
49	159
50	1819
51	1027
52	86
53	457
54	363
55	81
58	58
59	58
61	176
62	889
63	770
64	180
65	1476
66	223
67	49
69	110
73	62
74	454
75	700
76	2687
77	2089
78	260
79	194
82	123
85	91
86	291
87	519
88	608
89	630
90	144
91	375
92	184
93	198
95	20
101	39
103	213
104	388
105	613
106	98
107	525
108	64
115	42
116	117
117	66
118	39
119	3761
120	469
121	243
131	343
132	533
133	719
134	156
135	93
143	38
144	117
145	198
146	92
147	333
148	2321
149	1457
150	136
159	114
160	360
161	494
162	628
163	162
164	38
173	39
175	4057
176	1192
177	5661
178	580
179	64
189	124
190	40
192	6058
193	679
194	87
205	875
206	102
220	9999
221	1282
222	157
