Mass Spectrum: 5-Hexen-2-ol, 5-methyl-
Formula: C7 H14 O
CAS: 50551-88-7
Molecular weight: 114
Origin: NIST Mass Spectrometry Data Center, 1990.
m/z	RELATIVE INTENSITY
14	65
15	509
16	64
18	270
19	362
26	274
27	3007
28	1482
29	2611
30	125
31	886
32	310
37	155
38	452
39	4457
40	1135
41	5063
42	1765
43	5990
44	602
45	6273
46	136
50	430
51	590
52	322
53	1828
54	1305
55	6022
56	1129
57	1794
58	5230
59	1839
63	150
65	495
66	235
67	1412
68	664
69	615
70	1910
71	605
77	354
78	142
79	2011
81	9999
82	631
85	210
95	442
96	956
97	208
99	568
