Mass Spectrum: Acetamide, 2-chloro-N-(2,6-dimethylphenyl)-N-(2-methoxyethyl)-
Formula: C13 H18 Cl N O2
CAS: 50563-36-5
Molecular weight: 255
Origin: NIST Mass Spectrometry Data Center, 1995
m/z	RELATIVE INTENSITY
12	13
14	12
15	1301
17	30
18	71
26	64
27	643
28	21
29	1285
30	107
31	571
33	39
35	17
36	48
37	21
38	70
39	684
40	88
41	279
42	335
43	492
44	17
45	2200
46	63
47	16
48	16
49	629
50	134
51	640
52	212
53	253
54	78
55	31
56	14
57	20
58	103
59	1079
60	39
61	11
62	51
63	239
64	108
65	482
66	79
67	29
68	12
69	10
70	11
71	10
72	10
73	13
74	20
75	44
77	1762
78	405
79	930
80	78
86	7
87	18
89	217
90	151
91	754
92	136
93	71
94	17
99	8
100	8
101	16
102	145
103	572
104	225
105	857
106	156
107	68
108	7
115	121
116	132
117	1121
118	472
119	232
120	261
121	205
122	61
127	9
128	34
130	411
131	433
132	2012
133	9
134	9999
135	974
136	148
137	8
140	8
141	8
142	22
143	25
144	141
145	108
146	344
147	162
148	1174
149	120
150	12
153	7
156	9
158	15
160	96
161	92
162	33
163	36
168	9
172	7
173	12
174	258
175	37
176	14
177	12
178	42
180	11
182	31
184	12
188	21
192	17
193	7
194	14
197	3793
198	446
199	1177
200	139
201	9
204	8
205	6
206	448
207	71
208	32
209	6
210	1219
211	164
212	410
213	46
220	15
223	7
224	40
226	17
240	24
241	9
242	9
255	135
256	23
257	40
