Mass Spectrum: 1,2-Cyclopentanediol, trans-
Formula: C5 H10 O2
CAS: 5057-99-8
Molecular weight: 102
m/z	RELATIVE INTENSITY
39	2490
40	843
41	5180
42	3393
43	2771
44	4216
45	763
47	120
49	241
50	201
51	241
52	141
53	582
54	723
55	9999
56	5140
57	4578
58	4337
59	161
60	281
61	161
62	161
63	161
64	161
65	361
66	582
67	723
68	201
69	883
70	321
71	341
72	522
73	281
74	181
81	161
82	1084
83	3112
84	5783
85	502
100	442
101	80
102	141
