Mass Spectrum: Pyridine, 2-butyl-
Formula: C9 H13 N
CAS: 5058-19-5
Molecular weight: 135
Origin: D.HENNEBERG, MAX-PLANCK INSTITUTE, MULHEIM, WEST GERMANY
m/z	RELATIVE INTENSITY
26	101
27	405
29	159
30	18
31	26
32	17
38	9
39	443
40	93
41	331
42	52
43	57
44	11
45	7
47	3
50	58
51	341
52	296
53	221
54	75
55	41
56	16
57	31
59	14
62	5
63	27
64	44
65	654
66	507
67	134
68	23
69	9
71	8
73	10
74	5
75	30
76	15
77	149
78	761
79	466
80	135
81	10
83	6
87	9
88	3
89	16
90	29
91	108
92	644
93	9999
94	724
95	28
103	9
104	99
105	41
106	2513
107	489
108	33
115	5
116	8
117	137
118	210
119	79
120	1247
121	106
122	4
130	28
131	16
132	53
133	7
134	268
135	124
136	11
