Mass Spectrum: Cyclohexanone, 2,2-dimethyl-6,6-diphenyl-
Formula: C20 H22 O
CAS: 50592-53-5
Molecular weight: 278
m/z	RELATIVE INTENSITY
91	2540
103	1500
115	3210
128	440
129	450
152	800
165	4370
167	3790
178	2970
179	3100
180	9999
193	5939
206	8969
250	1990
278	2320
