Mass Spectrum: 3-Iodo-4-methoxytoluene
Formula: C8 H9 I O
CAS: 50597-88-1
Molecular weight: 248
Origin: NIST Mass Spectrometry Data Center, 1994
m/z	RELATIVE INTENSITY
13	40
14	169
15	1889
16	57
18	21
25	51
26	294
27	780
28	21
29	414
30	112
31	51
37	294
38	570
39	1882
40	211
41	255
43	49
49	257
50	2447
51	3720
52	2149
53	1015
54	70
55	59
60	75
61	432
62	895
63	1913
64	534
65	2766
66	224
73	141
74	569
75	332
76	521
77	2532
78	6794
79	534
80	37
85	135
86	236
87	146
88	37
89	1531
90	1080
91	3590
92	371
93	188
105	1917
106	3703
107	314
119	41
121	1613
122	176
124	174
127	862
128	84
205	310
217	56
233	3047
234	239
248	9999
249	880
250	34
