Mass Spectrum: Cyclohexanone, 2-(3-chloro-2-butenyl)-2-methyl-6,6-diphenyl-
Formula: C23 H25 Cl O
CAS: 50592-54-6
Molecular weight: 352
m/z	RELATIVE INTENSITY
91	5469
103	1850
115	4410
128	610
129	720
152	830
165	4999
167	4970
178	3310
179	3540
180	9999
193	3090
206	9949
233	4590
352	3410
