Mass Spectrum: Cyclohexanone, 6-methyl-2,2-diphenyl-
Formula: C19 H20 O
CAS: 50592-52-4
Molecular weight: 264
m/z	RELATIVE INTENSITY
91	3080
103	1130
115	4800
128	610
129	620
152	870
165	4860
167	4320
178	3530
179	3250
180	8339
193	9999
206	9899
236	1310
264	3590
