Mass Spectrum: Acifluorfen
Formula: C14 H7 Cl F3 N O5
CAS: 50594-66-6
Molecular weight: 361
Origin: Organic Synthesis Lab, MSU, Moscow.TRS 767
m/z	RELATIVE INTENSITY
26	69
27	79
29	69
30	949
31	19
35	9
36	119
37	109
38	399
39	429
41	19
42	9
43	19
44	689
45	299
46	119
49	29
50	1119
51	489
52	649
53	889
54	109
55	279
56	9
57	108
61	139
62	669
63	2358
64	809
65	108
66	109
67	59
68	39
69	799
70	19
72	19
73	99
74	1239
75	2839
76	1339
77	139
78	109
79	449
80	299
81	129
82	39
83	19
84	39
85	29
86	49
87	89
88	79
89	19
90	69
91	299
92	889
93	149
94	129
95	49
96	19
97	99
98	29
99	129
101	19
102	19
103	59
104	49
105	29
106	169
107	149
108	599
109	69
110	39
111	79
112	49
113	139
115	9
117	99
118	19
119	269
120	149
121	19
122	79
123	59
124	29
125	279
126	89
127	69
129	159
131	79
132	529
133	39
134	69
135	49
136	119
137	99
138	119
139	199
140	19
141	49
143	219
144	359
145	89
146	109
147	59
148	139
149	29
150	29
151	29
152	19
155	199
156	79
157	159
158	29
159	79
160	129
161	89
162	589
163	59
164	179
165	29
166	1409
167	209
168	39
169	129
170	69
171	9
173	119
174	29
175	149
176	49
177	129
178	19
179	1079
180	109
181	329
182	69
183	109
184	19
185	69
186	109
187	59
188	149
189	59
190	39
191	49
192	19
193	69
194	29
195	849
196	1009
197	119
198	79
199	49
201	19
202	229
203	39
204	129
205	89
206	249
207	779
208	169
209	39
211	469
212	79
213	159
214	19
215	19
216	29
217	239
218	339
219	109
220	149
221	29
222	29
223	699
224	539
225	79
229	39
230	29
231	69
232	39
233	109
234	219
235	299
236	1539
237	259
238	49
239	49
240	49
241	179
242	19
243	219
244	29
245	49
247	9
249	39
250	79
251	329
252	2299
253	349
254	59
257	159
258	29
259	249
260	29
261	59
262	9
263	89
264	59
265	169
266	39
267	119
268	79
269	149
270	159
271	119
272	49
273	29
275	79
277	39
278	99
279	39
280	139
281	29
282	59
285	99
286	79
287	1679
288	259
289	549
290	69
295	29
296	39
297	39
298	109
299	29
300	89
301	39
302	19
303	109
304	9
305	29
308	59
310	29
312	29
313	429
314	89
315	589
316	139
317	1479
318	229
319	459
320	59
326	9
331	2049
332	319
333	709
334	99
342	939
343	169
344	349
345	329
346	49
347	79
361	9999
362	1609
363	3389
364	509
365	59
