Mass Spectrum: Cyclohexanone, 6-[(butylthio)methylene]-2,2-diphenyl-
Formula: C23 H26 O S
CAS: 50592-51-3
Molecular weight: 350
m/z	RELATIVE INTENSITY
91	1900
103	400
115	3370
128	320
129	410
152	320
165	900
167	580
178	1220
179	480
180	360
193	9999
293	1130
350	1860
