Mass Spectrum: Hexacosanoic acid
Formula: C26 H52 O2
CAS: 506-46-7
Molecular weight: 396
Origin: Japan AIST/NIMC Database- Spectrum MS-NW-6086
m/z	RELATIVE INTENSITY
15	20
16	20
17	30
18	99
26	40
27	799
28	249
29	2329
30	80
31	70
33	10
37	10
38	10
39	569
40	129
41	5479
42	1199
43	9999
44	329
45	329
46	10
47	10
49	10
50	10
51	30
52	20
53	319
54	579
55	6179
56	1789
57	8149
58	419
59	269
60	3969
61	1889
62	90
63	20
65	60
66	70
67	819
68	709
69	3919
70	1239
71	4149
72	259
73	4589
74	529
75	40
76	20
77	70
78	40
79	189
80	139
81	769
82	849
83	3009
84	1019
85	2509
86	199
87	1199
88	119
89	20
91	50
92	40
93	129
94	119
95	569
96	709
97	2509
98	1619
99	809
100	99
101	529
102	249
103	30
104	20
105	30
106	30
107	119
108	70
109	339
110	329
111	1309
112	509
113	569
114	90
115	819
116	859
117	80
118	20
119	30
120	20
121	189
122	80
123	199
124	199
125	729
126	249
127	369
128	50
129	3029
130	379
131	50
132	10
133	30
134	20
135	179
136	60
137	119
138	129
139	509
140	219
141	289
142	40
143	429
144	90
145	10
147	20
148	10
149	109
150	40
151	60
152	109
153	319
154	159
155	229
156	50
157	189
158	139
159	20
161	10
162	10
163	70
164	30
165	30
166	90
167	209
168	129
169	179
170	40
171	549
172	219
173	30
177	50
178	10
179	30
180	70
181	159
182	119
183	149
184	30
185	999
186	189
187	20
191	40
192	10
193	10
194	70
195	119
196	99
197	119
198	30
199	209
200	60
201	10
203	10
204	10
205	30
206	20
207	20
208	60
209	119
210	99
211	119
212	30
213	129
214	60
215	10
219	30
220	10
221	20
222	60
223	99
224	90
225	90
226	20
227	239
228	90
229	20
233	10
234	20
235	10
236	50
237	90
238	99
239	80
240	20
241	419
242	109
243	20
245	10
247	10
248	10
249	10
250	50
251	60
252	90
253	50
254	10
255	159
256	50
257	10
261	10
263	10
264	40
265	50
266	90
267	40
268	20
269	90
270	40
271	10
275	10
276	10
277	10
278	40
279	40
280	70
281	30
282	20
283	139
284	60
285	10
291	10
292	60
293	50
294	60
295	40
296	10
297	459
298	129
299	30
303	10
304	10
305	10
306	20
307	30
308	70
309	30
310	20
311	219
312	70
313	20
315	10
317	10
319	10
320	10
321	20
322	40
323	20
325	70
326	20
332	10
334	109
335	50
336	179
337	109
338	30
339	119
340	50
341	10
342	10
348	20
349	20
350	90
351	20
352	30
353	739
354	199
355	30
358	10
359	10
360	90
361	30
362	10
363	10
364	10
367	119
368	50
369	10
374	10
375	10
376	60
377	50
378	129
379	70
380	20
381	20
382	20
383	10
392	10
393	10
394	10
395	50
396	9839
397	2919
398	479
399	50
