Mass Spectrum: Mercury, bromomethyl-
Formula: C H3 Br Hg
CAS: 506-83-2
Molecular weight: 296
m/z	RELATIVE INTENSITY
79	2700
80	800
81	2700
82	700
91	800
92	1300
93	2600
94	1500
95	1800
198	2400
199	4300
200	5999
201	3700
202	7499
204	1600
212	1100
213	3700
214	5699
215	6699
216	4700
217	7299
219	1600
277	1200
278	2000
279	4000
280	3700
281	6399
282	1700
283	4400
292	2100
293	3400
294	6499
295	5899
296	9999
297	2600
298	6699
300	1200
