Mass Spectrum: 9,12-Octadecadien-1-ol, (Z,Z)-
Formula: C18 H34 O
CAS: 506-43-4
Molecular weight: 266
Origin: Japan AIST/NIMC Database- Spectrum MS-IW-4198
m/z	RELATIVE INTENSITY
14	10
15	90
18	20
26	30
27	349
28	439
29	879
30	20
31	359
32	139
38	10
39	459
40	80
41	2989
42	369
43	2129
44	129
45	80
50	10
51	40
52	40
53	499
54	3929
55	5019
56	639
57	1139
58	539
59	249
60	20
63	10
65	329
66	849
67	9999
68	5459
69	3189
70	619
71	869
72	119
73	40
77	559
78	379
79	3349
80	3009
81	9539
82	7719
83	2279
84	619
85	609
86	129
87	30
91	589
92	179
93	2309
94	1689
95	6779
96	5929
97	1789
98	1409
99	259
100	70
101	90
103	20
104	20
105	159
106	60
107	1339
108	969
109	2929
110	2949
111	909
112	449
113	90
114	30
115	20
117	40
118	10
119	80
120	60
121	2139
122	779
123	1209
124	1439
125	349
126	159
127	40
128	20
129	10
131	30
133	50
134	30
135	1319
136	639
137	619
138	749
139	179
140	109
141	40
142	10
145	10
147	30
148	20
149	549
150	319
151	279
152	449
153	119
154	90
155	20
161	10
162	10
163	239
164	129
165	149
166	299
167	80
168	70
169	10
177	119
178	60
179	80
180	109
181	50
182	70
183	10
191	90
192	40
193	50
194	50
195	60
196	60
197	10
205	50
206	30
207	30
208	10
209	50
210	50
211	10
219	40
220	20
221	10
222	60
223	60
224	40
235	10
237	30
246	10
248	219
249	50
250	10
264	60
265	20
266	579
267	109
268	10
