Mass Spectrum: n-Tetracosanol-1
Formula: C24 H50 O
CAS: 506-51-4
Molecular weight: 354
Origin: NIST Mass Spectrometry Data Center
m/z	RELATIVE INTENSITY
19	10
27	290
28	60
29	1091
30	30
31	581
39	380
41	4794
42	1331
43	8027
44	350
45	100
50	10
51	20
52	10
53	300
54	971
55	9469
56	3944
57	9999
58	470
59	30
65	60
66	150
67	1692
68	3073
69	7747
70	3523
71	4814
72	260
73	140
74	10
77	40
78	10
79	160
80	100
81	1291
82	4544
83	9539
84	2642
85	3263
86	210
87	30
91	30
92	10
93	40
94	50
95	821
96	2192
97	9418
98	1842
99	871
100	70
104	10
105	10
106	10
107	10
108	30
109	370
110	921
111	5195
112	1271
113	520
114	40
121	10
122	40
123	240
124	631
125	2642
126	811
127	330
128	30
129	10
136	20
137	150
138	390
139	991
140	500
141	190
142	20
151	40
152	240
153	550
154	350
155	130
156	10
165	20
166	170
167	340
168	240
169	90
170	10
179	10
180	120
181	190
182	170
183	60
184	10
193	10
194	90
195	130
196	120
197	40
208	80
209	90
210	90
211	30
222	70
223	60
224	70
225	20
236	60
237	40
238	60
239	10
250	50
251	30
252	50
253	10
264	40
265	30
266	40
267	20
278	30
279	20
280	40
292	20
293	10
294	20
306	10
307	10
308	150
309	40
336	130
337	30
