Mass Spectrum: Arachidonic acid
Formula: C20 H32 O2
CAS: 506-32-1
Molecular weight: 304
Origin: NIST Mass Spectrometry Data Center
m/z	RELATIVE INTENSITY
15	10
26	20
27	530
28	90
29	1091
30	30
31	30
36	10
37	10
38	30
39	1091
40	180
41	4774
42	480
43	1581
44	60
45	410
46	10
47	10
50	50
51	270
52	210
53	1271
54	1121
55	4154
56	430
57	921
58	130
59	110
60	1011
61	60
62	20
63	90
64	40
65	1341
66	1361
67	6606
68	921
69	1561
70	270
71	631
72	50
73	460
74	100
75	50
77	3553
78	2082
79	9999
80	6266
81	3553
82	901
83	761
84	270
85	450
86	40
87	140
88	160
89	70
91	7427
92	2282
93	5475
94	1892
95	2002
96	861
97	510
98	160
99	110
100	40
101	110
102	80
103	370
104	851
105	3994
106	2712
107	1942
108	520
109	671
110	320
111	190
112	70
113	100
114	60
115	430
116	180
117	1141
118	330
119	2692
120	1141
121	1251
122	330
123	320
124	200
125	90
126	100
127	150
128	170
129	390
130	260
131	791
132	240
133	1481
134	380
135	661
136	240
137	190
138	90
139	50
140	110
141	110
142	60
143	120
144	80
145	310
146	240
147	781
148	200
149	280
150	1491
151	310
152	170
153	80
154	40
155	60
156	20
157	160
158	30
159	180
160	110
161	380
162	120
163	160
164	520
165	170
166	851
167	140
168	40
169	80
170	20
171	60
172	10
173	120
174	50
175	300
176	140
177	370
178	110
179	100
180	220
181	50
182	20
183	150
184	20
185	30
186	10
187	90
188	30
189	120
190	140
191	90
192	60
193	250
194	70
195	20
196	20
197	40
198	10
199	10
201	70
202	20
203	180
204	50
205	80
206	340
207	80
208	20
209	10
210	10
211	10
213	10
215	30
216	10
217	160
218	40
219	110
220	60
221	20
222	20
223	20
224	60
225	10
229	10
230	10
231	30
232	10
233	120
234	40
235	20
236	50
237	20
238	10
239	10
241	10
244	10
245	10
247	60
248	20
249	10
250	80
251	20
257	10
261	20
262	10
263	20
264	40
265	10
275	10
276	20
278	20
280	30
281	10
282	10
284	10
304	30
305	10
