Mass Spectrum: Cyanogen chloride
Formula: C Cl N
CAS: 506-77-4
Molecular weight: 61
m/z	RELATIVE INTENSITY
12	390
14	110
26	751
27	10
35	1081
37	350
61	9999
62	150
63	3183
64	50
