Mass Spectrum: Cyanogen bromide
Formula: C Br N
CAS: 506-68-3
Molecular weight: 105
Origin: A.A.Kutin, Moscow, Russia
m/z	RELATIVE INTENSITY
26	200
53	701
54	601
79	711
81	691
105	9999
107	9499
