Mass Spectrum: 9,12,15-Octadecatrien-1-ol, (Z,Z,Z)-
Formula: C18 H32 O
CAS: 506-44-5
Molecular weight: 264
Origin: NIST Mass Spectrometry Data Center
m/z	RELATIVE INTENSITY
27	280
29	651
39	1021
41	4324
42	450
43	1401
45	721
51	240
52	170
53	1041
54	921
55	4014
56	410
57	731
59	190
60	821
65	901
66	1111
67	7136
68	1391
69	1692
71	540
73	1071
77	2542
78	1201
79	9999
80	4224
81	3453
82	1311
83	841
85	370
91	2702
92	510
93	4714
94	1551
95	3573
96	721
99	220
101	210
105	711
106	340
107	1832
108	3313
109	981
117	500
119	520
121	1491
122	911
123	360
126	210
127	210
133	330
135	1561
136	621
148	170
149	631
150	230
159	200
195	270
208	861
209	160
210	160
221	150
235	250
264	430
265	70
