Mass Spectrum: Octacosanoic acid
Formula: C28 H56 O2
CAS: 506-48-9
Molecular weight: 424
Origin: Japan AIST/NIMC Database- Spectrum MS-NW-6944
m/z	RELATIVE INTENSITY
26	20
27	469
28	139
29	1509
30	40
31	40
38	10
39	399
40	90
41	3879
42	869
43	7759
44	249
45	209
51	20
52	10
53	219
54	459
55	5349
56	1699
57	7649
58	379
59	189
60	3639
61	1809
62	60
63	10
65	40
66	60
67	729
68	689
69	3749
70	1249
71	4369
72	229
73	4789
74	449
75	40
77	40
78	20
79	159
80	99
81	689
82	789
83	3339
84	1009
85	2739
86	199
87	1079
88	109
89	10
91	50
92	40
93	119
94	90
95	519
96	749
97	2779
98	1429
99	919
100	90
101	509
102	229
103	20
104	10
105	60
106	20
107	109
108	60
109	329
110	339
111	1489
112	539
113	599
114	80
115	849
116	729
117	80
118	20
119	30
120	10
121	179
122	70
123	209
124	219
125	899
126	279
127	459
128	60
129	3289
130	349
131	40
132	10
133	30
134	10
135	199
136	50
137	119
138	169
139	549
140	199
141	329
142	50
143	399
144	90
145	20
147	10
149	139
150	30
151	60
152	139
153	389
154	189
155	279
156	50
157	229
158	129
159	20
161	10
163	99
164	20
165	40
166	90
167	269
168	139
169	199
170	40
171	599
172	229
173	30
177	60
178	20
179	30
180	70
181	189
182	119
183	189
184	30
185	1119
186	179
187	20
189	10
191	50
192	20
193	20
194	70
195	149
196	109
197	129
198	30
199	169
200	50
201	10
205	30
206	20
207	10
208	60
209	119
210	119
211	109
212	20
213	209
214	90
215	20
219	20
220	20
221	10
222	60
223	109
224	109
225	109
226	20
227	319
228	99
229	20
233	20
234	10
235	10
236	60
237	90
238	119
239	90
240	20
241	329
242	80
243	10
247	10
248	10
249	10
250	60
251	80
252	90
253	70
254	10
255	129
256	70
257	10
261	10
262	10
263	10
264	50
265	70
266	99
267	60
268	20
269	299
270	109
271	20
275	10
276	10
277	10
278	40
279	60
280	90
281	50
282	10
283	259
284	80
285	10
289	10
290	10
291	10
292	40
293	50
294	80
295	50
296	10
297	149
298	50
299	10
303	10
305	10
306	40
307	50
308	60
309	30
310	10
311	129
312	70
313	20
318	10
319	10
320	50
321	50
322	60
323	20
325	739
326	179
327	30
333	10
334	20
335	30
336	70
337	20
339	349
340	90
341	10
349	20
350	40
351	10
353	90
354	30
362	159
363	40
364	139
365	90
366	10
367	179
368	90
369	20
370	10
372	20
373	10
376	10
377	20
378	70
379	20
380	10
381	1249
382	359
383	60
384	10
388	99
389	30
395	189
396	60
397	10
404	10
405	40
406	149
407	80
408	20
422	10
423	10
424	9999
425	3069
426	549
427	60
