Mass Spectrum: Hydroxymethyl-methaqualon
Formula: C16 H14 N2 O2
CAS: 5060-49-1
Molecular weight: 266
Origin: Dr. Jiri Zamecnik, DCIEM, North York, Canada, GP Library
m/z	RELATIVE INTENSITY
65	770
75	530
76	2280
77	4990
89	690
90	480
91	430
103	400
104	880
105	1250
117	500
118	800
120	620
130	300
132	1380
143	320
144	840
146	2110
159	180
160	9999
161	1440
178	90
180	90
195	180
196	90
223	200
233	200
235	2950
236	650
247	1580
251	1610
252	280
266	2550
267	350
