Mass Spectrum: 4(3H)-Quinazolinone, 3-(4-hydroxy-2-methylphenyl)-2-methyl-
Formula: C16 H14 N2 O2
CAS: 5060-52-6
Molecular weight: 266
Origin: JAMES A. KELLEY
m/z	RELATIVE INTENSITY
38	60
39	370
40	60
41	110
42	90
43	90
44	40
45	10
50	510
51	370
52	250
53	280
54	30
55	180
56	10
57	20
58	50
61	10
62	70
63	320
64	170
65	240
66	150
67	90
68	20
69	30
70	10
71	30
74	140
75	310
76	1370
77	2520
78	430
79	380
80	120
81	60
82	10
83	120
86	10
87	10
88	40
89	350
90	370
91	150
92	140
93	40
94	50
95	20
98	290
100	60
101	40
102	420
103	140
104	190
105	160
106	60
107	500
108	40
109	20
110	50
111	120
112	80
114	20
115	100
116	350
117	290
118	130
119	370
120	300
121	60
122	10
123	20
124	50
127	30
128	30
129	30
130	60
131	30
132	120
133	290
134	30
139	30
140	40
141	30
143	2310
144	400
145	70
146	90
148	640
149	60
151	20
152	30
153	40
154	20
158	40
160	40
161	20
162	40
166	50
167	160
168	80
169	20
178	40
179	20
180	30
181	30
182	30
183	40
192	10
193	50
194	20
195	80
196	210
197	40
205	270
206	170
207	50
208	30
209	50
211	10
219	20
220	20
221	140
222	120
223	230
224	170
225	20
233	400
234	110
235	40
237	80
247	10
249	3950
250	420
251	9999
252	1760
253	170
266	5019
267	920
268	90
