Mass Spectrum: Nonanoic acid, butyl ester
Formula: C13 H26 O2
CAS: 50623-57-9
Molecular weight: 214
Origin: V.G. Zaikin, R.S.Borisov, TIPS RAS, Moscow, Russia
m/z	RELATIVE INTENSITY
25	10
26	100
27	851
29	2292
30	50
31	70
39	520
40	110
41	3163
42	631
43	2472
44	130
45	110
53	130
54	160
55	2012
56	9999
57	4844
58	220
59	110
60	2672
61	1271
62	30
65	10
67	270
68	190
69	801
70	240
71	1571
72	110
73	2112
74	180
75	50
80	10
81	350
82	50
83	440
84	390
85	80
86	70
87	550
88	50
89	400
90	10
93	20
94	30
95	90
96	170
97	450
98	280
99	60
100	20
101	641
102	50
103	270
104	10
111	90
112	130
113	20
114	10
115	801
116	651
117	180
121	40
122	20
123	110
125	30
129	1031
130	80
138	20
139	120
140	20
141	5275
142	500
143	80
157	40
158	500
159	6346
160	631
161	40
171	110
185	110
214	70
215	10
