Mass Spectrum: Oxirane, pentyl-
Formula: C7 H14 O
CAS: 5063-65-0
Molecular weight: 114
Origin: Japan AIST/NIMC Database- Spectrum MS-NW-3138
m/z	RELATIVE INTENSITY
14	40
15	299
17	10
18	40
26	189
27	2789
28	669
29	2839
30	109
31	1329
32	90
36	10
37	40
38	119
39	2039
40	369
41	6949
42	3359
43	3419
44	719
45	679
46	10
49	20
50	80
51	149
52	60
53	469
54	869
55	4609
56	5029
57	1689
58	4139
59	399
60	20
62	20
63	30
65	80
66	40
67	1479
68	439
69	1189
70	559
71	9999
72	749
73	70
74	10
77	40
79	99
80	20
81	629
82	789
83	239
84	169
85	1229
86	199
87	10
91	10
93	10
94	10
95	60
96	249
97	60
98	20
99	60
112	10
113	30
114	20
