Mass Spectrum: 2-Acetyl-5-norbornene
Formula: C9 H12 O
CAS: 5063-03-6
Molecular weight: 136
Origin: NIST Mass Spectrometry Data Center
m/z	RELATIVE INTENSITY
12	10
14	70
15	520
17	10
25	10
26	170
27	941
28	180
29	10
32	10
37	100
38	310
39	1962
40	581
41	520
43	3183
44	60
50	250
51	510
52	210
53	250
55	661
56	20
58	881
61	40
62	130
63	300
65	1301
66	9999
67	561
68	20
69	10
71	1411
72	70
75	20
77	1091
78	540
79	250
80	20
81	30
82	60
86	10
89	40
91	1141
92	230
93	1121
94	100
95	50
103	20
105	10
107	10
108	30
109	10
115	20
117	60
118	30
121	80
136	731
137	70
