Mass Spectrum: N,N-Dimethyl-dimethylphosphoric amide
Formula: C4 H12 N O P
CAS: 50663-05-3
Molecular weight: 121
Origin: ASES Database, Dalian Institute, P.R. China
m/z	RELATIVE INTENSITY
41	40
42	1080
43	120
44	9999
45	400
46	30
47	340
49	230
58	520
60	40
62	30
63	1111
76	30
77	1451
78	1741
79	150
90	120
92	20
106	2672
107	60
120	60
121	1591
122	40
