Mass Spectrum: 2-Chlorobenzoyl isothiocyanate
Formula: C8 H4 Cl N O S
CAS: 5067-90-3
Molecular weight: 197
Origin: NIST Mass Spectrometry Data Center
m/z	RELATIVE INTENSITY
14	40
16	30
26	80
27	150
28	250
29	20
31	70
32	260
36	90
37	220
38	230
39	100
40	40
44	50
45	80
48	50
49	190
50	1331
51	601
55	70
58	430
59	90
60	140
61	210
62	90
63	140
69	80
72	60
73	100
74	851
75	2903
76	571
77	40
84	190
85	400
86	170
87	150
102	20
111	3843
112	310
113	1231
114	100
137	150
139	9999
140	771
141	2993
142	210
197	30
