Mass Spectrum: Terfenadine
Formula: C32 H41 N O2
CAS: 50679-08-8
Molecular weight: 471
Origin: Patti Price, Georgia Bureau of Investigation, Decatur, Georgia
m/z	RELATIVE INTENSITY
39	90
41	520
42	410
43	210
44	180
50	40
51	210
52	30
53	60
54	90
55	780
56	360
57	1341
58	130
60	20
65	70
67	100
68	350
69	480
70	330
71	130
72	70
74	300
75	30
76	60
77	2131
78	240
79	300
80	130
81	70
82	600
83	180
84	1191
85	1801
86	260
89	40
90	30
91	1571
92	160
93	50
94	130
95	80
96	1070
97	820
98	620
99	60
102	20
103	180
104	100
105	5044
106	390
107	110
108	50
109	20
110	90
111	110
112	290
113	40
114	30
115	410
116	110
117	400
118	130
119	230
120	80
121	10
122	70
123	30
124	140
126	220
127	140
128	230
129	460
130	110
131	410
132	310
133	650
134	70
136	20
141	90
142	60
143	210
144	60
145	240
146	130
147	340
148	350
149	30
151	20
152	130
153	60
154	70
155	80
157	230
158	60
159	110
160	50
161	610
162	90
163	110
164	20
165	120
166	30
167	180
168	20
170	30
171	70
172	60
173	120
174	110
178	90
179	50
180	10
181	100
182	90
183	2242
184	330
185	40
186	20
187	80
188	190
189	100
190	100
191	100
193	50
202	170
203	860
204	220
205	110
206	40
214	10
215	30
216	50
217	40
218	40
219	90
230	210
231	60
232	60
234	20
246	20
248	200
249	50
250	90
251	10
254	10
258	20
260	30
261	10
262	2101
263	420
264	90
266	190
267	470
268	110
270	120
271	20
277	10
278	30
280	9999
281	2061
282	220
283	10
288	210
289	140
290	50
293	180
294	40
295	30
308	40
309	220
310	50
320	10
376	20
412	10
452	40
454	10
456	30
470	130
471	1211
472	420
473	80
474	10
