Mass Spectrum: Butane, 2-bromo-2-methyl-
Formula: C5 H11 Br
CAS: 507-36-8
Molecular weight: 150
Origin: Japan AIST/NIMC Database- Spectrum MS-NW-3226
m/z	RELATIVE INTENSITY
14	30
15	189
25	20
26	229
27	2109
28	159
29	2809
30	70
36	99
37	119
38	279
39	2479
40	379
41	4159
42	1579
43	9559
44	339
45	10
49	40
50	229
51	289
52	119
53	749
54	199
55	5919
56	359
57	50
59	50
60	10
61	40
62	40
63	50
65	60
66	20
67	159
68	40
69	369
70	1759
71	9999
72	579
73	30
76	30
77	50
78	10
79	90
80	179
81	99
82	189
91	10
93	30
95	20
105	10
107	80
109	50
120	30
121	279
122	40
123	279
127	30
128	60
135	50
137	50
149	109
150	10
151	109
