Mass Spectrum: Perfluoroglutaramide
Formula: C5 H4 F6 N2 O2
CAS: 507-68-6
Molecular weight: 238
Origin: NIST Mass Spectrometry Data Center, 1994
m/z	RELATIVE INTENSITY
16	185
17	23
18	18
29	81
31	190
44	9999
45	305
46	91
47	19
51	303
64	73
66	366
67	592
69	62
77	85
78	96
81	38
82	27
90	45
91	65
93	28
95	2307
96	71
97	78
105	7
108	57
109	43
112	71
113	50
116	94
119	159
126	12
128	41
136	94
144	130
146	124
156	112
171	57
172	261
175	2601
176	178
195	1457
196	90
