Mass Spectrum: Thioacetic acid
Formula: C2 H4 O S
CAS: 507-09-5
Molecular weight: 76
Origin: NIST Mass Spectrometry Data Center, 1998.
m/z	RELATIVE INTENSITY
12	10
13	30
14	90
15	590
16	10
24	10
25	30
26	40
27	20
28	50
29	90
32	300
33	580
34	80
35	30
40	40
41	210
42	1050
43	9999
44	470
45	700
46	100
47	270
48	40
49	20
56	100
57	270
58	220
59	110
60	220
61	1150
62	30
63	50
72	10
76	230
77	10
78	10
