Mass Spectrum: Acetyl iodide
Formula: C2 H3 I O
CAS: 507-02-8
Molecular weight: 170
Origin: Japan AIST/NIMC Database- Spectrum MS-IW-5817
m/z	RELATIVE INTENSITY
12	50
13	169
14	879
15	2929
16	60
17	10
18	30
24	20
25	60
26	129
27	119
28	329
29	279
31	10
40	80
41	559
42	2199
43	8889
44	249
45	20
127	9999
128	1649
140	169
141	179
142	99
143	20
155	90
156	10
