Mass Spectrum: Propane, 1,3-dichloro-1,1,2,2,3-pentafluoro-
Formula: C3 H Cl2 F5
CAS: 507-55-1
Molecular weight: 202
Origin: Thomas J.Bruno
m/z	RELATIVE INTENSITY
31	5625
35	1151
37	400
50	1121
51	2171
63	380
67	9999
69	7576
75	210
82	2252
85	5204
87	1591
93	180
98	510
100	2812
116	390
117	520
167	900
169	290
