Mass Spectrum: Methane, tetraiodo-
Formula: C I4
CAS: 507-25-5
Molecular weight: 520
Origin: RADIAN CORP
m/z	RELATIVE INTENSITY
35	60
47	140
49	50
64	100
82	110
84	70
117	30
119	30
127	9999
139	3060
140	10
174	200
176	40
196	20
209	60
211	30
266	480
267	20
301	130
303	80
393	2150
428	10
520	450
