Mass Spectrum: 5-Chloro-2-methylbenzonitrile
Formula: C8 H6 Cl N
CAS: 50712-70-4
Molecular weight: 151
Origin: NIST Mass Spectrometry Data Center, 1994
m/z	RELATIVE INTENSITY
4	14
14	24
15	62
25	17
26	146
27	205
28	128
32	10
35	45
36	52
37	368
38	428
39	887
40	62
41	45
43	154
44	114
47	63
48	43
49	278
50	708
51	495
52	156
53	25
56	85
57	486
60	111
61	498
62	790
63	1269
64	380
65	144
66	22
71	22
72	98
73	394
74	254
75	517
76	265
84	87
85	177
86	276
87	478
88	591
89	2310
90	313
91	27
96	30
97	151
98	100
99	207
100	133
101	45
102	34
109	20
110	41
111	48
112	37
114	536
116	9999
117	864
118	43
123	524
124	471
125	240
126	167
127	23
150	882
151	3813
152	607
153	1199
154	101
