Mass Spectrum: 4-Chloro-2-methylbenzonitrile
Formula: C8 H6 Cl N
CAS: 50712-68-0
Molecular weight: 151
Origin: NIST Mass Spectrometry Data Center, 1994
m/z	RELATIVE INTENSITY
14	43
15	77
25	37
26	172
27	226
28	93
35	68
36	94
37	559
38	635
39	1144
40	98
41	62
43	194
44	129
47	76
48	60
49	350
50	964
51	739
52	255
53	29
57	99
58	588
60	175
61	668
62	1119
63	1700
64	519
65	207
66	29
71	19
72	106
73	496
74	345
75	649
76	328
78	22
84	119
85	268
86	341
87	590
88	747
89	2911
90	411
91	27
96	29
97	148
98	97
99	248
100	165
101	41
102	32
109	24
110	39
111	67
112	39
113	24
114	563
115	24
116	9999
117	858
118	42
123	480
124	356
125	216
126	118
127	22
150	677
151	4563
152	593
153	1445
154	123
