Mass Spectrum: 1-(2-Furyl)-3-phenylpropane
Formula: C13 H14 O
CAS: 5073-13-2
Molecular weight: 186
Origin: V.G.Zaikin, TIPS, Russian Acad. Sci.
m/z	RELATIVE INTENSITY
40	200
41	800
50	200
51	800
52	300
53	1801
54	300
55	200
63	300
65	1501
66	400
67	400
69	200
76	100
77	1401
78	600
79	1000
80	200
81	7907
82	9999
83	600
89	200
90	200
91	3903
92	4504
93	500
94	1101
95	2001
96	200
102	200
103	800
104	1901
105	3603
106	300
107	100
116	300
117	100
118	500
119	500
126	150
127	200
128	200
186	8207
187	1180
188	80
