Mass Spectrum: Chromone-3-carbonitrile
Formula: C10 H5 N O2
CAS: 50743-17-4
Molecular weight: 171
Origin: NIST Mass Spectrometry Data Center, 1994
m/z	RELATIVE INTENSITY
12	78
14	88
18	304
25	108
26	184
28	1380
29	413
31	142
32	378
37	654
38	1556
39	834
40	185
44	100
49	273
50	2064
51	964
52	160
53	656
58	142
61	517
62	969
63	2737
64	2961
65	328
66	214
67	156
72	506
73	273
74	1093
75	775
76	613
77	141
85	94
86	185
87	222
88	433
89	125
92	6607
93	484
94	63
114	446
115	1160
116	96
120	8590
121	593
143	2657
144	306
170	948
171	9999
172	1205
