Mass Spectrum: Cyclopentane, 1-methyl-2-(2-propenyl)-, trans-
Formula: C9 H16
CAS: 50746-53-7
Molecular weight: 124
Origin: A. J. HORNG
m/z	RELATIVE INTENSITY
13	19
14	75
15	557
18	19
25	12
26	330
27	3426
28	688
29	1774
30	40
37	85
38	255
39	3963
40	609
41	7254
42	610
43	511
44	21
47	14
49	20
50	207
51	493
52	260
53	1395
54	1068
55	9999
56	539
57	43
61	16
62	44
63	118
64	30
65	334
66	258
67	4280
68	839
69	167
70	32
74	22
75	22
77	324
78	95
79	466
80	168
81	2593
82	5386
83	9831
84	638
85	21
91	83
92	15
93	44
94	28
95	632
96	436
97	36
109	110
110	12
124	64
