Mass Spectrum: 3-Mercapto-3-methylbutyl formate (ester)
Formula: C6 H12 O2 S
CAS: 50746-10-6
Molecular weight: 148
Origin: W.Holscher ET AL.J.Agr.Food Chem.,40,655(1992)
m/z	RELATIVE INTENSITY
27	591
29	1021
31	1111
33	661
39	751
40	110
41	5795
42	230
43	500
45	380
47	450
53	631
55	540
56	270
57	110
59	540
61	160
67	410
68	430
69	9999
70	561
72	561
74	200
75	1421
87	540
102	3213
103	220
115	130
148	220
