Mass Spectrum: 1,5-Dimethyl-2-pyrrolidinone
Formula: C6 H11 N O
CAS: 5075-92-3
Molecular weight: 113
Origin: NIST Mass Spectrometry Data Center, 1994
m/z	RELATIVE INTENSITY
4	3
14	56
15	486
16	15
18	16
26	246
27	874
28	1096
29	391
30	333
31	20
37	39
38	92
39	567
40	20
41	2645
42	2242
43	262
44	110
49	13
50	81
51	81
52	86
53	180
54	293
55	841
56	942
57	268
58	775
59	36
66	28
67	71
68	404
69	171
70	882
71	131
80	62
81	36
82	78
83	122
84	75
85	12
94	23
98	9999
99	568
100	34
112	567
113	2057
114	166
