Mass Spectrum: Catechol, 2TMS derivative
Formula: C12 H22 O2 Si2
CAS: 5075-52-5
Molecular weight: 254
Origin: O A MAMER, MCGILL UNIVERSITY, MONTREAL
m/z	RELATIVE INTENSITY
28	79
29	64
43	215
44	150
45	1121
46	82
47	67
57	59
58	63
59	151
72	95
73	9999
74	915
75	488
91	120
105	74
131	74
133	76
136	263
137	65
147	110
149	70
151	337
166	235
167	45
239	492
240	125
254	1873
255	450
256	201
