Mass Spectrum: (5Z)-3-Methyl-1,5-heptadiene
Formula: C8 H14
CAS: 50763-51-4
Molecular weight: 110
Origin: D.HENNEBERG, MAX-PLANCK INSTITUTE, MULHEIM, WEST GERMANY
m/z	RELATIVE INTENSITY
25	18
26	70
27	1057
28	59
29	1660
30	32
32	3
35	1
37	25
38	58
39	1221
40	127
41	840
42	53
43	35
45	3
49	12
50	81
51	197
52	84
53	677
54	869
55	9999
56	916
57	39
62	14
63	29
65	232
66	79
67	523
68	659
69	107
70	9
74	10
76	3
77	121
78	31
79	126
80	69
81	1287
82	257
83	19
91	54
92	11
93	37
94	10
95	1704
96	127
97	2
105	2
109	8
110	39
