Mass Spectrum: Oxirane, trimethyl-
Formula: C5 H10 O
CAS: 5076-19-7
Molecular weight: 86
Origin: SHELL RESEARCH LIMITED THORNTON RESEARCH CENTRE
m/z	RELATIVE INTENSITY
26	538
27	3589
28	358
29	820
31	384
37	230
38	410
39	3076
40	1487
41	9487
42	7692
43	9999
44	384
45	7435
55	205
57	384
58	8461
59	769
71	333
86	205
