Mass Spectrum: 1-Hydroxy-2-butanone
Formula: C4 H8 O2
CAS: 5077-67-8
Molecular weight: 88
Origin: Chuck Anderson, Aldrich Chemical Co.
m/z	RELATIVE INTENSITY
13	21
14	117
15	182
17	16
18	51
19	31
20	98
24	5
25	72
26	613
27	2701
28	751
29	9999
30	420
31	3497
32	84
33	26
36	19
37	53
38	73
39	235
40	44
41	325
42	470
43	182
44	18
45	40
49	12
50	29
51	16
52	10
53	49
54	12
55	124
56	610
57	7398
58	299
59	132
60	42
69	34
71	19
73	19
86	46
88	762
89	52
