Mass Spectrum: Tricyclo[2.2.1.0(2,6)]heptane, 1,7,7-trimethyl-
Formula: C10 H16
CAS: 508-32-7
Molecular weight: 136
Origin: NIST Mass Spectrometry Data Center, 1990.
m/z	RELATIVE INTENSITY
14	21
15	209
16	17
17	11
18	18
26	148
27	1446
28	366
29	636
30	17
31	1
32	28
37	29
38	203
39	2242
40	420
41	2452
42	201
43	827
44	24
45	9
50	215
51	692
52	290
53	852
54	156
55	709
56	53
57	353
58	92
61	16
62	73
63	255
64	16
65	779
66	688
67	932
68	169
69	115
70	242
71	20
74	36
75	34
77	2200
78	950
79	2479
80	947
81	276
82	61
83	10
85	5
86	8
87	9
89	61
91	3146
92	2703
93	9999
94	897
95	231
96	17
101	6
102	33
103	197
104	6
105	1041
106	284
107	493
108	138
109	22
115	62
116	17
117	45
119	214
121	2001
122	201
123	9
136	1594
137	181
138	9
