Mass Spectrum: 9-Decen-1-yl acetate
Formula: C12 H22 O2
CAS: 50816-18-7
Molecular weight: 198
Origin: NIST Mass Spectrometry Data Center
m/z	RELATIVE INTENSITY
14	10
15	110
26	40
27	540
28	220
29	861
30	30
31	80
37	10
38	40
39	1421
40	260
41	4354
42	1011
43	9999
44	300
45	80
50	30
51	100
52	70
53	771
54	5935
55	8227
56	1111
57	380
58	160
59	50
60	30
61	1411
62	40
63	30
64	10
65	200
66	781
67	8057
68	7817
69	2803
70	380
71	360
72	260
73	540
74	30
75	10
77	150
78	40
79	621
80	380
81	7106
82	6806
83	1672
84	260
85	110
86	120
87	80
88	20
91	90
92	10
93	210
94	240
95	4704
96	5275
97	1391
98	220
99	50
100	40
101	70
102	20
105	10
107	50
108	100
109	3003
110	2312
111	280
112	40
113	30
114	50
115	50
116	60
117	10
119	10
121	30
122	20
123	260
124	30
125	20
126	20
127	20
128	20
129	10
130	10
135	10
136	10
137	70
138	781
139	100
140	10
141	10
155	20
156	10
161	10
