Mass Spectrum: Methyl 3-methoxy-4-nitrobenzoate
Formula: C9 H9 N O5
CAS: 5081-37-8
Molecular weight: 211
Origin: NIST Mass Spectrometry Data Center
m/z	RELATIVE INTENSITY
12	90
13	120
14	410
15	7547
16	90
18	130
26	180
27	150
28	400
29	1852
30	4304
31	530
37	721
38	1461
39	1872
40	140
41	200
42	170
43	110
44	90
45	90
46	480
49	260
50	2913
51	2883
52	1051
53	2162
54	230
55	190
59	4874
60	190
61	1081
62	3563
63	6836
64	1141
65	1421
66	761
67	290
68	70
69	420
70	60
73	360
74	2062
75	3523
76	7297
77	3493
78	1231
79	1732
80	460
81	190
82	180
89	60
90	260
91	2843
92	3303
93	1171
94	611
95	571
96	90
103	1772
104	3203
105	1561
106	1351
107	831
108	510
109	280
110	440
111	60
119	9699
120	3513
121	1822
122	3863
123	991
124	90
125	1021
126	90
133	2482
134	370
135	1011
136	3153
137	470
138	440
139	60
149	781
150	851
151	1131
152	230
153	1732
154	200
164	9999
165	931
166	380
178	50
180	4674
181	6055
182	1121
183	110
211	6005
212	591
213	100
