Mass Spectrum: 1-Bromo-8-tetrahydropyranyloxyoctane
Formula: C13 H25 Br O2
CAS: 50816-20-1
Molecular weight: 292
Origin: Japan AIST/NIMC Database- Spectrum MS-NW-6120
m/z	RELATIVE INTENSITY
14	10
15	40
17	10
18	40
26	80
27	789
28	419
29	1079
30	30
31	389
32	10
38	30
39	529
40	119
41	2719
42	459
43	1069
44	159
45	60
47	50
49	10
50	30
51	40
52	20
53	209
54	359
55	2759
56	2949
57	1639
58	90
59	50
63	10
65	30
66	30
67	699
68	399
69	2829
70	249
71	279
72	20
73	30
74	90
77	20
78	10
79	30
80	40
81	189
82	239
83	599
84	909
85	9999
86	639
87	50
91	10
93	20
95	40
96	10
97	30
98	10
99	10
100	20
101	649
102	119
103	60
107	90
109	80
110	30
111	619
112	60
115	179
116	20
120	20
121	40
122	20
123	40
129	10
134	30
135	249
136	40
137	219
138	10
147	10
148	199
149	119
150	209
151	119
152	10
155	50
161	10
162	169
163	20
164	159
165	10
185	20
188	20
189	10
190	70
191	99
192	70
193	99
194	10
219	50
221	40
234	10
236	10
237	10
239	10
291	99
292	20
293	99
294	20
