Mass Spectrum: m-Trifluoromethoxybenzyl alcohol
Formula: C8 H7 F3 O2
CAS: 50823-90-0
Molecular weight: 192
Origin: Div. of Experiment Therapeutics WRAIR, WRAMC, Washington DC 20307
m/z	RELATIVE INTENSITY
41	331
42	17
43	62
47	64
49	104
50	343
51	719
52	219
53	212
55	190
57	50
59	5
61	83
62	243
63	1071
64	295
65	769
66	679
67	588
69	2469
70	21
71	23
73	16
74	61
75	152
76	161
77	1950
78	575
79	1105
80	53
81	47
83	112
84	18
85	9
86	25
87	29
89	219
90	9
91	95
92	225
93	67
94	163
95	311
96	25
97	104
103	27
105	957
107	4035
108	180
109	679
110	35
115	93
117	6
119	10
121	27
123	61
125	67
127	70
128	17
129	11
131	30
133	45
135	38
139	28
141	32
143	88
145	46
147	15
149	24
152	31
153	409
154	52
155	26
157	56
159	25
161	17
162	407
163	345
164	64
173	7
174	510
175	9999
176	873
177	87
188	6
189	218
191	1213
192	8192
193	692
194	64
195	17
