Mass Spectrum: D:A-Friedooleanan-3-ol, (3.alpha.)-
Formula: C30 H52 O
CAS: 5085-72-3
Molecular weight: 428
Origin: CARL DJERASSI DEPT OF CHEM STANFORD UNIV STANFORD CALIF 94305
m/z	RELATIVE INTENSITY
41	6465
42	4949
43	9999
44	1111
45	2222
46	101
47	2020
48	606
49	606
50	202
51	909
52	202
53	2222
54	1818
55	8182
56	3636
57	8687
58	4949
59	1212
60	2020
61	808
63	101
64	101
65	909
66	404
67	5152
68	3333
69	6768
70	3838
71	3636
72	505
73	2222
74	303
76	202
77	2020
78	606
79	3737
80	1616
81	5657
82	4141
83	4747
84	3131
85	2727
86	101
87	808
88	101
89	101
91	3030
92	909
93	4747
94	2828
95	6263
96	4949
97	5960
98	2222
99	1111
100	1010
101	606
102	101
103	303
104	707
105	4747
106	1717
107	6162
108	4040
109	7273
110	4141
111	5051
112	1515
113	1212
114	101
115	808
116	202
117	707
118	202
119	4242
120	2424
121	6364
122	3636
123	6970
124	4040
125	5960
126	1717
127	707
128	303
129	1212
130	303
131	1212
132	404
133	3333
134	3131
135	4747
136	2828
137	4848
138	2222
139	1717
140	1010
141	404
142	101
143	505
144	202
145	1313
146	606
147	3939
148	2222
149	4040
150	3131
151	2929
152	1616
153	606
154	202
155	303
157	404
158	101
159	1313
160	505
161	3333
162	1212
163	5152
164	2525
165	5859
166	1111
167	606
168	202
169	202
170	101
171	404
172	101
173	1010
174	404
175	3636
176	1919
177	5556
178	2323
179	5960
180	1111
181	202
182	101
183	101
185	202
187	1010
188	606
189	4444
190	1414
191	3333
192	808
193	1414
194	1111
195	505
196	303
197	101
199	202
201	1111
202	3232
203	1818
204	1010
205	3838
206	4747
207	1616
208	404
210	101
211	101
213	202
214	101
215	1818
216	2222
217	1717
218	1111
219	1010
220	5859
221	1212
222	1111
223	101
224	101
227	101
228	202
229	909
230	303
231	7374
232	1818
233	3939
234	5859
235	1010
236	303
238	101
241	101
242	202
243	707
244	101
245	101
246	202
247	707
248	4242
249	1010
250	101
256	1111
257	3636
258	909
259	2424
260	606
261	1111
262	202
264	101
271	404
272	101
273	202
274	202
275	4747
276	3232
277	606
279	404
286	303
287	101
289	101
304	1111
305	101
346	101
386	202
387	101
395	707
396	202
410	808
411	202
413	2525
414	707
428	9999
429	3131
430	404
