Mass Spectrum: 2-Methoxy-6-methylaniline
Formula: C8 H11 N O
CAS: 50868-73-0
Molecular weight: 137
Origin: Chuck Anderson, Aldrich Chemical Co.
m/z	RELATIVE INTENSITY
15	188
18	28
26	56
27	238
28	423
29	91
30	88
31	24
37	66
38	220
39	981
40	225
41	436
42	245
43	32
44	26
45	34
46	43
50	204
51	551
52	517
53	367
54	277
55	57
61	51
62	129
63	329
64	166
65	880
66	893
67	618
68	225
69	53
74	65
75	70
76	122
77	2311
78	490
79	426
80	65
89	69
90	43
91	166
92	238
93	1565
94	6450
95	456
102	16
104	290
105	56
106	367
107	104
108	74
109	7
118	57
119	59
120	38
121	245
122	9999
123	786
124	47
134	26
136	99
137	7741
138	685
139	42
