Mass Spectrum: Hydrazinecarbodithioic acid, 2-phenyl-, methyl ester
Formula: C8 H10 N2 S2
CAS: 50878-38-1
Molecular weight: 198
Origin: CARL DJERASSI DEPT OF CHEM STANFORD UNIV STANFORD CALIF 94305
m/z	RELATIVE INTENSITY
41	100
42	400
43	100
44	200
47	200
50	100
51	300
55	400
56	200
57	500
58	400
59	100
60	100
63	200
64	100
65	600
66	100
67	100
68	100
69	300
70	200
71	300
73	100
77	500
78	200
81	200
89	100
91	1100
92	600
93	400
95	100
96	100
97	100
105	300
107	1000
108	400
109	100
121	100
149	800
150	1200
151	300
152	100
198	9999
199	900
200	800
