Mass Spectrum: Cyclohexane, 1,1,3,5-tetramethyl-, trans-
Formula: C10 H20
CAS: 50876-31-8
Molecular weight: 140
Origin: NIST Mass Spectrometry Data Center, 1990.
m/z	RELATIVE INTENSITY
14	67
15	94
27	628
28	122
29	755
32	37
39	1609
40	426
41	3811
42	599
43	1039
51	188
52	103
53	770
54	103
55	4632
56	1561
57	1382
58	65
65	254
67	932
69	9999
70	700
71	80
77	250
78	62
79	264
80	58
81	416
82	58
83	6606
84	1263
85	176
91	134
95	63
97	164
109	108
125	7794
126	721
140	80
