Mass Spectrum: 1-Decene, 3,4-dimethyl-
Formula: C12 H24
CAS: 50871-03-9
Molecular weight: 168
Origin: D.HENNEBERG, MAX-PLANCK INSTITUTE, MULHEIM, WEST GERMANY
m/z	RELATIVE INTENSITY
24	5
25	8
26	100
27	1260
28	227
29	2442
30	52
31	1
32	8
34	4
36	6
37	23
38	22
39	935
40	170
41	3889
42	889
43	7683
44	153
45	7
48	4
49	4
50	19
51	64
52	31
53	384
54	328
55	3609
56	2665
57	9999
58	378
59	9
60	6
62	10
63	17
64	3
65	63
66	27
67	332
68	193
69	1256
70	2420
71	6682
72	356
73	6
75	1
76	1
77	48
78	6
79	71
80	7
81	107
82	322
83	1474
84	1026
85	148
86	7
88	5
91	14
92	1
93	4
94	3
95	25
96	17
97	251
98	176
99	22
105	5
107	3
109	7
110	82
111	381
112	1559
113	197
114	9
125	12
126	78
127	9
137	1
139	25
140	460
141	42
168	10
