Mass Spectrum: .alpha.-Chloroethyl chloroformate
Formula: C3 H4 Cl2 O2
CAS: 50893-53-3
Molecular weight: 142
Origin: NIST Mass Spectrometry Data Center, 1994
m/z	RELATIVE INTENSITY
4	4
12	33
13	75
14	259
15	520
16	43
24	27
25	134
26	850
27	3044
28	582
29	815
32	10
35	662
36	158
37	232
38	45
40	14
41	66
42	226
43	1392
44	510
45	90
47	76
48	100
49	59
50	31
51	28
59	12
60	64
61	121
62	12
63	9999
64	343
65	3132
66	54
79	216
81	71
99	113
101	72
103	12
107	2671
108	108
109	875
110	26
127	38
129	26
