Mass Spectrum: Methane, tetranitro-
Formula: C N4 O8
CAS: 509-14-8
Molecular weight: 196
Origin: J.T.LARKINS U.S. DEPT. OF COMMERCE, WASHINGTON, D.C., USA
m/z	RELATIVE INTENSITY
16	8761
26	2225
30	197
42	1408
46	9999
104	3662
150	1915
