Mass Spectrum: Heptabarbital
Formula: C13 H18 N2 O3
CAS: 509-86-4
Molecular weight: 250
Origin: AAFS Toxicology Section MS DB Committee, U. Alberta, Canada
m/z	RELATIVE INTENSITY
29	200
39	390
40	60
41	740
42	100
43	130
44	160
51	160
52	120
53	450
54	140
55	350
63	10
65	550
66	320
67	820
68	180
69	190
70	250
77	1101
78	300
79	1431
80	270
81	1601
82	180
89	10
91	800
92	130
93	810
94	350
95	570
96	140
98	430
103	150
105	250
106	110
107	160
108	30
110	60
112	90
117	130
119	20
122	70
128	30
133	150
135	120
136	150
140	2292
142	130
150	100
155	390
156	150
161	250
178	50
179	110
180	130
192	20
207	10
218	80
221	9999
222	1241
223	130
