Mass Spectrum: Dihydromorphine
Formula: C17 H21 N O3
CAS: 509-60-4
Molecular weight: 287
Origin: Patti Price, Georgia Bureau of Investigation, Decatur, Georgia
m/z	RELATIVE INTENSITY
41	1261
42	5324
43	1681
44	2212
45	420
47	240
49	100
51	1261
53	870
54	460
55	1211
56	650
57	1321
58	930
59	1971
63	1050
65	1010
66	540
67	750
68	970
69	220
70	5675
71	1401
72	560
73	520
75	480
76	540
77	2272
78	850
79	1030
81	340
82	1791
83	790
84	240
85	30
87	480
89	1010
91	2071
92	500
94	770
95	220
96	950
97	480
98	440
102	790
103	930
105	80
106	400
107	650
108	690
115	4514
116	1010
117	790
118	420
119	580
120	770
121	420
123	500
126	400
127	2332
128	2522
129	1050
130	560
131	1761
132	790
133	520
134	480
136	750
139	670
140	560
141	1151
142	440
143	770
144	1171
145	1030
146	1361
147	1131
148	1111
151	400
152	1151
153	830
155	970
156	420
157	1301
159	440
160	890
161	750
162	1111
163	630
164	3663
165	1241
166	440
167	460
168	630
169	730
171	1621
172	540
173	1301
174	870
175	790
176	750
181	870
183	830
184	830
185	1241
186	1111
187	1010
188	540
189	440
197	480
198	500
199	970
200	1211
201	870
202	690
203	440
207	420
211	690
212	1241
213	790
214	1681
215	970
216	1111
226	580
227	480
228	1521
229	930
230	2131
231	580
242	770
243	770
244	710
258	1030
270	1401
272	810
286	2091
287	9999
288	2031
