Mass Spectrum: 9-Octadecenal
Formula: C18 H34 O
CAS: 5090-41-5
Molecular weight: 266
Origin: R.T.HOLMAN,UNIVERSITY OF MINNESOTA
m/z	RELATIVE INTENSITY
26	110
27	2600
28	550
29	4700
30	110
31	220
39	1900
40	360
41	9999
42	1400
43	5800
44	1400
45	150
51	110
52	110
53	1100
54	2700
55	7800
56	2000
57	2700
58	220
65	220
66	260
67	3400
68	1800
69	3600
70	1600
71	800
72	110
77	260
78	110
79	840
80	670
81	2300
82	1800
83	2200
84	1000
85	400
91	150
93	510
94	400
95	1500
96	1200
97	1300
98	1700
99	180
107	260
108	260
109	580
110	360
111	690
112	550
121	510
122	220
123	220
124	180
125	220
126	150
135	260
136	110
137	110
138	150
149	110
152	110
248	330
266	220
