Mass Spectrum: 4-(2-Phenylvinyl)pyridine, trans-
Formula: C13 H11 N
CAS: 5097-93-8
Molecular weight: 181
Origin: V.A.KOPTYUG, ATLAS OF MASS SPECTRA OF ORGANIC COMPOUNDS
m/z	RELATIVE INTENSITY
76	1270
77	1270
78	730
127	800
128	600
151	870
152	240
153	1330
154	1070
166	800
179	1000
180	9999
181	9999
182	1670
