Mass Spectrum: 1-Propene, 3-[(1-methylethyl)thio]-
Formula: C6 H12 S
CAS: 50996-72-0
Molecular weight: 116
Origin: CARL DJERASSI DEPT OF CHEM STANFORD UNIV STANFORD CALIF 94305
m/z	RELATIVE INTENSITY
40	200
41	9800
42	600
43	4200
44	200
45	1700
46	400
47	900
55	200
58	200
59	3300
60	200
61	200
67	800
71	300
72	300
73	2100
74	9999
75	900
76	400
101	2200
102	200
116	5700
117	500
118	300
