Mass Spectrum: 1,1'-Bicyclohexyl, 2-methyl-, cis-
Formula: C13 H24
CAS: 50991-08-7
Molecular weight: 180
m/z	RELATIVE INTENSITY
36	10
37	20
38	60
39	2142
40	400
41	6075
42	841
43	801
44	30
45	10
46	10
47	10
48	10
49	10
50	50
51	200
52	150
53	1101
54	1481
55	9999
56	631
57	140
58	10
59	10
60	10
61	10
62	10
63	40
64	10
65	270
66	260
67	3423
68	1001
69	1051
70	130
71	20
72	10
73	10
74	10
75	10
76	10
77	340
78	90
79	490
80	190
81	3143
82	3543
83	1882
84	140
85	10
86	10
87	10
88	10
89	10
90	10
91	160
92	30
93	120
94	60
95	561
96	6426
97	9398
98	741
99	30
100	10
101	10
102	10
103	10
104	10
105	30
106	10
107	40
108	40
109	450
110	210
111	180
112	20
113	10
114	10
115	10
116	10
117	10
118	10
119	10
120	10
121	10
122	30
123	140
124	40
125	10
126	10
127	10
128	10
129	10
130	10
131	10
132	10
133	10
134	10
135	10
136	10
137	20
138	20
139	10
149	10
150	10
151	10
152	20
153	10
163	10
164	10
165	20
166	10
175	10
176	10
177	10
178	10
179	10
180	1221
181	180
182	10
183	10
