Mass Spectrum: 1,1'-Bicyclohexyl, 2-methyl-, trans-
Formula: C13 H24
CAS: 50991-09-8
Molecular weight: 180
m/z	RELATIVE INTENSITY
36	10
37	20
38	60
39	2202
40	410
41	6256
42	851
43	821
44	30
45	10
46	10
47	10
48	10
49	10
50	50
51	210
52	150
53	1111
54	1501
55	9999
56	661
57	160
58	10
59	10
60	10
61	10
62	10
63	40
64	10
65	270
66	270
67	3583
68	951
69	1101
70	140
71	20
72	10
73	10
74	10
75	10
76	10
77	340
78	90
79	500
80	200
81	2863
82	2532
83	1942
84	150
85	10
86	10
87	10
88	10
89	10
90	10
91	170
92	30
93	130
94	60
95	631
96	7827
97	9999
98	781
99	40
100	10
101	10
102	10
103	10
104	10
105	30
106	10
107	40
108	40
109	651
110	180
111	140
112	20
113	10
114	10
115	10
116	10
117	10
118	10
119	10
120	10
121	10
122	20
123	120
124	50
125	10
126	10
127	10
128	10
129	10
130	10
131	10
132	10
133	10
134	10
135	10
136	10
137	30
138	20
139	10
149	10
150	10
151	20
152	20
153	10
163	10
164	10
165	20
166	10
175	10
176	10
177	10
178	10
179	10
180	540
181	80
182	10
183	10
