Mass Spectrum: 1,1'-Bicyclohexyl, 2-ethyl-, trans-
Formula: C14 H26
CAS: 50991-13-4
Molecular weight: 194
m/z	RELATIVE INTENSITY
36	10
37	20
38	60
39	2462
40	440
41	9168
42	931
43	1331
44	50
45	10
46	10
47	10
48	10
49	10
50	50
51	230
52	180
53	1381
54	1742
55	8778
56	761
57	510
58	30
59	10
60	10
61	10
62	10
63	40
64	20
65	370
66	360
67	4354
68	1001
69	9428
70	631
71	70
72	10
73	10
74	10
75	10
76	10
77	490
78	130
79	781
80	390
81	3733
82	2732
83	3593
84	270
85	20
86	10
87	10
88	10
89	10
90	10
91	260
92	50
93	200
94	80
95	1261
96	1131
97	721
98	70
99	10
100	10
101	10
102	10
103	20
104	10
105	40
106	10
107	70
108	70
109	1181
110	8307
111	9999
112	881
113	40
114	10
115	10
116	10
117	10
118	10
119	10
120	10
121	30
122	40
123	170
124	110
125	80
126	10
127	10
128	10
129	10
130	10
131	10
132	10
133	10
134	10
135	10
136	10
137	60
138	30
139	10
140	10
149	10
150	10
151	30
152	20
153	10
163	10
164	50
165	631
166	100
167	10
178	10
179	10
180	10
