Mass Spectrum: Racemethorphan
Formula: C18 H25 N O
CAS: 510-53-2
Molecular weight: 271
Origin: Finnigan MAT: Toxicological Library (LIBR-TX)
m/z	RELATIVE INTENSITY
42	1734
44	1295
58	601
59	9999
60	377
67	212
70	419
77	294
91	322
94	208
115	495
121	288
128	613
129	404
141	404
150	4539
151	411
159	298
161	295
162	383
171	1391
172	582
174	387
184	189
185	308
198	196
199	195
203	892
212	1075
213	892
214	2610
215	392
228	295
242	499
256	500
270	3451
271	6463
272	990
