Mass Spectrum: Chlorobenzilate
Formula: C16 H14 Cl2 O3
CAS: 510-15-6
Molecular weight: 324
Origin: MASS SPECTROMETRY CENTER, UNIV. OF UTAH, EPA-PTSEL1360
m/z	RELATIVE INTENSITY
15	140
26	110
27	551
29	1374
36	118
39	182
43	51
50	449
51	518
53	119
62	115
63	248
73	114
74	247
75	1409
76	817
77	502
85	158
86	81
87	114
90	311
99	132
104	390
105	233
108	132
110	91
111	3691
112	368
113	1311
114	139
139	8714
140	698
141	2944
142	254
150	135
151	168
152	459
153	116
163	166
181	47
186	98
199	155
215	101
216	179
251	9999
252	1695
253	7059
254	1034
255	1202
256	181
