Mass Spectrum: Androst-4-ene-3,17-dione, 19-hydroxy-
Formula: C19 H26 O3
CAS: 510-64-5
Molecular weight: 302
m/z	RELATIVE INTENSITY
77	593
78	223
79	846
81	801
82	119
83	415
119	445
121	297
122	297
123	297
157	208
159	386
161	178
211	104
213	104
215	415
216	104
229	445
243	297
253	564
254	208
271	534
272	9999
273	1899
284	401
302	4970
303	593
