Mass Spectrum: Nabilone
Formula: C24 H36 O3
CAS: 51022-71-0
Molecular weight: 372
Origin: NIST Mass Spectrometry Data Center
m/z	RELATIVE INTENSITY
26	20
27	410
29	881
30	30
31	20
38	30
39	280
41	2652
42	300
43	3613
44	120
45	40
51	70
52	50
53	360
54	70
55	1962
56	210
57	550
58	50
59	30
63	40
64	20
65	210
66	70
67	841
68	430
69	3093
70	190
71	290
72	30
73	270
75	40
76	30
77	440
78	110
79	550
80	140
81	510
82	120
83	691
84	60
85	200
86	30
87	90
89	50
90	20
91	821
92	120
93	380
94	150
95	661
96	70
97	100
99	30
100	40
101	70
102	50
103	170
104	70
105	440
106	70
107	530
108	150
109	751
110	110
111	260
112	20
113	30
115	470
116	170
117	260
118	80
119	310
120	100
121	390
122	130
123	771
124	180
125	90
126	10
127	180
128	390
129	290
130	90
131	360
132	100
133	280
134	110
135	540
136	180
137	550
138	100
139	30
140	10
141	210
142	130
143	140
144	220
145	300
146	90
147	671
148	180
149	1291
150	360
151	430
152	410
153	110
154	70
155	80
156	40
157	220
158	130
159	280
160	150
161	500
162	130
163	1511
164	671
165	210
166	90
167	70
168	40
169	80
170	60
171	190
172	90
173	290
174	160
175	490
176	220
177	1932
178	5105
179	601
180	70
181	50
182	40
183	70
184	60
185	200
186	80
187	470
188	240
189	490
190	140
191	190
192	280
193	120
195	60
196	30
197	60
198	20
199	140
200	90
201	460
202	250
203	390
204	200
205	180
206	180
207	240
211	70
212	20
213	170
214	90
215	320
216	150
217	250
218	90
219	230
220	200
221	70
224	10
225	40
227	140
228	50
229	340
230	340
231	150
232	60
233	80
234	70
235	20
236	10
239	20
241	80
242	70
243	130
244	90
245	821
246	160
247	170
248	60
249	200
250	60
254	40
255	80
256	40
257	100
258	10
259	320
260	290
261	140
262	100
263	50
267	50
268	30
269	100
270	260
271	180
272	140
273	811
274	360
275	70
276	10
280	10
284	70
285	90
286	150
287	3263
288	9999
289	2943
290	440
291	80
292	10
297	50
298	30
299	90
300	40
301	200
302	1391
303	270
304	70
312	50
313	80
314	20
315	120
316	1011
317	220
318	20
329	140
330	611
331	140
332	20
339	120
340	40
343	40
353	10
354	50
355	160
356	40
357	340
358	80
359	20
371	90
372	2883
373	761
374	110
375	20
