Mass Spectrum: 1-Azabicyclo[2.2.2]octane, 4-phenyl-
Formula: C13 H17 N
CAS: 51069-11-5
Molecular weight: 187
Origin: ORMSBG,10(12)1111(1975); H. ACHENBACH
m/z	RELATIVE INTENSITY
39	720
41	1510
42	7930
43	600
44	830
51	800
52	200
53	520
54	300
55	400
56	720
57	1450
58	300
63	300
65	500
67	200
68	500
69	1920
70	550
77	1120
79	400
80	200
82	620
91	1820
94	280
96	9999
97	890
102	320
103	720
104	680
105	250
110	800
115	1380
116	540
117	720
127	320
128	720
129	1550
130	880
131	600
132	430
143	250
144	300
158	1550
159	1950
160	950
172	650
186	2000
187	8120
188	1100
