Mass Spectrum: 6-Methyl-2-heptyne
Formula: C8 H14
CAS: 51065-64-6
Molecular weight: 110
Origin: NIST Mass Spectrometry Data Center, 1990.
m/z	RELATIVE INTENSITY
15	144
26	199
27	1685
28	429
29	890
37	104
38	335
39	3069
40	697
41	4645
42	461
43	750
44	79
50	560
51	1051
52	576
53	2378
54	1068
55	2315
56	1320
57	1152
58	57
61	64
62	173
63	353
64	92
65	984
66	433
67	4293
68	910
69	206
70	120
77	605
78	144
79	760
80	259
81	1187
82	212
91	340
93	533
95	9999
96	760
109	57
110	95
