Mass Spectrum: Butanamide, 2-bromo-2-ethyl-
Formula: C6 H12 Br N O
CAS: 511-70-6
Molecular weight: 193
Origin: H.Maurer, J.Chromatogr.,530,307(1990)
m/z	RELATIVE INTENSITY
51	290
52	220
53	1281
54	510
55	3833
56	360
57	110
58	110
65	70
66	70
67	400
69	9999
70	1021
71	4054
72	220
79	70
80	70
81	70
82	150
83	470
84	70
96	70
97	360
98	330
107	440
109	330
114	5225
115	220
121	70
148	360
149	581
150	1752
151	661
152	1281
164	150
165	6796
167	6396
168	180
