Mass Spectrum: Bicyclo[2.2.1]heptane, 2-methyl-3-methylene-2-(4-methyl-3-pentenyl)-, (1S-exo)-
Formula: C15 H24
CAS: 511-59-1
Molecular weight: 204
Origin: Mark Whitten, Florida Museum of Natural History, U. of Florida
m/z	RELATIVE INTENSITY
41	4250
42	219
43	451
44	18
50	59
51	306
52	152
53	891
54	147
55	1870
56	99
57	45
62	16
63	83
65	577
66	175
67	1143
68	196
69	759
70	56
77	1435
78	340
79	2361
80	220
81	418
82	363
83	412
84	43
89	31
91	1753
92	392
93	2459
94	9999
95	908
96	54
103	100
104	49
105	546
106	308
107	577
108	81
109	58
115	78
116	30
117	85
118	29
119	298
120	221
121	535
122	2575
123	308
124	43
128	24
129	20
131	33
132	14
133	247
134	127
135	106
136	63
137	50
147	133
148	72
161	225
162	43
176	34
189	106
204	72
