Mass Spectrum: Kaur-15-ene, (5.alpha.,9.alpha.,10.beta.)-
Formula: C20 H32
CAS: 511-85-3
Molecular weight: 272
Origin: R RYHAGE MS-LAB KAROLINSKA INSTITUTET STOCKHOLM SWEDEN
m/z	RELATIVE INTENSITY
26	110
27	600
29	910
39	990
40	260
41	3800
42	350
43	1390
44	190
50	110
51	300
52	190
53	1150
54	300
55	2920
56	790
57	740
63	150
64	120
65	800
66	290
67	2090
68	630
69	2510
70	250
71	260
77	2570
78	800
79	2980
80	910
81	3180
82	680
83	1040
84	150
85	220
87	110
89	120
91	5850
92	1520
93	3540
94	2870
95	2870
96	670
97	700
103	520
104	410
105	5800
106	8520
107	5800
108	1420
109	610
110	260
111	460
115	640
116	340
117	1250
118	800
119	4930
120	9999
121	2820
122	610
123	1390
124	340
125	370
127	160
128	460
129	560
130	260
131	1370
132	230
133	2870
134	2570
135	1590
136	540
137	1320
138	200
139	150
141	260
142	200
143	360
144	190
145	1110
146	480
147	1570
148	1040
149	1030
150	230
151	110
153	110
155	130
157	230
158	130
159	1370
160	440
161	2160
162	620
163	500
164	150
165	120
171	140
173	580
174	230
175	620
176	770
177	400
178	150
187	960
188	430
189	360
190	170
201	480
202	200
203	180
215	290
216	180
217	180
229	570
230	360
231	220
244	520
245	110
257	2050
258	470
272	5540
273	1300
274	150
