Mass Spectrum: Cyclohexaneethanol, .beta.,4-dimethyl-, cis-
Formula: C10 H20 O
CAS: 5113-95-1
Molecular weight: 156
m/z	RELATIVE INTENSITY
17	120
26	60
27	1031
28	390
29	1692
30	90
31	1111
32	60
39	1251
40	240
41	3904
42	991
43	1111
45	160
51	140
52	70
53	671
54	851
55	9999
56	721
57	1291
58	1651
59	300
60	60
65	160
66	130
67	1742
68	1611
69	5805
70	490
71	300
74	100
77	200
78	70
79	310
80	120
81	4684
82	1251
83	2222
84	170
91	100
93	120
94	350
95	3453
96	4864
97	2983
98	240
107	50
109	781
110	340
113	120
123	891
124	140
125	671
126	60
138	1551
139	160
