Mass Spectrum: 4-Benzyl-4-hydroxypiperidine
Formula: C12 H17 N O
CAS: 51135-96-7
Molecular weight: 191
Origin: NIST Mass Spectrometry Data Center, 1994
m/z	RELATIVE INTENSITY
15	173
18	78
26	26
27	746
28	2364
29	798
30	3136
38	145
39	1503
40	262
41	938
42	9270
43	3665
44	519
50	302
51	924
52	250
53	621
54	158
55	582
56	2371
57	1644
58	136
62	167
63	645
64	232
65	2032
66	181
67	158
68	137
69	70
70	209
71	1316
72	251
73	63
75	93
76	93
77	499
78	218
79	116
80	337
81	63
82	2048
83	181
84	62
85	140
89	499
91	3680
92	549
96	128
98	414
99	1566
100	9999
101	611
102	126
103	115
104	90
105	140
112	104
113	60
115	623
116	177
117	121
118	60
127	106
128	307
129	369
130	96
131	234
132	74
133	60
134	352
139	60
141	124
143	79
144	98
158	709
159	74
167	183
168	435
169	506
170	146
171	207
172	208
173	1412
174	277
190	122
191	376
192	69
