Mass Spectrum: Cyclohexaneethanol, .beta.,4-dimethyl-, trans-
Formula: C10 H20 O
CAS: 5113-94-0
Molecular weight: 156
m/z	RELATIVE INTENSITY
26	60
27	1011
29	1431
30	80
31	981
39	1201
40	220
41	4154
42	921
43	1161
45	100
51	130
52	70
53	741
54	731
55	9999
56	661
57	1361
58	1241
59	170
65	170
66	130
67	1651
68	1551
69	6846
70	561
71	290
77	210
78	50
79	320
80	190
81	4574
82	1251
83	2883
84	180
91	110
93	110
94	320
95	3413
96	4804
97	2993
98	200
109	751
110	320
113	110
123	921
124	200
125	1021
126	100
137	70
138	1922
139	190
