Mass Spectrum: 2-Heptanone, 1-ethoxy-
Formula: C9 H18 O2
CAS: 51149-70-3
Molecular weight: 158
Origin: J.VOTH UNIV. OF CALIFORNIA, DAVIS, CALIFORNIA, 95616, USA
m/z	RELATIVE INTENSITY
12	16
13	33
14	213
15	835
16	37
17	24
18	76
19	58
25	18
26	441
27	4473
28	1250
29	5900
30	231
31	6891
32	78
33	33
37	37
38	101
39	1437
40	265
41	2896
42	2213
43	9999
44	427
45	228
46	24
47	21
50	38
51	151
52	60
53	313
54	140
55	2298
56	1680
57	426
58	1303
59	5551
60	222
61	47
62	22
63	32
65	34
66	19
67	77
68	43
69	548
70	227
71	4310
72	362
73	85
74	20
75	11
77	16
79	16
80	39
81	94
83	92
84	152
85	112
86	48
87	33
88	17
93	17
95	48
96	37
97	34
98	183
99	6113
100	413
101	45
102	173
103	16
111	13
114	1016
115	121
116	10
141	9
143	15
158	13
159	12
