Mass Spectrum: Massoilactone
Formula: C10 H16 O2
CAS: 51154-96-2
Molecular weight: 168
m/z	RELATIVE INTENSITY
40	309
41	1600
42	1091
43	2691
44	836
45	909
46	236
55	145
56	255
57	582
58	182
59	109
60	73
67	545
68	6727
69	2472
79	145
80	509
81	145
96	691
97	9999
98	691
99	454
106	145
107	691
108	182
167	182
168	327
