Mass Spectrum: 2,4,4-Trimethyl-1-hexene
Formula: C9 H18
CAS: 51174-12-0
Molecular weight: 126
Origin: NIST Mass Spectrometry Data Center, 1990.
m/z	RELATIVE INTENSITY
27	1378
28	661
29	1553
39	2856
40	565
41	4064
42	816
43	8498
44	383
50	200
51	348
52	198
53	1151
55	5568
56	732
57	375
65	243
66	116
67	898
69	3558
70	6007
71	9999
72	591
77	283
79	334
81	456
82	178
97	1389
111	369
126	229
