Mass Spectrum: 4-Penten-1-ol, 3-methyl-
Formula: C6 H12 O
CAS: 51174-44-8
Molecular weight: 100
Origin: NIST Mass Spectrometry Data Center, 1990.
m/z	RELATIVE INTENSITY
14	28
15	344
16	24
18	207
19	159
26	520
27	3598
28	1651
29	2825
30	24
31	2090
32	23
37	146
38	427
39	3935
40	911
41	6658
42	1094
43	1389
44	436
45	569
50	416
51	663
52	325
53	1623
54	1571
55	5346
56	2243
57	1058
65	362
67	9999
68	708
69	1451
70	669
71	555
79	248
80	112
81	765
82	1747
83	207
85	122
