Mass Spectrum: Ascaridole
Formula: C10 H16 O2
CAS: 512-85-6
Molecular weight: 168
Origin: A.Swigar, R.Silverstein, Monoterpenes,1981
m/z	RELATIVE INTENSITY
31	430
38	490
39	4964
40	961
41	9999
42	1722
43	5665
45	430
50	520
51	1141
52	581
53	2252
54	821
55	4794
56	921
57	711
58	340
59	450
63	450
65	841
66	470
67	1702
68	601
69	6846
70	1501
77	1251
78	430
79	1722
80	540
81	1822
82	1611
83	1702
84	941
85	621
91	1611
92	450
93	751
94	320
95	1031
96	340
97	1892
98	1241
99	1161
100	340
105	510
107	2252
108	691
109	731
110	691
111	711
115	280
117	410
119	691
121	581
122	510
123	430
125	3353
126	1101
132	220
133	190
134	410
135	2382
136	300
137	210
139	2873
140	510
150	991
151	300
153	220
168	1251
