Mass Spectrum: Phosphoric acid, trimethyl ester
Formula: C3 H9 O4 P
CAS: 512-56-1
Molecular weight: 140
Origin: ACCUSTANDARD Chemicals / NIST MS Data Center.
m/z	RELATIVE INTENSITY
13	29
14	129
15	1266
16	5
17	9
18	5
28	272
29	868
30	176
31	584
32	94
33	34
40	11
44	13
45	113
47	1102
48	155
49	132
50	26
51	16
61	22
62	34
63	101
64	79
65	518
66	44
77	137
79	3463
80	2794
81	107
82	25
93	340
95	2512
96	60
97	16
109	3261
110	9999
111	272
112	74
125	36
140	1387
141	64
142	19
