Mass Spectrum: Valdetamide
Formula: C9 H17 N O
CAS: 512-48-1
Molecular weight: 155
Origin: H.Maurer, J.Chromatogr.,530,307(1990)
m/z	RELATIVE INTENSITY
51	410
52	220
53	1521
54	40
55	8488
56	671
57	1151
58	480
59	330
60	40
61	40
63	70
65	410
66	190
67	1411
68	40
69	9298
70	781
71	1041
72	450
73	410
74	40
76	40
77	300
78	70
79	480
80	110
81	1561
82	190
83	741
84	300
85	150
86	110
87	40
88	40
91	70
93	40
94	70
95	330
96	110
97	330
98	1121
99	110
100	300
108	260
109	520
110	260
111	520
112	2863
113	370
114	781
115	40
125	300
126	9999
127	3383
128	190
139	70
140	2382
141	190
155	40
