Mass Spectrum: (S)-(+)-1-(2-Pyrrolidinylmethyl)-pyrrolidine
Formula: C9 H18 N2
CAS: 51207-66-0
Molecular weight: 154
Origin: Chuck Anderson, Aldrich Chemical Co.
m/z	RELATIVE INTENSITY
15	93
18	23
26	38
27	319
28	1006
29	291
30	387
31	1
32	10
38	9
39	226
40	53
41	585
42	1119
43	460
44	82
51	13
52	14
53	91
54	132
55	602
56	223
57	356
58	18
65	8
67	62
68	305
69	83
70	5203
71	274
72	22
80	62
81	18
82	313
83	246
84	9999
85	2250
86	189
87	2
94	3
95	7
96	32
97	4
98	5
110	38
111	13
123	4
124	7
125	7
