Mass Spectrum: 2,3,7,8-Tetrachlorodibenzofuran
Formula: C12 H4 Cl4 O
CAS: 51207-31-9
Molecular weight: 304
Origin: NIST Mass Spectrometry Data Center, 1998.
m/z	RELATIVE INTENSITY
35	50
36	40
37	120
38	50
49	60
50	150
53	90
55	130
60	160
61	290
62	340
63	130
67	480
72	410
73	420
74	460
75	120
84	290
85	890
86	720
87	330
89	10
90	50
91	20
95	20
96	130
97	550
98	540
99	380
102	220
103	510
104	340
105	70
107	180
108	160
109	490
110	520
111	290
117	170
118	110
119	40
120	40
121	840
122	210
131	120
132	120
133	260
134	510
135	500
136	230
144	50
145	130
146	30
147	70
152	750
153	870
154	460
155	110
156	20
157	60
169	90
170	130
171	2670
172	270
173	790
174	120
181	160
183	170
191	60
193	50
205	470
206	710
207	420
208	460
209	70
210	90
234	440
235	70
236	290
238	20
241	2040
242	250
243	1990
244	220
245	660
246	90
247	60
268	80
269	440
270	100
271	350
272	120
273	80
275	20
277	30
304	7619
305	1010
306	9999
307	1280
308	4760
309	530
310	1060
311	80
312	90
