Mass Spectrum: Metolachlor
Formula: C15 H22 Cl N O2
CAS: 51218-45-2
Molecular weight: 283
Origin: ACCUSTANDARD Chemicals / NIST MS Data Center.
m/z	RELATIVE INTENSITY
14	51
15	430
17	13
18	29
27	341
28	120
29	622
30	50
31	65
33	21
35	12
36	23
37	11
39	411
41	929
42	244
43	259
44	11
45	1975
46	50
47	7
49	295
50	70
51	300
52	99
53	136
54	32
55	44
56	37
57	68
58	20
59	21
62	21
63	119
64	55
65	373
66	55
67	21
68	40
69	6
71	74
72	105
73	577
74	38
75	38
76	114
77	886
78	236
79	306
80	33
81	5
87	6
89	136
90	135
91	968
92	107
93	106
94	17
101	29
102	119
103	350
104	215
105	207
106	77
107	41
108	18
113	5
115	362
116	168
117	586
118	352
119	244
120	165
121	35
122	6
126	6
127	24
128	68
129	82
130	478
131	798
132	488
133	591
134	425
135	65
136	7
140	7
141	21
142	77
143	121
144	368
145	336
146	1527
147	252
148	115
149	14
150	15
152	5
154	13
155	9
156	35
157	32
158	135
159	86
160	387
161	5
162	9999
163	1227
164	79
166	5
167	5
168	12
170	8
171	10
172	20
174	128
175	33
176	82
177	18
178	17
179	3
180	9
182	15
183	4
184	9
186	8
187	8
188	34
189	38
190	14
191	8
192	26
194	28
195	7
196	21
202	59
203	10
204	5
205	7
206	18
208	6
211	737
212	117
213	233
214	35
215	9
216	33
217	6
218	4
220	9
222	9
234	117
235	23
238	4694
239	747
240	1549
241	217
242	18
250	7
252	20
253	1
254	12
268	8
283	18
284	5
285	7
