Mass Spectrum: Pretilachlor
Formula: C17 H26 Cl N O2
CAS: 51218-49-6
Molecular weight: 311
Origin: NIST Mass Spectrometry Data Center, 1998.
m/z	RELATIVE INTENSITY
15	10
26	20
27	390
29	290
30	30
31	60
37	10
38	10
39	240
40	30
41	910
42	190
43	2010
44	180
45	430
46	10
48	10
49	280
50	30
51	230
52	60
53	140
54	50
55	100
56	30
57	40
58	20
59	20
62	10
63	100
64	40
65	290
66	50
67	30
68	10
69	40
70	20
71	20
73	160
74	20
75	40
76	80
77	1290
78	260
79	610
80	60
81	10
82	10
85	10
86	20
87	400
88	40
89	200
90	380
91	1300
92	210
93	120
94	30
95	10
98	10
99	10
101	30
102	160
103	570
104	290
105	810
106	200
107	40
108	10
111	20
113	10
114	20
115	730
116	330
117	1700
118	1810
119	530
120	470
121	90
122	70
123	10
125	10
126	20
127	110
128	310
129	180
130	1560
131	1280
132	1880
133	480
134	480
135	80
136	10
139	10
140	20
141	40
142	130
143	330
144	730
145	460
146	2790
147	2180
148	640
149	200
150	30
151	10
152	10
153	10
154	50
155	20
156	120
157	90
158	400
159	200
160	1380
161	740
162	9999
163	1290
164	160
165	10
166	10
167	10
168	40
169	10
170	60
171	40
172	220
173	160
174	1030
175	260
176	6799
177	870
178	80
179	10
180	30
181	10
182	20
183	10
184	50
185	40
186	70
187	60
188	280
189	220
190	270
191	110
192	150
193	20
194	30
195	10
196	80
197	10
198	30
199	10
200	40
202	3800
203	570
204	230
205	30
206	30
207	20
208	50
209	20
210	80
211	10
212	20
214	10
215	10
216	80
217	20
218	20
219	10
220	250
221	30
222	70
223	20
224	30
225	2280
226	320
227	750
228	100
229	10
232	10
233	10
234	70
235	10
236	20
237	10
238	6899
239	1030
240	2320
241	330
242	30
248	10
250	40
251	10
252	530
253	90
254	180
255	30
259	10
260	10
262	2730
263	480
264	50
268	20
270	10
275	10
276	10
277	10
282	190
283	30
284	60
285	10
311	360
312	80
313	130
314	20
