Mass Spectrum: 5,9-Tetradecadiyne
Formula: C14 H22
CAS: 51255-61-9
Molecular weight: 190
Origin: NIST Mass Spectrometry Data Center, 1990.
m/z	RELATIVE INTENSITY
15	114
18	73
26	399
27	3800
28	273
29	1588
37	60
38	310
39	3560
40	895
41	5816
42	400
43	1468
44	45
50	544
51	1755
52	2140
53	3853
54	468
55	3136
56	197
57	105
62	163
63	600
64	203
65	1609
66	594
67	3347
68	249
69	476
74	80
75	120
76	235
77	2315
78	1026
79	3552
80	622
81	841
82	83
89	227
91	6992
92	1031
93	1718
94	263
95	655
96	114
102	117
103	730
105	9999
106	1342
107	492
108	59
115	515
116	229
117	915
118	368
119	2594
120	461
121	208
128	99
129	77
131	262
133	1386
134	1098
135	190
145	91
147	1122
148	165
161	407
162	63
175	120
