Mass Spectrum: Cyclohexane, (2-methoxyethyl)-
Formula: C9 H18 O
CAS: 51284-32-3
Molecular weight: 142
m/z	RELATIVE INTENSITY
15	330
18	30
26	40
27	821
28	310
29	891
30	30
31	270
32	10
33	90
38	40
39	1171
40	190
41	2903
42	290
43	440
44	30
45	5785
46	140
47	30
50	50
51	140
52	80
53	581
54	2182
55	4404
56	320
57	70
58	180
59	200
60	170
61	20
62	10
63	30
65	150
66	330
67	6606
68	2012
69	1221
70	80
71	250
72	20
74	150
75	60
76	10
77	170
78	50
79	380
80	470
81	8017
82	9999
83	1131
84	60
85	30
91	60
92	10
93	70
94	30
95	1461
96	150
97	170
98	20
103	20
104	40
105	20
107	20
108	20
109	310
110	7917
111	821
112	50
113	10
114	20
115	10
116	10
117	10
124	10
125	10
142	30
143	40
