Mass Spectrum: tert-C4H9C(O)OCH(CH3)2
Formula: C8 H16 O2
CAS: 5129-36-2
Molecular weight: 144
Origin: V.G. Zaikin, TIPS RAS, Moscow, Russia
m/z	RELATIVE INTENSITY
26	350
27	1311
28	30
29	1571
31	60
36	30
37	150
38	210
39	1722
40	380
41	3974
42	651
43	3383
44	290
45	190
49	80
50	380
51	490
52	751
53	190
54	30
55	250
56	591
57	9999
58	520
59	811
69	60
70	120
71	80
75	30
85	711
87	290
101	80
103	250
128	60
129	991
130	130
144	450
145	80
