Mass Spectrum: Methyl 6-methyloctanoate
Formula: C10 H20 O2
CAS: 5129-62-4
Molecular weight: 172
Origin: NIST Mass Spectrometry Data Center
m/z	RELATIVE INTENSITY
15	220
26	50
27	801
28	310
29	1702
30	60
31	110
33	30
37	10
38	30
39	1171
40	230
41	4374
42	851
43	2863
44	120
45	320
46	10
47	10
48	10
49	10
50	40
51	100
52	50
53	510
54	230
55	6416
56	1301
57	2883
58	150
59	2352
60	80
61	30
62	10
63	20
65	70
66	30
67	470
68	260
69	2042
70	290
71	290
72	40
73	581
74	9999
75	821
76	70
77	60
78	10
79	120
80	20
81	661
82	150
83	3483
84	530
85	140
87	6766
88	661
89	60
91	30
92	10
93	90
94	70
95	90
96	3123
97	861
98	250
99	190
100	30
101	571
102	110
103	10
107	60
108	10
109	20
110	60
111	1261
112	410
113	50
115	1581
116	190
117	130
118	10
121	20
122	561
123	1281
124	130
125	260
126	20
129	130
130	10
139	60
140	150
141	470
142	50
143	581
144	50
154	10
157	30
171	10
172	10
173	10
