Mass Spectrum: Propanoic acid, 2,2-dimethyl-, butyl ester
Formula: C9 H18 O2
CAS: 5129-37-3
Molecular weight: 158
Origin: V.G. Zaikin, TIPS RAS, Moscow, Russia
m/z	RELATIVE INTENSITY
26	190
27	1011
28	90
29	2122
30	80
31	30
37	30
38	130
39	1191
40	280
41	3373
42	420
43	350
44	180
45	80
50	150
51	220
52	280
53	150
55	390
56	1571
57	9999
58	450
59	561
70	60
85	1311
86	60
87	310
103	1882
104	110
115	180
