Mass Spectrum: Butanoic acid, 2-ethyl-, butyl ester
Formula: C10 H20 O2
CAS: 5129-48-6
Molecular weight: 172
Origin: V.G. Zaikin, R.S.Borisov, TIPS RAS, Moscow, Russia
m/z	RELATIVE INTENSITY
27	330
28	420
29	1061
30	10
31	30
39	330
41	1852
42	300
43	3833
44	230
45	130
47	30
54	50
55	1251
56	2752
57	2072
58	70
59	40
60	20
67	20
68	10
69	200
70	470
71	6446
72	400
73	931
74	60
83	70
85	10
87	1772
88	2672
89	701
90	20
98	30
99	5685
100	400
101	530
102	10
115	30
116	160
117	9999
118	681
119	40
129	60
143	120
144	1121
145	110
