Mass Spectrum: aS-Triazino[6,5-c]quinoline, 2-amino-
Formula: C10 H7 N5
CAS: 51294-37-2
Molecular weight: 197
Origin: ASES Database, Dalian Institute, P.R. China
m/z	RELATIVE INTENSITY
41	320
43	220
45	320
50	1391
51	720
52	590
62	660
63	840
64	370
71	200
74	1321
75	920
76	1631
77	500
87	550
88	520
99	390
100	1881
101	600
102	570
103	190
104	720
114	980
115	710
126	90
127	4944
128	520
129	390
141	620
142	1331
143	270
168	670
169	7827
170	890
197	9999
198	1101
199	60
