Mass Spectrum: Dodecanoic acid, 10-methyl-, methyl ester
Formula: C14 H28 O2
CAS: 5129-65-7
Molecular weight: 228
Origin: R.T.HOLMAN,UNIVERSITY OF MINNESOTA
m/z	RELATIVE INTENSITY
26	100
27	1000
28	300
29	2400
30	100
31	100
39	1000
40	200
41	4900
42	900
43	3000
44	100
45	200
51	100
53	400
54	300
55	3800
56	1100
57	2700
58	100
59	1400
60	100
65	100
67	500
68	300
69	2500
70	500
71	700
72	100
73	400
74	9999
75	1700
76	100
77	100
79	200
80	100
81	500
82	200
83	1900
84	500
85	400
87	7000
88	700
89	100
91	100
93	200
94	100
95	400
96	300
97	1300
98	400
99	100
100	100
101	700
102	100
107	200
108	100
109	200
110	100
111	400
112	100
113	100
114	100
115	400
116	200
119	100
121	100
123	200
124	100
125	300
126	100
129	800
130	200
139	200
140	100
143	2100
144	200
149	500
150	100
154	100
157	200
158	100
163	100
167	400
168	100
171	300
172	100
173	200
177	100
179	100
181	100
185	1200
186	200
195	100
197	700
198	100
199	700
200	100
213	100
214	100
228	1704
229	600
230	100
