Mass Spectrum: Pivalic acid, 2-methylpropyl ester
Formula: C9 H18 O2
CAS: 5129-38-4
Molecular weight: 158
Origin: V.Zaikin,Topchiev Inst.Petrochem.Synth.,Moscow
m/z	RELATIVE INTENSITY
22	20
25	20
26	190
27	300
28	110
29	811
30	20
31	40
35	80
36	591
37	40
38	180
39	611
40	180
41	2072
42	250
43	220
44	20
45	30
49	60
50	330
51	480
52	1041
53	180
54	30
55	260
56	2472
57	9999
58	520
59	300
60	10
69	70
70	130
71	220
72	30
73	100
75	40
76	30
77	20
78	250
79	1932
80	120
82	10
83	10
85	3773
86	240
87	380
88	20
96	20
101	30
102	50
103	3363
104	230
105	20
115	280
116	20
133	10
143	30
