Mass Spectrum: Propanamide, N-ethyl-
Formula: C5 H11 N O
CAS: 5129-72-6
Molecular weight: 101
Origin: Japan AIST/NIMC Database- Spectrum MS-NW-2841
m/z	RELATIVE INTENSITY
13	10
14	70
15	359
16	10
25	30
26	429
27	2509
28	1039
29	9999
30	6969
31	99
32	40
37	10
38	20
39	60
40	119
41	239
42	539
43	429
44	7199
45	259
46	909
47	20
51	20
52	30
53	50
54	139
55	489
56	859
57	6319
58	449
59	30
68	40
69	10
70	10
71	30
72	6209
73	339
74	119
75	10
77	10
82	10
83	20
84	30
86	959
87	60
100	539
101	9259
102	559
103	40
