Mass Spectrum: Propyl 2-ethylbutanoate
Formula: C9 H18 O2
CAS: 5129-46-4
Molecular weight: 158
Origin: NIST Mass Spectrometry Data Center, 1990.
m/z	RELATIVE INTENSITY
26	223
27	2030
28	346
29	1701
30	111
31	242
39	1816
40	439
41	4281
42	1573
43	9999
44	355
45	369
47	113
53	317
55	3026
56	222
57	943
58	97
59	439
68	97
69	687
70	1395
71	8138
72	575
73	2080
74	144
75	139
83	161
85	77
87	2889
88	3831
89	1665
99	6241
100	447
101	563
115	174
117	7203
118	463
129	429
130	1846
131	155
