Mass Spectrum: Propane, 1-iodo-2-methyl-
Formula: C4 H9 I
CAS: 513-38-2
Molecular weight: 184
Origin: NIST Mass Spectrometry Data Center, 1992
m/z	RELATIVE INTENSITY
12	20
13	54
14	236
15	885
16	20
24	8
26	556
27	2749
28	603
29	6426
30	144
37	325
38	831
39	4476
40	1055
41	8869
42	931
43	347
44	2
48	8
49	74
50	243
51	206
52	57
53	236
54	2
55	667
56	2
57	9999
58	427
59	9
64	9
71	8
127	1521
128	247
129	7
139	40
140	60
141	285
142	67
151	3
152	11
153	16
154	7
165	3
167	8
169	144
170	4
184	1621
185	80
