Mass Spectrum: Bicyclo[3.1.0]hexan-2-one, 5-(1-methylethyl)-
Formula: C9 H14 O
CAS: 513-20-2
Molecular weight: 138
Origin: NIST Mass Spectrometry Data Center, 2010
m/z	RELATIVE INTENSITY
26	50
27	961
29	220
31	50
37	50
38	270
39	2342
40	470
41	3113
42	460
43	1692
44	80
46	40
47	50
50	360
51	701
52	380
53	1531
54	811
55	4254
56	561
57	130
61	90
62	130
63	350
64	70
65	1071
66	731
67	5385
68	1972
69	961
70	1001
72	50
77	931
78	270
79	2172
80	310
81	9999
82	1972
83	1281
84	100
91	350
92	230
94	1071
95	5865
96	6496
97	1922
98	70
103	40
104	30
105	480
109	1001
110	741
113	30
120	540
123	1742
124	190
138	1161
139	60
