Mass Spectrum: Ethene, tetraiodo-
Formula: C2 I4
CAS: 513-92-8
Molecular weight: 532
Origin: J. SHAW, BORRISTON RESEARCH, ROCKVILLE, MD, USA
m/z	RELATIVE INTENSITY
12	1581
13	10
24	1181
25	20
127	9999
128	20
139	940
151	3363
152	70
254	162
266	140
278	6356
279	100
405	2782
406	40
532	1751
533	30
