Mass Spectrum: 1-Propene, 2,3-dibromo-
Formula: C3 H4 Br2
CAS: 513-31-5
Molecular weight: 198
Origin: Japan AIST/NIMC Database- Spectrum MS-NW-2725
m/z	RELATIVE INTENSITY
12	20
13	20
14	60
15	20
24	20
25	90
26	229
27	119
28	10
29	10
31	10
36	109
37	769
38	1489
39	9999
40	1389
41	80
42	70
43	20
44	20
50	20
51	40
52	10
53	30
55	10
57	40
65	20
66	10
67	10
75	10
77	119
78	90
79	489
80	159
81	499
82	159
91	50
92	30
93	819
94	50
95	749
96	10
99	10
100	20
101	10
104	40
105	99
106	40
107	109
116	10
117	129
118	50
119	8849
120	329
121	8609
122	299
123	99
125	10
157	109
158	30
159	119
160	40
161	10
162	20
171	20
173	40
175	20
197	30
198	1959
199	109
200	3829
201	149
202	1889
203	60
