Mass Spectrum: Butane, 2-iodo-
Formula: C4 H9 I
CAS: 513-48-4
Molecular weight: 184
Origin: Japan AIST/NIMC Database- Spectrum MS-NW-8320
m/z	RELATIVE INTENSITY
14	10
15	60
26	159
27	1269
28	389
29	5389
30	119
37	30
38	70
39	1109
40	129
41	4679
42	339
43	99
51	70
52	20
53	139
54	40
55	439
56	199
57	9999
58	449
59	10
127	389
128	159
141	10
155	50
184	1129
185	50
