Mass Spectrum: 2-Butanethiol
Formula: C4 H10 S
CAS: 513-53-1
Molecular weight: 90
Origin: Japan AIST/NIMC Database- Spectrum MS-NW-3790
m/z	RELATIVE INTENSITY
14	20
15	189
25	20
26	359
27	2749
28	689
29	7099
30	159
32	70
33	159
34	169
35	959
36	20
37	109
38	179
39	1799
40	249
41	9629
42	649
43	409
44	119
45	809
46	189
47	1359
48	80
49	129
50	189
51	179
52	50
53	289
54	80
55	1249
56	2099
57	9999
58	469
59	789
60	1249
61	7949
62	339
63	369
64	10
68	10
69	60
70	10
71	80
72	10
73	80
74	50
75	549
76	40
77	20
88	20
89	50
90	7509
91	409
92	349
93	20
