Mass Spectrum: 2-Butanamine, (S)-
Formula: C4 H11 N
CAS: 513-49-5
Molecular weight: 73
Origin: Chuck Anderson, Aldrich Chemical Co.
m/z	RELATIVE INTENSITY
14	22
15	283
16	7
17	25
18	1473
19	5
25	10
26	189
27	956
28	1095
29	547
30	894
31	13
32	10
33	5
36	4
37	27
38	65
39	387
40	148
41	1458
42	1087
43	457
44	9999
45	324
46	4
49	7
50	37
51	49
52	49
53	65
54	93
55	347
56	358
57	221
58	1473
59	58
68	7
70	73
71	10
72	405
73	160
74	127
75	5
