Mass Spectrum: 1,3-Butadiene, 2,3-dimethyl-
Formula: C6 H10
CAS: 513-81-5
Molecular weight: 82
Origin: Japan AIST/NIMC Database- Spectrum MS-NW-4073
m/z	RELATIVE INTENSITY
14	20
15	179
26	119
27	1089
28	199
29	279
31	20
36	20
37	259
38	559
39	5689
40	1209
41	5829
42	1099
43	449
44	10
49	80
50	409
51	629
52	349
53	1719
54	3189
55	589
56	219
57	20
60	20
61	90
62	139
63	249
64	50
65	1269
66	359
67	9999
68	579
69	129
70	30
77	229
78	50
79	609
80	90
81	1269
82	7009
83	509
84	30
