Mass Spectrum: 2-Propanol, 1-butoxy-
Formula: C7 H16 O2
CAS: 5131-66-8
Molecular weight: 132
Origin: Japan AIST/NIMC Database- Spectrum MS-NW-4688
m/z	RELATIVE INTENSITY
14	30
15	299
16	10
17	30
18	109
25	10
26	129
27	1079
28	339
29	2829
30	90
31	1589
32	60
33	90
36	10
37	30
38	50
39	639
40	119
41	3579
42	449
43	789
44	409
45	9999
46	239
47	80
50	20
51	30
52	10
53	70
54	30
55	589
56	3199
57	8979
58	569
59	2109
60	99
61	399
62	10
69	40
70	30
71	90
72	40
73	299
74	20
75	399
76	20
77	10
81	10
85	40
86	439
87	3079
88	359
89	319
90	10
99	10
101	50
114	20
117	60
131	10
132	10
133	10
