Mass Spectrum: Methyl 3,5-dibromobenzoate
Formula: C8 H6 Br2 O2
CAS: 51329-15-8
Molecular weight: 292
Origin: NIST Mass Spectrometry Data Center
m/z	RELATIVE INTENSITY
14	100
15	1451
16	110
17	10
18	60
28	120
29	1291
30	440
31	220
36	120
37	661
38	410
39	130
44	140
48	80
49	390
50	831
51	130
53	210
59	530
60	70
61	250
62	290
63	470
67	300
72	130
73	1241
74	5305
75	5855
76	500
77	440
78	390
79	280
80	200
81	240
82	170
89	110
90	120
91	100
104	70
106	130
107	360
117	130
118	60
119	50
128	130
129	80
130	170
131	140
153	881
154	1001
155	951
156	1001
157	180
170	110
172	150
181	60
183	100
185	70
197	290
198	310
199	300
200	310
213	230
215	260
233	2022
234	199
235	3703
236	310
237	2142
238	160
248	70
249	90
261	4994
262	839
263	9999
264	851
265	5185
266	420
274	170
276	280
278	120
292	2622
293	731
294	5065
295	631
296	2422
297	260
