Mass Spectrum: 2-(Methylthio)phenyl isothiocyanate
Formula: C8 H7 N S2
CAS: 51333-75-6
Molecular weight: 181
Origin: NIST Mass Spectrometry Data Center, 1994
m/z	RELATIVE INTENSITY
13	58
14	123
15	1074
26	180
27	369
32	244
33	86
37	626
38	927
39	1868
40	64
41	53
44	716
45	4958
46	779
47	610
48	94
49	295
50	2134
51	1750
52	424
53	90
54	135
56	63
57	472
58	888
59	233
60	175
61	406
62	671
63	2302
64	1171
65	287
66	44
69	3052
70	1014
71	396
72	197
73	219
74	1025
75	1233
76	982
77	1828
78	1071
79	199
80	251
81	635
82	1424
83	377
84	225
87	80
88	185
89	298
90	1240
91	381
92	83
93	333
94	335
95	600
96	635
97	156
99	86
102	900
103	331
104	1260
105	181
106	154
107	83
108	4423
109	639
110	205
116	253
117	669
118	121
119	121
120	332
121	1390
122	2234
123	317
124	365
126	45
133	360
134	210
135	848
136	1808
137	199
138	131
139	554
140	100
141	56
146	324
148	7544
149	1134
150	368
153	80
165	337
166	2021
167	251
168	178
180	1331
181	9999
182	1247
183	907
184	104
