Mass Spectrum: 3-(Methylthio)phenyl isothiocyanate
Formula: C8 H7 N S2
CAS: 51333-80-3
Molecular weight: 181
Origin: NIST Mass Spectrometry Data Center, 1994
m/z	RELATIVE INTENSITY
14	173
15	638
26	98
27	218
28	125
32	322
34	42
37	361
38	602
39	1134
40	84
41	37
44	388
45	3811
46	728
47	812
48	102
49	193
50	1727
51	1032
52	219
53	87
54	72
56	57
57	369
58	681
59	148
60	101
61	379
62	588
63	2049
64	898
65	151
67	33
69	1946
70	610
71	238
72	161
73	145
74	803
75	898
76	715
77	1951
78	499
79	367
80	85
81	399
82	974
83	438
84	213
85	44
87	66
88	140
89	257
90	1204
93	209
94	223
95	379
96	235
97	119
102	137
103	139
104	505
105	69
106	113
107	474
108	4035
109	427
110	178
111	31
116	395
117	53
120	115
121	709
122	1221
123	346
124	85
133	172
134	449
135	1799
136	705
137	140
138	43
139	121
146	67
148	5219
149	799
150	267
165	78
166	612
167	89
168	62
181	9999
182	1086
183	943
184	100
