Mass Spectrum: Dodecanamide, N,N'-methylenebis-
Formula: C25 H50 N2 O2
CAS: 5136-45-8
Molecular weight: 410
Origin: Japan AIST/NIMC Database- Spectrum MS-IW-2741
m/z	RELATIVE INTENSITY
15	10
17	10
26	20
27	429
28	189
29	1009
30	1519
31	30
32	20
39	339
40	70
41	2279
42	559
43	4279
44	689
45	5879
46	149
51	20
52	10
53	149
54	209
55	2259
56	589
57	4049
58	309
59	7069
60	709
61	30
63	10
65	30
66	20
67	419
68	179
69	1069
70	339
71	1869
72	2979
73	829
74	90
77	30
78	10
79	99
80	40
81	499
82	189
83	969
84	669
85	1179
86	1049
87	359
88	169
89	209
91	30
92	10
93	80
94	30
95	799
96	209
97	749
98	969
99	559
100	519
101	219
102	50
105	10
106	10
107	70
108	20
109	489
110	169
111	259
112	389
113	299
114	699
115	299
116	40
119	10
120	10
121	70
122	20
123	159
124	90
125	109
126	359
127	209
128	639
129	149
130	2519
131	159
132	10
135	40
136	20
137	40
138	70
139	80
140	419
141	139
142	269
143	1489
144	179
145	10
149	40
150	10
151	20
152	60
153	50
154	269
155	129
156	479
157	219
158	60
163	90
164	20
165	70
166	30
167	20
168	329
169	129
170	339
171	99
172	119
173	10
178	10
179	10
180	40
181	109
182	639
183	4779
184	729
185	159
186	80
187	10
193	10
194	70
195	20
196	50
197	50
198	739
199	1839
200	3849
201	519
202	40
209	30
210	119
211	929
212	839
213	199
214	80
215	10
224	10
225	20
227	9999
228	1569
229	169
230	10
240	20
241	99
242	50
252	10
254	40
255	40
256	10
266	10
268	20
270	6549
271	1139
272	119
273	10
282	10
283	609
284	139
285	10
294	10
296	10
297	50
298	10
308	10
310	10
311	50
312	40
324	10
325	60
326	20
338	10
339	40
340	10
352	70
353	40
354	10
367	30
368	10
381	40
382	20
395	10
408	20
409	60
410	2079
411	609
412	90
