Mass Spectrum: [1,2,3]Triazolo[1,5-a]pyrazine
Formula: C5 H4 N4
CAS: 51392-75-7
Molecular weight: 120
Origin: HCACAV, 61(5)1755(1978); C. WENTRUP
m/z	RELATIVE INTENSITY
37	900
38	6000
39	950
40	460
41	1600
51	440
52	1150
64	1000
65	5900
66	540
92	9999
93	560
120	5900
121	580
