Mass Spectrum: Abietic acid
Formula: C20 H30 O2
CAS: 514-10-3
Molecular weight: 302
Origin: NIST Mass Spectrometry Data Center, 1998.
m/z	RELATIVE INTENSITY
27	450
29	1010
31	150
36	110
38	50
39	890
40	90
41	4440
42	370
43	4800
44	320
45	610
50	60
51	350
52	200
53	1560
54	200
55	3780
56	290
57	680
58	60
59	320
60	40
63	100
64	100
65	990
66	190
67	2450
68	180
69	1660
70	130
71	300
73	110
75	140
76	130
77	2700
78	770
79	3830
80	570
81	2790
82	250
83	520
84	90
85	200
86	130
87	350
89	180
90	150
91	7859
92	2740
93	4610
94	570
95	1860
96	240
97	610
98	80
99	230
100	170
101	60
102	230
103	840
104	600
105	8369
106	1210
107	2360
108	440
109	2820
110	330
111	220
113	190
115	2370
116	740
117	3490
118	570
119	2590
120	610
121	4720
122	680
123	1230
124	130
125	190
126	130
127	630
128	2070
129	2630
130	830
131	6049
132	860
133	3370
134	1320
135	3800
136	8269
137	1160
138	40
139	930
140	140
141	1360
142	920
143	2610
144	590
145	2220
146	910
147	1170
148	1630
149	1070
150	160
151	240
152	330
153	470
154	280
155	940
156	300
157	2630
158	420
159	1370
160	400
161	480
162	160
163	140
164	140
165	500
166	180
167	710
168	190
169	510
170	180
171	1190
172	300
173	870
174	220
175	310
178	210
179	250
180	110
181	190
182	110
183	530
184	210
185	2110
186	400
187	1200
188	390
189	240
190	40
191	90
193	230
195	290
196	90
197	700
198	250
199	740
200	190
201	580
202	180
203	170
205	90
209	200
211	150
212	110
213	3590
214	730
215	240
217	110
223	160
225	190
226	70
227	180
229	30
231	110
237	180
239	1210
240	290
241	3100
242	570
243	150
255	100
256	1160
257	890
258	140
259	4470
260	700
261	50
269	110
285	940
286	220
287	1970
288	280
298	190
300	310
301	110
302	9999
303	2190
304	180
