Mass Spectrum: 4,7-Methanoazulene, 1,2,3,4,5,6,7,8-octahydro-1,4,9,9-tetramethyl-, [1S-(1.alpha.,4.alpha.,7.alpha.)]-
Formula: C15 H24
CAS: 514-51-2
Molecular weight: 204
m/z	RELATIVE INTENSITY
27	781
28	170
29	891
39	1011
40	170
41	3323
42	140
43	951
50	110
51	390
52	170
53	951
54	80
55	2072
56	110
57	220
58	110
63	170
64	170
65	731
66	170
67	841
68	60
69	1341
70	110
71	200
72	140
73	80
75	80
76	60
77	1561
78	420
79	1902
80	220
81	1061
82	140
83	200
84	60
85	60
86	60
87	60
88	140
89	140
90	60
91	2883
92	450
93	3853
94	561
95	981
96	450
97	60
101	60
102	80
103	340
104	200
105	4304
106	611
107	2602
108	1011
109	450
115	611
116	280
117	701
118	200
119	6156
120	871
121	731
122	360
123	140
124	30
125	30
126	30
127	200
128	470
129	500
130	280
131	671
132	200
133	3023
134	871
135	3023
136	500
137	110
138	80
139	60
140	60
141	110
142	110
143	140
144	140
145	751
146	200
147	2232
148	671
149	200
150	60
151	30
152	30
153	30
154	30
155	30
156	30
157	30
158	60
159	340
160	220
161	9999
174	80
175	781
176	360
187	60
188	110
189	8808
190	1341
191	80
202	80
203	110
204	5085
205	841
206	60
