Mass Spectrum: 6,10-Dodecadien-1-ol, 3,7,11-trimethyl-
Formula: C15 H28 O
CAS: 51411-24-6
Molecular weight: 224
m/z	RELATIVE INTENSITY
27	598
28	20
29	797
30	20
31	837
39	637
41	4980
42	378
43	1295
44	60
45	159
53	916
54	60
55	2291
56	319
57	598
65	199
66	40
67	1912
68	1096
69	9999
70	757
71	478
72	20
77	359
78	60
79	598
80	259
81	5179
82	1195
83	598
84	80
85	598
86	40
91	279
93	359
94	239
95	3287
96	359
97	159
98	20
99	1693
100	60
105	159
107	558
108	139
109	1275
110	239
111	239
112	100
121	398
122	199
123	4063
124	578
125	60
134	259
135	80
137	657
138	199
139	40
147	199
149	199
163	936
164	60
180	60
181	2191
182	319
209	199
224	598
225	60
