Mass Spectrum: Cyclohexane, 1-bromo-2-fluoro-, cis-
Formula: C6 H10 Br F
CAS: 51422-74-3
Molecular weight: 180
Origin: J. M. PECHINE
m/z	RELATIVE INTENSITY
27	1070
28	195
29	355
33	225
39	1460
40	185
41	2650
42	210
46	220
47	230
50	165
51	415
52	155
53	880
54	480
55	1850
57	190
59	2135
65	255
67	210
72	550
73	615
77	260
79	785
80	300
81	9999
82	740
85	305
99	125
101	5440
102	360
180	1240
182	1210
