Mass Spectrum: Cyclopentane, 1-bromo-2-fluoro-, trans-
Formula: C5 H8 Br F
CAS: 51422-73-2
Molecular weight: 166
Origin: J. M. PECHINE
m/z	RELATIVE INTENSITY
27	1150
28	460
30	190
32	440
37	190
38	270
39	3380
40	540
41	7080
42	490
45	175
46	135
47	115
50	100
51	275
53	225
57	475
58	135
59	6280
60	360
63	135
65	460
66	335
67	9165
68	565
85	1535
86	750
87	9999
88	550
106	465
107	100
108	440
166	1725
168	1675
