Mass Spectrum: 2-Propenoic acid, 4-methylpentyl ester
Formula: C9 H16 O2
CAS: 5143-30-6
Molecular weight: 156
Origin: Vladimir Zaikin,TIPS RAS, Moscow, Russia
m/z	RELATIVE INTENSITY
36	470
38	100
39	470
40	150
41	1301
42	1080
43	2752
44	420
45	110
51	30
52	20
53	190
54	30
55	9999
56	1701
57	300
58	250
59	180
68	60
69	1901
70	500
71	530
72	50
73	650
82	30
83	110
84	4534
85	1101
86	270
87	90
95	30
96	40
97	100
98	120
127	40
