Mass Spectrum: 1H-Tetrazole, 1,5-dimethyl-
Formula: C3 H6 N4
CAS: 5144-11-6
Molecular weight: 98
m/z	RELATIVE INTENSITY
27	3203
28	6306
29	701
30	100
38	300
39	801
40	1301
41	1301
42	8307
43	5705
44	100
52	100
53	801
54	300
55	300
56	7607
57	400
67	100
68	100
69	9999
70	801
98	3203
99	300
