Mass Spectrum: (3E,5Z)-1,3,5-Undecatriene
Formula: C11 H18
CAS: 51447-08-6
Molecular weight: 150
Origin: E.GIRAUDI, CENT. RECHERCHE, ROURE BERTRAND DUPONT, GRASSE, FR.
m/z	RELATIVE INTENSITY
38	18
39	1707
40	280
41	2483
42	83
43	241
44	58
50	65
51	373
52	230
53	530
54	194
55	489
56	21
57	65
58	5
62	9
63	80
64	2
65	923
66	1285
67	1420
68	146
69	34
75	1
77	4147
78	1486
79	9999
80	7177
81	757
82	50
83	9
89	14
91	3046
92	283
93	2214
94	414
95	81
96	232
97	9
103	26
104	2
105	107
106	10
107	204
108	40
109	32
115	10
117	6
119	8
121	58
122	3
135	9
148	24
150	2591
151	208
152	2
