Mass Spectrum: 2(3H)-Furanone, dihydro-3,5-dimethyl-
Formula: C6 H10 O2
CAS: 5145-01-7
Molecular weight: 114
m/z	RELATIVE INTENSITY
37	400
38	733
39	4733
41	4666
42	9999
43	6355
45	2022
50	156
51	244
53	533
54	356
55	8821
56	578
57	133
67	156
69	267
70	4200
71	1067
99	578
100	89
113	40
114	58
