Mass Spectrum: 2-Chloroethyl myristate
Formula: C16 H31 Cl O2
CAS: 51479-36-8
Molecular weight: 290
Origin: Japan AIST/NIMC Database- Spectrum MS-NW-2237
m/z	RELATIVE INTENSITY
14	20
15	60
16	10
17	20
18	70
26	109
27	2239
28	389
29	2449
30	60
31	119
32	99
35	20
36	189
37	10
38	60
39	709
40	169
41	4689
42	1179
43	6279
44	229
45	169
49	40
50	10
51	30
52	30
53	289
54	399
55	4209
56	1049
57	3989
58	209
59	129
60	749
61	449
62	7159
63	4399
64	2349
65	1389
66	50
67	579
68	379
69	2719
70	629
71	1689
72	99
73	1399
74	159
75	40
77	40
78	30
79	149
80	80
81	549
82	289
83	1619
84	1229
85	929
86	2589
87	1899
88	139
89	20
91	40
92	10
93	129
94	60
95	529
96	229
97	1289
98	1349
99	3229
100	289
101	399
102	40
103	10
104	10
105	20
106	10
107	179
108	40
109	279
110	119
111	609
112	329
113	159
114	20
115	139
116	30
117	10
119	30
120	10
121	119
122	9049
123	2029
124	2949
125	709
126	80
127	60
128	10
129	179
130	20
131	10
133	20
135	9999
136	679
137	3229
138	219
139	169
140	50
141	139
142	20
143	50
144	10
145	20
147	10
148	10
149	729
150	70
151	259
152	30
153	99
154	20
155	269
156	30
157	40
161	10
162	10
163	279
164	129
165	99
166	179
167	80
168	99
169	80
170	10
171	40
172	10
177	919
178	179
179	309
180	60
181	30
182	20
183	119
184	20
185	90
186	10
191	2559
192	309
193	829
194	99
195	20
197	40
198	10
199	30
205	399
206	60
207	139
208	30
209	109
210	50
211	4839
212	769
213	70
219	169
220	40
221	60
222	10
225	50
226	10
227	40
228	50
229	20
233	399
234	60
235	139
236	30
247	1629
248	269
249	559
250	90
251	10
253	10
254	169
255	60
256	10
261	379
262	80
263	129
264	30
289	10
290	1489
291	289
292	519
293	90
294	10
