Mass Spectrum: Cimetidine
Formula: C10 H16 N6 S
CAS: 51481-61-9
Molecular weight: 252
Origin: Japan AIST/NIMC Database- Spectrum MS-IW-3607
m/z	RELATIVE INTENSITY
14	10
15	279
25	10
26	319
27	369
28	949
29	139
30	1969
31	109
32	129
33	30
34	60
35	60
36	10
37	30
38	50
39	229
40	249
41	1049
42	1769
43	419
44	939
45	329
46	119
47	119
48	40
49	10
50	30
51	109
52	399
53	1089
54	969
55	709
56	479
57	2679
58	319
59	619
60	369
61	219
62	99
63	30
64	30
65	20
66	99
67	529
68	1229
69	1089
70	219
71	139
72	139
73	459
74	139
75	70
76	309
77	30
78	40
79	30
80	159
81	479
82	3059
83	1489
84	219
85	159
86	109
87	129
88	60
89	10
90	50
91	10
92	30
93	50
94	1479
95	9999
96	9439
97	1429
98	1869
99	4509
100	369
101	159
102	199
103	40
104	10
105	30
106	10
107	50
108	80
109	119
110	159
111	4049
112	1349
113	109
114	20
115	359
116	199
117	229
118	30
119	30
120	40
121	149
122	70
123	149
124	199
125	3979
126	6699
127	5039
128	2189
129	319
130	139
131	70
132	50
133	20
134	10
135	90
136	60
137	20
138	10
139	20
140	30
141	60
142	189
143	50
144	20
146	10
148	10
149	30
150	10
151	10
152	20
153	50
154	40
155	40
156	90
157	2529
158	2479
159	509
160	139
161	20
163	10
164	10
167	20
168	30
169	20
170	40
171	40
173	10
175	10
177	10
179	40
180	10
181	10
186	10
187	10
188	10
189	30
190	40
191	20
192	10
193	10
195	10
205	10
206	279
207	40
210	10
217	10
219	149
220	30
221	50
222	20
223	10
230	10
232	10
250	30
252	5949
253	909
254	319
255	40
