Mass Spectrum: 4-Isopropyl-2,6,7-trioxa-1-phosphabicyclo[2.2.2]octane
Formula: C7 H13 O3 P
CAS: 51486-55-6
Molecular weight: 176
Origin: VERIFIN - Methodology B1-1979
m/z	RELATIVE INTENSITY
27	500
28	100
39	1000
41	2802
42	300
43	1000
44	100
47	900
51	100
53	600
54	500
55	3302
56	600
57	200
65	400
67	5104
68	700
69	1401
77	200
79	300
81	600
82	9999
83	1901
94	200
103	400
105	300
109	1401
131	1901
132	80
145	900
146	6605
147	300
176	2000
177	50
