Mass Spectrum: Deoxynivalenol
Formula: C15 H20 O6
CAS: 51481-10-8
Molecular weight: 296
Origin: Hans-Ulrich Melchert, Robert Koch-Institute, Berlin, Germany
m/z	RELATIVE INTENSITY
51	2232
52	220
53	1201
55	1391
56	100
57	380
62	160
63	390
65	2422
66	430
67	2092
68	130
69	1251
70	150
71	190
77	6406
78	1281
79	6596
80	1011
81	1702
82	100
83	420
85	110
89	280
90	130
91	6526
92	791
93	1261
94	591
95	2522
96	711
97	1071
98	1161
103	651
105	4094
106	621
107	3153
108	1682
109	2382
110	360
111	520
115	1972
116	360
117	2172
118	450
119	1141
120	460
121	2482
122	530
123	1291
124	941
125	1031
126	340
127	320
128	450
129	1081
130	220
131	1081
132	370
133	1411
134	691
135	3023
136	961
137	1051
138	280
139	430
141	370
143	300
144	200
145	1672
146	420
147	931
148	250
149	841
150	400
151	581
152	130
153	210
154	170
155	200
156	120
157	621
158	330
159	1271
160	360
161	931
162	170
163	1541
164	340
165	210
166	100
167	100
171	260
172	140
173	891
174	400
175	1842
176	250
177	741
178	180
179	140
181	430
185	601
186	230
187	881
188	290
189	1551
190	190
191	380
192	120
193	110
195	180
197	160
198	300
199	280
200	250
201	550
202	320
203	2752
204	1141
205	520
206	200
207	240
208	390
209	100
211	140
212	190
213	440
214	220
215	1031
216	170
217	561
218	300
219	510
220	200
221	280
228	140
229	400
230	310
231	1511
232	250
233	240
235	120
238	100
247	561
248	9999
249	3123
250	500
260	270
265	1061
266	260
278	100
296	120
