Mass Spectrum: 2,3,16,17-Tetrakis[(trimethylsilyl)oxy]estra-1,3,5(10)-triene, (16.alpha.,17.beta.)-
Formula: C30 H56 O4 Si4
CAS: 51497-46-2
Molecular weight: 592
Origin: STER ESTR TMSI L SE30 01 3037 E, M.HORN
m/z	RELATIVE INTENSITY
45	250
55	100
59	100
73	6500
74	750
75	550
76	50
77	50
78	50
79	50
81	100
91	50
93	100
95	50
103	250
105	50
107	50
109	50
115	50
117	150
119	100
129	1150
130	150
131	250
132	50
133	300
134	50
135	50
141	100
143	250
144	50
145	50
146	50
147	1200
148	250
149	150
151	50
153	50
155	100
156	50
157	50
159	50
161	50
165	50
166	50
167	50
169	100
175	50
177	50
179	200
180	50
181	100
182	50
183	100
191	50
193	100
201	50
203	250
204	200
205	350
206	100
207	50
209	50
215	100
216	150
217	250
218	150
219	50
229	250
230	100
231	250
232	100
243	100
245	50
251	50
253	50
254	50
255	100
256	50
257	100
265	450
266	150
267	450
268	150
269	100
270	50
271	50
280	50
281	100
282	50
283	100
285	100
291	50
292	100
293	350
294	150
295	100
297	50
304	100
305	150
306	250
307	150
308	50
317	300
318	200
319	350
320	300
321	100
323	100
325	50
330	50
331	100
332	150
333	150
334	50
342	50
343	100
344	100
345	250
346	100
347	50
355	50
356	100
357	150
358	150
359	150
360	100
369	50
370	50
371	250
372	200
373	200
374	200
375	100
383	100
384	150
385	350
386	200
387	400
388	100
389	50
397	50
399	300
400	100
401	50
411	200
412	150
413	250
414	100
415	50
429	50
430	100
431	50
432	100
433	500
434	250
435	150
436	50
447	50
448	300
449	150
450	100
473	50
474	150
475	100
476	100
477	50
487	50
501	50
502	150
503	100
504	100
505	50
577	300
578	200
579	100
580	50
592	9999
593	5200
594	2600
595	1100
596	250
597	100
