Mass Spectrum: Ethyl benzenesulfonate
Formula: C8 H10 O3 S
CAS: 515-46-8
Molecular weight: 186
Origin: Japan AIST/NIMC Database- Spectrum MS-NW-5024
m/z	RELATIVE INTENSITY
14	30
15	149
16	10
25	30
26	219
27	729
28	279
29	879
30	30
31	60
32	30
37	30
38	80
39	349
40	50
41	10
42	20
43	129
44	40
45	569
46	20
48	80
49	30
50	829
51	2799
52	199
53	50
55	40
57	10
58	10
59	10
60	10
61	10
62	40
63	80
64	159
65	429
66	329
67	20
69	60
70	10
71	10
73	40
74	219
75	199
76	279
77	9999
78	2859
79	199
80	20
81	20
82	20
84	20
91	40
92	20
93	139
94	1829
95	119
96	10
97	60
103	10
105	10
107	40
108	70
109	60
110	119
111	30
112	10
113	10
125	70
126	10
127	10
128	10
141	6249
142	1719
143	479
144	90
145	10
154	10
155	10
156	50
157	10
158	1019
159	109
160	60
171	329
172	60
173	20
185	10
186	1379
187	139
188	90
189	10
