Mass Spectrum: Cyclohexane, 1-ethenyl-1-methyl-2,4-bis(1-methylethenyl)-, [1S-(1.alpha.,2.beta.,4.beta.)]-
Formula: C15 H24
CAS: 515-13-9
Molecular weight: 204
m/z	RELATIVE INTENSITY
27	1742
28	340
29	1842
30	50
38	70
39	2612
40	941
41	5825
42	581
43	1301
44	50
50	120
51	480
52	290
53	3483
54	340
55	4064
56	190
57	390
58	50
59	20
63	140
64	100
65	991
66	681
67	4864
68	7447
69	2172
70	140
71	70
72	50
73	20
75	100
76	50
77	2222
78	480
79	4114
80	1401
81	9999
82	971
83	220
84	50
85	50
89	70
90	50
91	2833
92	1141
93	8708
94	2562
95	2492
96	290
97	140
103	170
104	100
105	2903
106	1211
107	5225
108	2512
109	1111
110	140
111	50
115	120
116	50
117	170
118	100
119	2342
120	1041
121	4114
122	1061
123	1161
124	120
125	20
128	50
129	20
130	20
131	100
132	70
133	2222
134	1061
135	1842
136	581
137	50
145	100
146	50
147	3573
148	1571
149	631
150	100
160	50
161	2422
162	801
163	480
164	50
175	581
176	270
177	50
189	2222
190	340
204	390
205	50
