Mass Spectrum: 1-Chloro-2-methyl-2-phenylpropane
Formula: C10 H13 Cl
CAS: 515-40-2
Molecular weight: 168
Origin: NIST Mass Spectrometry Data Center
m/z	RELATIVE INTENSITY
11	10
13	30
15	480
26	170
27	901
28	130
30	10
35	20
36	40
37	130
38	390
39	2532
40	320
41	2482
42	60
44	10
47	40
49	891
50	1111
51	2542
52	510
53	370
54	50
55	210
56	40
58	260
61	90
62	300
63	781
64	230
65	931
66	70
73	80
74	200
75	410
76	360
77	1842
78	891
79	1021
80	70
85	20
86	60
87	90
89	370
91	7877
92	641
93	60
98	20
99	30
101	90
102	390
103	931
104	260
105	90
112	10
113	40
115	1291
116	360
117	1181
119	9999
120	1021
121	50
125	140
126	30
127	60
128	50
129	20
131	30
132	20
133	10
153	90
154	10
155	30
168	530
169	70
170	170
171	20
