Mass Spectrum: Sulfisomidine
Formula: C12 H14 N4 O2 S
CAS: 515-64-0
Molecular weight: 278
Origin: Tox21 Consortium/NIST Mass Spectrometry Data Center, 2012
m/z	RELATIVE INTENSITY
15	100
16	10
17	20
18	20
26	80
27	260
28	470
29	30
30	20
32	20
36	10
37	40
38	220
39	1471
40	651
41	761
42	2302
43	140
44	20
45	40
48	60
49	10
50	90
51	160
52	530
53	460
54	1031
55	130
56	10
58	20
59	20
60	10
61	30
62	90
63	490
64	591
65	5005
66	1391
67	260
68	60
69	60
70	20
71	20
72	10
73	30
74	50
75	50
76	40
77	70
78	100
79	160
80	460
81	320
82	110
83	120
84	20
85	30
86	100
88	20
89	40
90	150
91	460
92	6045
93	591
94	30
95	260
96	360
97	130
98	20
99	10
101	10
102	20
103	30
104	110
105	170
106	230
107	1281
108	5395
109	440
110	30
111	10
112	40
113	10
115	20
116	10
117	40
118	120
119	40
120	40
121	20
122	40
123	430
124	160
125	60
127	10
128	20
129	30
130	50
131	190
132	360
133	671
134	80
135	10
136	10
140	440
141	60
142	20
143	20
144	30
145	140
146	110
147	20
155	100
156	701
157	180
158	90
159	10
160	10
168	10
169	10
170	100
171	120
172	390
173	180
174	40
182	10
184	10
185	10
186	30
187	20
188	10
195	10
196	30
197	40
198	40
199	260
200	30
207	10
209	10
210	10
211	20
212	50
213	8738
214	9999
215	1271
216	100
217	10
261	10
278	120
279	20
280	10
