Mass Spectrum: 1,6-Heptadien-3-yne
Formula: C7 H8
CAS: 5150-80-1
Molecular weight: 92
Origin: S.A. Rang et al., IR & MS of Unsatd. Hydrocarbons, 1977
m/z	RELATIVE INTENSITY
26	480
27	1150
29	40
37	370
38	720
39	2780
41	260
42	40
43	120
49	120
50	600
51	990
52	430
53	390
54	10
61	340
62	780
63	1730
64	570
65	2730
66	550
73	50
74	150
75	80
76	60
77	220
78	20
79	10
84	20
85	80
86	120
87	80
88	20
90	380
91	9999
92	3680
93	280
