Mass Spectrum: 1,4-Hexadiene, 2,3,4,5-tetramethyl-
Formula: C10 H18
CAS: 51504-54-2
Molecular weight: 138
Origin: D. P. G. HAMON UNIVERSITY OF ADELAIDE, AUSTRALIA
m/z	RELATIVE INTENSITY
39	1200
40	500
41	2500
42	500
43	120
44	50
45	70
51	600
52	400
53	1200
54	400
55	2900
56	400
57	120
59	50
65	300
67	2200
68	500
69	1600
77	800
78	200
79	1200
80	200
81	5300
82	1000
83	1000
91	1000
92	200
93	1000
94	300
95	2100
96	400
97	1500
98	500
105	400
107	500
108	700
109	500
121	400
122	400
123	9999
124	1400
138	2000
139	400
