Mass Spectrum: Estradiol, 2TMS derivative
Formula: C24 H40 O2 Si2
CAS: 5150-62-9
Molecular weight: 416
Origin: NIST Mass Spectrometry Data Center
m/z	RELATIVE INTENSITY
27	20
29	80
31	20
39	60
41	340
42	30
43	270
44	130
45	961
46	70
47	180
48	10
49	10
50	10
51	20
52	10
53	150
54	30
55	651
56	30
57	60
58	70
59	631
60	80
61	270
62	20
63	20
65	80
67	460
68	40
69	140
70	30
71	50
73	9999
74	881
75	2332
76	160
77	310
78	50
79	440
80	50
81	480
82	60
83	80
84	10
85	140
86	20
87	50
88	10
89	70
90	10
91	500
92	70
93	440
94	90
95	340
96	30
97	40
99	80
101	340
102	60
103	180
104	40
105	310
106	50
107	360
108	100
109	200
110	20
111	30
112	10
113	40
115	1111
116	210
117	210
118	30
119	130
120	40
121	120
122	20
123	20
124	10
125	10
126	20
127	170
128	440
129	3733
130	601
131	270
132	50
133	200
134	90
135	200
136	30
137	30
138	10
139	40
140	30
141	350
142	120
143	170
144	40
145	180
146	40
147	400
148	90
149	180
150	30
151	110
152	90
153	130
154	80
155	200
156	60
157	80
158	30
159	400
160	70
161	300
162	70
163	591
164	130
165	250
166	70
167	170
168	50
169	140
170	40
171	80
172	20
173	80
174	20
175	150
176	70
177	781
178	210
179	550
180	280
181	150
182	80
183	110
184	30
185	230
186	50
187	210
188	80
189	571
190	140
191	200
192	230
193	360
194	90
195	80
196	30
197	50
198	30
199	150
201	561
202	150
203	621
204	240
205	1311
206	310
207	120
208	30
209	40
210	10
211	50
212	20
213	100
214	70
215	480
216	250
217	931
218	1611
219	510
220	130
221	60
222	20
223	60
224	10
225	50
226	20
227	110
229	891
230	921
231	2052
232	2332
233	510
234	120
235	40
236	20
237	60
238	20
239	60
240	20
241	100
242	180
243	430
244	1281
245	561
246	160
247	40
248	10
249	10
250	10
251	50
252	20
253	120
254	50
255	200
256	180
257	440
258	310
259	120
260	30
261	10
263	10
264	10
265	20
266	20
267	80
268	70
269	561
270	310
271	520
272	350
273	100
274	20
275	10
277	10
279	10
280	10
281	60
282	50
283	741
284	1121
285	7166
286	1982
287	911
288	190
289	40
290	10
291	10
293	10
294	10
295	30
296	30
297	450
298	791
299	260
300	250
301	60
302	20
303	10
305	20
306	10
307	10
309	60
310	40
311	340
312	90
313	30
317	10
319	40
320	10
321	10
323	20
324	30
325	741
326	901
327	260
328	70
329	10
342	30
343	20
344	10
345	10
359	10
371	20
372	10
373	10
374	20
388	20
389	10
399	20
401	671
402	210
403	80
404	20
405	10
414	100
416	6866
417	2442
418	911
419	190
420	30
421	10
