Mass Spectrum: 2,4,6-Trichlorobenzenesulfonyl chloride
Formula: C6 H2 Cl4 O2 S
CAS: 51527-73-2
Molecular weight: 278
Origin: NIST Mass Spectrometry Data Center, 1994
m/z	RELATIVE INTENSITY
12	225
13	101
16	661
17	206
18	98
24	96
25	192
28	364
29	126
32	885
34	123
35	1671
36	1458
37	2196
38	919
39	192
44	159
45	373
47	772
48	4373
49	953
50	648
51	96
53	212
54	471
55	648
60	691
61	1355
62	922
63	96
64	1948
65	222
66	60
68	213
69	873
70	196
71	60
72	1179
73	3330
74	6221
75	202
77	148
79	499
81	469
82	260
83	627
84	3005
85	536
86	1100
87	119
89	204
91	32
93	362
94	181
95	310
96	417
97	1089
98	224
99	623
103	222
105	271
106	543
107	1242
108	4269
109	4252
110	1367
111	1226
112	32
118	374
119	484
120	302
121	432
122	250
129	330
131	262
133	153
141	282
143	4906
144	2223
145	1760
146	1218
148	183
164	197
166	141
167	1069
169	1101
171	390
176	408
177	227
179	7562
181	6273
183	1481
185	41
195	4518
197	4481
198	358
199	1698
200	41
201	332
211	137
212	200
213	142
214	1182
215	137
216	1523
217	41
218	667
227	200
229	180
243	9999
245	9999
246	824
247	3626
248	327
249	552
258	226
260	310
262	268
278	3571
279	265
280	4821
281	357
282	2500
283	184
284	481
