Mass Spectrum: 4,6-Dioxoheptanoic acid
Formula: C7 H10 O4
CAS: 51568-18-4
Molecular weight: 158
Origin: NIST Mass Spectrometry Data Center
m/z	RELATIVE INTENSITY
14	20
15	130
16	10
17	10
18	40
19	10
25	10
26	160
27	781
28	440
29	811
30	50
31	270
34	10
35	20
36	110
37	50
38	140
39	611
40	120
41	711
42	1021
43	9999
44	350
45	1371
46	40
47	30
49	30
50	80
51	120
52	70
53	290
54	90
55	2522
56	961
57	210
58	771
59	70
60	70
61	60
62	20
63	30
64	10
65	30
66	40
67	120
68	50
69	1311
70	240
71	180
72	40
73	811
74	90
75	80
76	10
77	40
78	10
79	40
80	20
81	40
82	30
83	100
84	110
85	7467
86	380
87	50
89	10
91	10
92	10
93	10
94	20
95	60
96	20
97	711
98	1772
99	500
100	80
101	1291
102	60
103	230
104	10
105	20
107	30
108	10
109	20
110	10
111	290
112	430
113	410
114	90
115	20
116	130
117	20
119	10
120	10
121	10
122	10
123	10
125	1641
126	120
127	10
130	10
131	10
133	10
136	10
140	1391
141	130
142	20
143	170
144	10
149	10
152	20
158	1041
159	90
160	10
