Mass Spectrum: Methyloctadecyldichlorosilane
Formula: C19 H40 Cl2 Si
CAS: 5157-75-5
Molecular weight: 366
Origin: Japan AIST/NIMC Database- Spectrum MS-IW-7610
m/z	RELATIVE INTENSITY
26	20
27	289
28	109
29	1179
30	20
35	20
36	289
38	99
39	239
40	60
41	2909
42	829
43	7299
44	259
45	10
51	10
53	139
54	389
55	3119
56	1949
57	9999
58	579
59	10
63	139
64	10
65	50
66	30
67	389
68	399
69	2379
70	1959
71	9169
72	529
73	10
77	30
78	99
79	329
80	50
81	219
82	539
83	1909
84	1719
85	6989
86	459
87	10
91	30
92	50
93	149
94	20
95	129
96	339
97	1669
98	1659
99	2619
100	189
101	40
103	10
105	119
106	70
107	90
108	30
109	60
110	189
111	1019
112	1509
113	5609
114	399
115	3779
116	229
117	729
118	40
119	219
120	50
121	99
122	20
123	30
124	119
125	599
126	1279
127	1469
128	139
129	30
131	30
132	20
133	169
134	40
135	70
136	10
137	20
138	80
139	309
140	1009
141	2679
142	239
143	1809
144	139
145	329
146	30
147	449
148	70
149	179
150	20
151	10
152	50
153	179
154	979
155	3739
156	999
157	2519
158	349
159	479
160	40
161	269
162	40
163	90
164	10
166	40
167	159
168	519
169	2619
170	419
171	1739
172	189
173	329
174	30
175	60
176	10
177	20
180	20
181	90
182	379
183	1639
184	299
185	1049
186	139
187	199
188	20
189	20
191	10
194	20
195	60
196	219
197	1329
198	229
199	889
200	119
201	169
202	20
203	10
207	30
208	10
209	109
210	109
211	919
212	189
213	599
214	90
215	109
216	10
217	10
222	10
223	40
224	199
225	909
226	229
227	579
228	99
229	109
230	10
231	10
236	10
237	30
238	179
239	699
240	229
241	489
242	90
243	90
244	10
245	10
251	20
252	679
253	819
254	289
255	529
256	109
257	99
258	10
259	10
261	10
265	20
266	229
267	639
268	269
269	439
270	99
271	80
272	10
273	20
274	10
275	10
279	10
280	259
281	769
282	309
283	529
284	119
285	109
286	20
287	20
288	10
289	10
294	219
295	679
296	269
297	469
298	109
299	80
300	10
301	10
302	10
308	209
309	749
310	299
311	539
312	129
313	109
314	20
315	20
317	10
322	119
323	479
324	189
325	339
326	80
327	60
328	10
330	169
331	139
332	90
333	50
334	10
336	99
337	509
338	189
339	359
340	90
341	70
342	20
350	10
351	589
352	159
353	419
354	99
355	80
356	20
364	20
365	50
366	2769
367	749
368	1939
369	499
370	399
371	90
372	10
