Mass Spectrum: 1-(2-Chlorophenyl)imidazoline-2-thione
Formula: C9 H7 Cl N2 S
CAS: 51581-47-6
Molecular weight: 210
Origin: NIST Mass Spectrometry Data Center, 1994
m/z	RELATIVE INTENSITY
4	6
14	36
18	29
26	98
27	104
28	529
32	134
36	75
37	163
38	283
39	348
40	254
41	153
44	130
45	914
46	72
47	63
49	109
50	668
51	502
52	171
53	34
56	27
57	195
58	121
59	217
60	65
61	175
62	234
63	552
64	238
65	144
69	168
70	145
71	240
72	1045
73	348
74	539
75	1564
76	334
77	287
78	73
81	45
82	49
83	65
84	203
85	207
86	45
87	1101
88	45
89	343
90	353
91	92
93	60
94	46
95	42
96	41
97	70
98	47
99	153
100	44
101	53
102	183
103	126
104	430
105	217
106	73
107	102
108	215
109	50
110	41
111	667
112	73
113	234
114	93
115	74
116	389
117	374
118	46
119	144
120	158
121	194
122	58
123	81
124	72
125	64
129	45
130	44
131	44
134	855
135	229
136	65
137	41
138	155
139	29
140	59
142	99
143	43
146	145
148	1077
149	142
150	156
151	153
152	56
153	69
155	63
157	24
173	112
175	9999
176	1107
177	570
178	178
182	47
209	179
210	1727
211	265
212	657
213	77
214	29
