Mass Spectrum: Carbamic acid, dimethyl-, 3-pyridinyl ester
Formula: C8 H10 N2 O2
CAS: 51581-32-9
Molecular weight: 166
Origin: Finnigan MAT: Toxicological Library (LIBR-TX)
m/z	RELATIVE INTENSITY
50	336
51	755
52	133
56	735
66	370
67	72
72	9999
73	680
74	48
78	262
94	47
95	98
106	17
109	12
119	23
121	9
137	26
138	2
147	1
148	1
149	1
166	1602
167	200
