Mass Spectrum: Oxirane, (chloromethyl)-, (R)-
Formula: C3 H5 Cl O
CAS: 51594-55-9
Molecular weight: 92
Origin: Chuck Anderson, Aldrich Chemical Co.
m/z	RELATIVE INTENSITY
14	28
15	61
25	48
26	341
27	1449
28	498
29	1533
30	102
31	987
35	42
36	53
37	147
38	158
39	284
40	40
41	84
42	798
43	312
47	95
48	145
49	3466
50	127
51	1034
52	29
53	31
55	81
57	9999
58	333
59	41
60	122
61	393
62	1428
63	258
64	435
65	53
77	19
