Mass Spectrum: Pregnan-3-one, 20-hydroxy-, (5.alpha.,20R)-
Formula: C21 H34 O2
CAS: 516-58-5
Molecular weight: 318
Origin: LAC, NIDDK, NIH, Bethesda, MD 20892
m/z	RELATIVE INTENSITY
41	1519
42	107
43	1309
45	2642
53	574
54	111
55	2115
56	131
57	395
65	251
67	1712
68	1126
69	778
71	469
77	629
78	122
79	1758
80	250
81	2054
82	497
83	408
84	55
85	121
91	1280
93	1752
94	530
95	1738
96	297
97	325
99	107
105	933
106	382
107	1335
108	807
109	1266
110	412
111	275
117	269
118	126
119	798
120	385
121	1191
122	1347
123	1035
124	1183
125	214
129	325
131	389
132	128
133	600
134	205
135	1014
136	413
137	406
143	119
145	402
146	169
147	618
148	236
149	694
150	105
157	152
159	429
160	330
161	647
162	349
163	1016
164	295
165	212
171	207
173	361
174	283
175	614
176	535
177	678
178	120
179	114
185	133
187	295
188	59
189	501
190	306
199	255
201	267
202	285
203	595
204	282
213	307
215	460
216	818
217	4538
218	1074
219	327
227	273
228	189
229	601
230	769
231	5405
232	9999
233	9010
234	2192
235	300
241	104
243	348
244	1359
245	546
246	401
247	53
255	178
257	384
258	272
259	627
260	177
261	105
267	113
271	1023
272	235
273	59
285	1975
286	471
287	191
292	124
299	53
300	5340
301	1201
302	513
303	254
318	2714
319	660
320	202
