Mass Spectrum: Ergosta-5,7-dien-3-ol, (3.beta.)-
Formula: C28 H46 O
CAS: 516-79-0
Molecular weight: 398
Origin: LAC, NIDDK, NIH, Bethesda, MD 20892
m/z	RELATIVE INTENSITY
41	4960
43	8812
44	358
53	1038
55	9999
57	3441
58	111
65	293
67	4525
69	8417
71	1216
77	1295
79	3144
81	6597
82	987
83	2872
84	585
85	366
91	3473
93	4193
95	4920
96	688
97	753
98	221
99	309
103	218
105	4046
107	6392
109	2670
111	212
115	429
117	1497
119	2523
121	2365
123	1392
125	2183
128	221
129	637
131	1695
133	2666
135	2642
137	831
141	99
142	101
143	783
145	2622
147	3781
148	164
149	1240
150	133
151	651
155	107
157	920
158	376
159	1463
161	2203
163	615
164	279
165	101
171	572
172	198
173	888
174	271
175	1003
177	259
185	712
187	829
188	133
189	257
197	322
199	524
200	115
201	544
203	231
213	1196
214	129
215	690
217	249
227	390
228	609
229	1543
231	1106
232	107
241	263
243	233
245	138
246	2251
247	344
253	566
255	2757
256	457
257	1127
258	453
259	261
269	117
270	208
271	5522
272	1450
273	2215
274	483
283	101
285	449
299	585
300	1147
301	245
337	127
355	419
383	1038
384	111
398	3584
399	1068
