Mass Spectrum: 5.alpha.-Pregnane-3.beta.-ol-20-one
Formula: C21 H34 O2
CAS: 516-55-2
Molecular weight: 318
Origin: LAC, NIDDK, NIH, Bethesda, MD 20892
m/z	RELATIVE INTENSITY
41	2474
43	9999
44	502
45	272
47	241
48	125
49	127
51	54
52	32
53	902
54	253
55	3157
56	256
57	970
58	173
59	105
65	455
66	199
67	2746
68	660
69	1410
70	272
71	1899
72	118
73	58
77	1226
78	315
79	3088
80	684
81	3045
82	431
83	787
84	6245
85	1544
86	714
88	122
91	2651
92	540
93	2820
94	931
95	2599
96	337
97	390
98	171
99	130
100	31
102	35
103	141
104	143
105	2022
106	749
107	3118
108	1038
109	1332
110	236
111	343
112	31
113	29
115	200
116	109
117	558
118	326
119	1600
120	1012
121	1741
122	1012
123	902
124	458
125	243
127	56
128	138
129	254
130	128
131	893
132	443
133	1408
134	1393
135	1641
136	480
137	421
138	220
139	68
141	104
142	79
143	327
144	188
145	1349
146	408
147	1514
148	746
149	1077
150	204
151	248
152	28
155	72
156	35
157	279
158	184
159	983
160	625
161	1198
162	349
163	527
164	163
165	249
166	69
169	119
171	306
172	179
173	711
174	713
175	1028
176	273
177	239
178	181
179	89
183	101
185	301
186	147
187	648
188	261
189	302
190	151
191	290
192	563
193	168
194	28
197	155
199	223
200	137
201	483
202	148
203	215
204	184
205	281
206	110
211	154
212	66
213	667
214	206
215	3110
216	723
217	532
218	296
219	311
220	59
225	123
226	61
227	254
228	125
229	362
230	220
231	573
232	353
233	1845
234	540
235	78
239	92
240	64
241	156
242	253
243	194
244	118
245	234
246	158
247	105
248	204
253	179
254	30
255	459
256	190
257	1481
258	618
259	263
260	1600
261	561
262	89
265	85
267	487
268	116
271	355
272	370
273	675
274	1215
275	460
276	79
282	118
283	302
284	93
285	948
286	211
287	30
298	404
299	136
300	2422
301	687
302	158
303	877
304	195
316	962
317	290
318	5769
319	1377
320	198
