Mass Spectrum: Epicholestanol
Formula: C27 H48 O
CAS: 516-95-0
Molecular weight: 388
Origin: CARL DJERASSI DEPT OF CHEM STANFORD UNIV STANFORD CALIF 94305
m/z	RELATIVE INTENSITY
40	101
41	909
42	101
43	1414
44	101
53	202
54	101
55	1111
56	101
57	1111
58	101
59	101
60	101
65	101
66	101
67	1010
68	303
69	909
70	202
71	505
72	101
73	101
77	404
78	101
79	1111
80	303
81	1919
82	404
83	808
84	101
85	202
87	101
91	1111
92	202
93	1414
94	606
95	2222
96	303
97	606
98	202
99	101
100	101
101	101
103	101
104	101
105	1212
106	606
107	2626
108	1818
109	1616
110	303
111	404
112	101
115	101
117	202
118	101
119	909
120	606
121	1616
122	909
123	1111
124	707
125	202
126	101
127	101
128	101
129	101
131	303
132	202
133	1010
134	505
135	1313
136	505
137	505
138	303
139	101
141	101
144	101
145	505
146	202
147	1616
148	1111
149	1414
150	202
151	202
152	101
153	101
156	101
157	101
158	101
159	404
160	404
161	1010
162	2525
163	404
164	202
165	3434
166	1111
167	202
171	101
172	101
173	505
174	202
175	606
176	202
177	202
178	202
179	202
185	101
186	101
187	505
188	202
189	404
190	606
191	404
192	202
193	101
194	101
199	202
200	101
201	1111
202	303
203	303
204	202
205	202
206	303
208	202
215	8383
216	3232
217	4747
218	808
219	1515
220	404
228	101
229	303
230	1010
231	505
232	303
233	9999
234	6666
235	1111
236	101
241	101
243	1111
244	202
247	202
248	2121
249	404
257	707
258	101
259	101
262	1818
263	600
264	101
267	101
273	101
274	101
275	101
276	101
285	303
288	202
289	202
315	101
331	404
332	101
355	2828
356	808
357	101
358	101
359	202
360	101
369	101
370	404
371	202
373	4242
374	1212
375	101
387	101
388	7777
389	2323
390	303
