Mass Spectrum: Thiophene, tetrahydro-2,5-dimethyl-, trans-
Formula: C6 H12 S
CAS: 5161-14-8
Molecular weight: 116
m/z	RELATIVE INTENSITY
25	10
26	310
27	2362
28	561
29	280
30	20
32	70
33	60
34	50
35	230
36	10
37	90
38	200
39	2112
40	310
41	2983
42	410
43	150
44	20
45	2062
46	230
47	821
48	40
49	100
50	120
51	170
52	60
53	420
54	180
55	1281
56	290
57	190
58	591
59	3994
60	1972
61	2452
62	160
63	130
64	10
65	130
66	40
67	2352
68	150
69	150
70	50
71	140
72	30
73	440
74	2993
75	220
76	130
77	50
78	10
79	70
80	10
81	240
82	180
83	90
84	30
85	90
86	20
87	210
88	160
89	20
90	10
97	40
98	10
99	190
100	40
101	9999
102	631
103	450
104	30
113	10
115	220
116	3763
117	250
118	170
119	10
