Mass Spectrum: trans-2,3-Dimethylthiophane
Formula: C6 H12 S
CAS: 5161-78-4
Molecular weight: 116
Origin: V.G.Zaikin, TIPS, Russian Acad. Sci., Moscow
m/z	RELATIVE INTENSITY
38	120
39	1771
40	280
41	4183
42	400
43	220
44	290
45	1871
46	560
47	670
50	120
51	300
52	70
53	620
54	320
55	2161
56	570
57	120
58	510
59	3182
60	1971
61	1221
62	160
63	50
65	210
67	1811
68	250
69	760
70	320
71	190
72	40
73	530
74	2542
75	260
76	80
81	260
82	340
83	150
84	50
85	290
86	20
87	290
88	870
89	50
99	210
100	120
101	9999
102	670
103	420
115	380
116	4353
117	340
118	200
119	10
