Mass Spectrum: 1-Butene, 4-bromo-
Formula: C4 H7 Br
CAS: 5162-44-7
Molecular weight: 134
Origin: Japan AIST/NIMC Database- Spectrum MS-NW-2880
m/z	RELATIVE INTENSITY
14	20
15	30
25	20
26	349
27	1859
28	359
29	1849
30	40
36	10
37	80
38	149
39	1769
40	139
41	1379
42	50
43	10
44	10
49	50
50	199
51	239
52	99
53	759
54	669
55	9999
56	439
57	20
79	50
80	50
81	60
82	50
93	80
95	70
105	10
106	139
107	40
108	129
109	20
119	20
121	20
134	439
135	20
136	409
137	20
