Mass Spectrum: Glyoxylic oxime acid, bis(trimethylsilyl)-
Formula: C8 H19 N O3 Si2
CAS: 51621-77-3
Molecular weight: 233
Origin: O A MAMER, MCGILL UNIVERSITY, MONTRE
m/z	RELATIVE INTENSITY
15	478
27	330
28	1085
29	295
40	334
41	695
43	1196
44	503
45	2311
47	567
51	283
52	621
58	549
59	988
61	278
66	381
73	9999
74	1229
75	2800
79	650
84	327
101	266
116	656
133	345
147	5131
148	838
149	508
190	621
218	3203
219	647
220	331
233	1425
234	314
