Mass Spectrum: 1-Chloromethyl-3,5-bis(1,1-dimethylethyl)benzene
Formula: C15 H23 Cl
CAS: 51625-14-0
Molecular weight: 238
Origin: V.A.KOPTYUG, ATLAS OF MASS SPECTRA OF ORGANIC COMPOUNDS
m/z	RELATIVE INTENSITY
43	610
55	640
57	7199
58	330
65	380
77	420
90	330
91	850
104	470
105	480
115	700
117	400
119	300
128	480
129	440
131	640
195	330
203	570
223	9999
224	1700
225	3300
226	520
238	1700
240	530
