Mass Spectrum: 2-Ketoisocaproic acid oxime, bis(trimethylsilyl)- deriv.
Formula: C12 H27 N O3 Si2
CAS: 51621-80-8
Molecular weight: 289
Origin: John Halket,Royal Holloway, University of London, UK
m/z	RELATIVE INTENSITY
15	60
26	20
27	250
28	80
29	280
30	30
31	90
38	10
39	190
40	60
41	671
42	160
43	1181
44	330
45	2132
46	160
47	460
48	20
49	20
51	10
52	30
53	70
54	100
55	340
56	801
57	320
58	460
59	1581
60	190
61	350
62	20
63	10
64	10
65	10
66	60
67	30
68	60
69	50
70	160
71	90
73	9999
74	1221
75	2312
76	180
77	120
79	10
80	30
81	80
82	1351
83	140
84	360
85	80
86	150
87	60
89	1061
90	100
91	150
92	10
93	10
94	10
96	20
97	30
98	140
99	110
100	260
101	50
102	40
103	130
104	20
105	60
106	10
107	10
108	10
110	861
111	70
112	20
113	50
114	160
115	270
116	100
117	200
118	40
119	80
120	20
121	10
124	20
125	10
126	30
127	10
129	1441
130	761
131	761
132	150
133	1021
134	140
135	90
136	10
138	10
140	400
141	60
142	50
143	30
144	70
145	30
147	5475
148	911
149	581
150	60
151	20
154	230
155	60
156	350
157	90
158	110
159	80
160	20
161	10
163	140
164	30
165	10
166	50
167	10
168	10
170	20
172	1601
173	280
174	120
175	70
176	20
177	10
182	120
183	70
184	550
185	90
186	50
187	10
188	70
189	20
190	260
191	50
192	30
200	5425
201	901
202	310
203	70
204	150
205	40
206	20
215	20
216	140
217	30
218	40
219	10
220	20
228	40
229	10
230	20
231	40
232	140
233	30
234	10
244	10
246	1121
247	1952
248	480
249	180
250	30
256	10
258	10
272	30
274	3133
275	751
276	310
277	50
278	10
288	10
289	40
290	20
291	10
