Mass Spectrum: 2-Phenyl-5-methoxy-oxadiazol-1,3,4
Formula: C9 H8 N2 O2
CAS: 51627-42-0
Molecular weight: 176
Origin: ASES Database, Dalian Institute, P.R. China
m/z	RELATIVE INTENSITY
50	900
51	1371
59	1101
62	500
63	1201
64	400
76	990
77	3723
78	790
89	1481
90	500
91	1101
103	2522
104	1581
105	4764
106	400
131	690
132	390
145	290
176	9999
177	1201
