Mass Spectrum: Acetonitrile, (m-phenoxyphenyl)-
Formula: C14 H11 N O
CAS: 51632-29-2
Molecular weight: 209
Origin: NIST Mass Spectrometry Data Center, 1994
m/z	RELATIVE INTENSITY
14	46
26	110
27	446
28	374
29	46
32	60
37	140
38	597
39	2437
40	286
41	154
50	1605
51	4682
52	445
53	139
55	103
57	83
61	124
62	530
63	1843
64	769
65	969
66	229
68	63
69	40
70	65
71	58
73	52
74	397
75	504
76	1349
77	4733
78	1804
79	106
82	68
84	35
86	75
87	122
88	217
89	1723
90	537
91	575
92	70
93	52
94	346
101	51
102	154
103	495
104	155
105	66
106	74
113	60
114	167
115	910
116	1074
117	99
126	78
127	130
128	154
129	49
132	56
133	42
139	323
141	3659
142	514
150	39
151	133
152	395
153	516
154	420
155	131
164	86
165	153
166	219
167	39
168	632
169	1672
170	195
178	45
180	1264
181	1973
182	444
183	106
190	91
206	68
207	47
209	9999
210	1533
211	143
