Mass Spectrum: Fenvalerate
Formula: C25 H22 Cl N O3
CAS: 51630-58-1
Molecular weight: 419
Origin: NIST Mass Spectrometry Data Center, 1995
m/z	RELATIVE INTENSITY
11	31
12	68
14	51
15	32
16	32
17	73
18	122
27	720
28	518
29	741
30	54
38	29
39	957
41	797
43	1485
50	395
51	1590
52	24
53	62
54	24
55	1658
56	30
62	42
63	654
64	111
65	379
73	235
75	232
76	499
77	2357
78	311
88	241
89	1188
90	301
91	525
103	574
113	37
114	593
115	1770
116	692
117	575
124	299
125	9999
126	1223
127	3587
128	512
139	954
140	88
141	1087
150	24
151	199
152	4328
153	1133
154	1130
165	54
167	7791
168	1387
169	4093
170	737
171	467
178	88
180	1005
181	4524
182	737
197	685
198	538
206	322
207	349
208	1054
209	1331
210	70
223	76
225	6691
226	1106
419	4953
420	1458
421	1915
422	358
