Mass Spectrum: Hydrazine, 1,1-di-2-propenyl-
Formula: C6 H12 N2
CAS: 5164-11-4
Molecular weight: 112
Origin: ATLAS OF MASS SPECTRA OF ORGANIC COMPOUNDS, V. A. KOPTYUG, ED.
m/z	RELATIVE INTENSITY
27	3100
29	1640
30	760
31	1280
38	250
39	2930
40	360
41	9999
42	1070
43	1670
44	2150
45	700
54	670
55	410
56	740
57	190
67	100
68	180
69	230
70	160
71	4790
72	690
85	540
112	1980
113	180
