Mass Spectrum: 2-Butyl-1-decene
Formula: C14 H28
CAS: 51655-65-3
Molecular weight: 196
Origin: NIST Mass Spectrometry Data Center, 1990.
m/z	RELATIVE INTENSITY
27	1506
28	771
29	2363
32	104
39	1279
40	397
41	4772
42	790
43	2251
44	100
51	83
52	94
53	754
54	517
55	4916
56	9999
57	3990
58	170
65	168
66	98
67	1006
68	614
69	3309
70	3494
71	389
77	161
79	251
81	445
82	253
83	1821
84	623
85	211
95	140
96	202
97	681
98	903
99	355
110	133
111	457
112	171
126	278
138	130
139	481
140	104
154	124
196	378
