Mass Spectrum: Butane, 2-azido-2,3,3-trimethyl-
Formula: C7 H15 N3
CAS: 51677-41-9
Molecular weight: 141
m/z	RELATIVE INTENSITY
39	1300
41	4200
42	1500
43	2500
56	4000
57	9999
58	900
83	400
98	200
99	1000
113	200
