Mass Spectrum: 9(10H)-Acridinone, 1,2,3,4-tetramethoxy-10-methyl-
Formula: C18 H19 N O5
CAS: 517-73-7
Molecular weight: 329
m/z	RELATIVE INTENSITY
102	651
103	220
104	220
114	651
116	430
126	330
127	430
128	540
129	871
130	430
132	220
139	150
140	260
141	370
142	1301
143	330
144	220
149	1091
150	220
153	220
156	370
157	480
158	651
159	430
168	150
169	260
170	701
171	220
172	480
173	220
184	150
185	220
186	430
196	150
197	220
198	370
199	150
200	330
210	150
211	110
212	220
213	110
224	220
225	370
226	150
227	150
228	1742
229	150
238	370
239	110
240	701
241	801
242	1091
243	370
252	540
253	911
254	1091
255	761
256	3263
257	591
258	150
268	430
269	540
270	2332
271	1742
272	150
281	430
282	260
283	150
284	1461
285	540
286	1852
287	260
297	651
298	370
299	260
300	220
314	9999
315	2542
316	330
329	5005
330	1301
331	220
