Mass Spectrum: 1,3-Dioxolo[4,5-b]acridin-10(5H)-one, 11-hydroxy-4-methoxy-5-methyl-
Formula: C16 H13 N O5
CAS: 517-74-8
Molecular weight: 299
Origin: J.H.BOWIE UNIVERSITY OF ADELAIDE, AUSTRALIA
m/z	RELATIVE INTENSITY
77	1000
115	1200
158	2400
170	700
198	500
226	600
228	800
254	3400
255	800
256	900
284	9999
285	2000
299	5900
300	1300
