Mass Spectrum: 2,6-Dimethyl-1,6-heptadiene
Formula: C9 H16
CAS: 51708-83-9
Molecular weight: 124
Origin: NIST Mass Spectrometry Data Center, 1990.
m/z	RELATIVE INTENSITY
27	1325
28	622
29	1084
32	104
39	3780
40	1046
41	5880
42	474
43	303
50	238
51	504
52	282
53	2185
54	447
55	1262
56	1084
57	107
63	139
65	439
67	8733
68	9999
69	2422
70	160
77	372
78	84
79	587
80	279
81	2614
82	1081
83	109
91	267
93	120
95	926
96	1792
97	146
109	3051
110	258
124	303
