Mass Spectrum: Hexane, 3,3,4,4-tetramethyl-
Formula: C10 H22
CAS: 5171-84-6
Molecular weight: 142
Origin: D.HENNEBERG, MAX-PLANCK INSTITUTE, MULHEIM, WEST GERMANY
m/z	RELATIVE INTENSITY
25	125
26	375
27	1500
28	1750
29	2437
39	937
40	125
41	3000
42	562
43	9999
44	187
53	250
55	1500
56	500
57	750
58	375
67	187
69	375
70	2187
71	8500
72	375
85	500
112	125
113	562
127	125
