Mass Spectrum: 2,5(1H,3H)-Pentalenedione, tetrahydro-, cis-
Formula: C8 H10 O2
CAS: 51716-63-3
Molecular weight: 138
Origin: Japan AIST/NIMC Database- Spectrum MS-NW-6379
m/z	RELATIVE INTENSITY
13	10
14	90
15	199
16	10
18	10
25	10
26	179
27	919
28	479
29	70
30	10
31	50
32	10
33	10
34	30
36	10
37	109
38	319
39	2679
40	809
41	9999
42	1269
43	289
44	99
45	10
48	10
49	40
50	199
51	279
52	159
53	849
54	869
55	999
56	60
57	10
58	10
60	10
61	40
62	60
63	90
64	20
65	189
66	159
67	1219
68	6629
69	4639
70	459
71	30
73	10
74	20
76	10
77	80
78	50
79	129
80	40
81	909
82	389
83	60
84	20
89	10
90	10
91	70
92	40
93	40
94	40
95	829
96	649
97	539
98	40
102	10
105	10
107	10
108	10
109	80
110	659
111	50
119	10
120	40
121	10
123	90
124	10
136	20
137	10
138	6679
139	619
140	70
