Mass Spectrum: 3-Decyn-1-ol
Formula: C10 H18 O
CAS: 51721-39-2
Molecular weight: 154
Origin: LAC, NIDDK, NIH, Bethesda, MD 20892
m/z	RELATIVE INTENSITY
41	4333
42	735
43	1087
44	74
45	1423
47	67
49	93
50	67
51	72
52	340
53	1297
54	612
55	2925
56	306
57	288
60	932
65	877
66	515
67	7762
68	9999
69	2116
70	74
71	261
73	415
77	840
78	66
79	2132
80	620
81	2846
82	6081
83	1045
84	102
85	310
86	67
87	70
91	584
93	1220
94	547
95	1912
96	387
97	148
105	76
107	911
108	74
109	1104
110	150
111	242
121	461
123	75
135	247
136	570
154	139
