Mass Spectrum: trans-4-Methoxy-3-buten-2-one
Formula: C5 H8 O2
CAS: 51731-17-0
Molecular weight: 100
Origin: Chuck Anderson, Aldrich Chemical Co.
m/z	RELATIVE INTENSITY
12	1
13	19
14	165
15	794
16	16
24	4
25	40
26	370
27	1041
28	237
29	1681
30	92
31	802
32	15
33	8
36	15
37	114
38	183
39	449
40	80
41	453
42	1735
43	3549
44	94
45	67
48	3
49	26
50	73
51	41
52	24
53	671
54	198
55	196
56	46
57	243
58	62
59	655
60	16
61	5
66	5
67	7
68	19
69	395
70	57
71	964
72	54
73	4
83	33
85	9999
86	408
87	48
100	1172
101	86
102	6
