Mass Spectrum: Molybdenum, tris(.eta.4-1,3-butadiene)-
Formula: C12 H18 Mo
CAS: 51733-17-6
Molecular weight: 260
Origin: D.HENNEBERG, MAX-PLANCK INSTITUTE, MULHEIM, WEST GERMANY
m/z	RELATIVE INTENSITY
26	465
27	1110
28	694
29	184
30	6
31	2
37	28
38	94
39	1753
40	134
41	655
42	200
43	234
44	7
46	3
48	3
49	40
50	335
51	436
52	252
53	986
54	1603
55	240
56	109
57	39
58	4
62	7
63	31
64	9
65	160
66	120
67	679
68	84
69	23
70	9
71	5
72	20
73	3
74	3
75	8
76	10
77	340
78	211
79	497
80	112
81	66
82	17
83	5
85	11
86	8
87	14
88	19
89	13
90	9
91	532
92	1433
93	355
94	912
95	1517
96	1658
97	948
98	2349
99	39
100	936
101	54
102	28
104	27
105	73
106	131
107	55
108	270
109	94
110	78
111	163
112	166
113	211
114	229
115	152
116	51
117	157
118	1170
119	339
120	932
121	1566
122	1686
123	1290
124	2169
125	652
126	1085
127	608
128	239
129	63
130	360
131	230
132	348
133	555
134	669
135	615
136	809
137	428
138	334
139	141
140	49
141	35
142	119
143	479
144	2272
145	677
146	3137
147	3138
148	3889
149	3627
150	5112
151	1527
152	3271
153	265
154	754
155	85
156	144
157	172
158	292
159	337
160	450
161	476
162	460
163	332
164	218
165	90
166	87
167	50
168	255
169	249
170	1612
171	585
172	2494
173	2103
174	2907
175	2630
176	3807
177	1145
178	2775
179	211
180	754
181	83
182	8
183	47
184	120
185	157
186	191
187	167
188	204
189	88
190	102
191	30
192	150
193	83
194	805
195	358
196	4074
197	1375
198	4799
199	4747
200	9660
201	4865
202	9999
203	5390
204	8627
205	2924
206	6416
207	600
208	2140
209	199
210	85
211	32
212	109
213	94
214	119
215	96
216	156
217	49
218	111
219	9
220	56
221	20
222	19
223	39
225	53
226	415
227	642
228	773
229	453
230	926
231	133
232	366
233	51
234	27
235	30
236	97
237	49
238	236
239	144
240	236
241	281
242	279
243	151
244	324
245	52
246	136
247	44
248	157
249	82
250	443
251	259
252	963
253	575
254	2280
255	1134
256	2168
257	2147
258	2867
259	1292
260	2729
261	367
262	893
263	121
264	15
265	8
266	7
