Mass Spectrum: p-Decyloxybenzylidene p-butylaniline
Formula: C27 H39 N O
CAS: 51749-29-2
Molecular weight: 393
Origin: NIST Mass Spectrometry Data Center, 1994
m/z	RELATIVE INTENSITY
39	500
41	2776
42	241
43	3446
55	1107
56	151
57	1863
65	456
69	241
71	297
77	383
78	154
83	116
89	308
90	763
91	826
93	158
103	195
104	142
105	244
107	173
115	230
117	185
118	143
130	182
152	244
153	159
158	163
160	305
165	207
166	167
167	374
168	478
180	761
181	414
183	229
192	146
193	270
196	525
197	114
208	150
210	9999
211	1712
212	256
222	337
224	162
235	204
236	310
238	298
251	232
252	390
253	3528
254	984
264	344
265	449
266	1778
267	360
278	216
308	253
322	434
336	396
337	146
350	6860
351	1920
352	295
364	249
378	203
393	8429
394	2561
395	406
