Mass Spectrum: 3-Mercaptohexanol
Formula: C6 H14 O S
CAS: 51755-83-0
Molecular weight: 134
Origin: K.-H.Engel ET AL.J.Agric.Food.Chem.,39,2249(1991)
m/z	RELATIVE INTENSITY
34	200
35	591
38	120
39	2342
40	340
41	7957
42	1802
43	2362
44	1501
45	1571
46	170
47	2622
48	60
49	130
50	50
51	130
52	60
53	741
54	761
55	9999
56	1501
57	6085
58	550
59	941
60	520
61	4204
62	230
63	260
65	60
67	2482
68	220
69	1051
70	370
71	1051
72	631
73	1221
74	280
75	120
77	60
79	80
81	310
82	2222
83	1952
84	100
85	90
87	550
88	891
89	581
90	70
91	420
100	2592
101	340
115	10
116	50
134	751
135	50
136	30
