Mass Spectrum: Ethanone, 1-cyclopropyl-, oxime
Formula: C5 H9 N O
CAS: 51761-72-9
Molecular weight: 99
Origin: A.A.Kutin, Moscow, Russia
m/z	RELATIVE INTENSITY
25	120
26	1320
27	3920
28	3220
29	1960
30	1720
31	1580
32	60
33	60
37	820
38	1890
39	9135
40	490
41	9999
42	7500
43	1690
44	420
45	110
49	120
50	480
51	680
52	720
53	1650
54	1300
55	4460
56	1130
57	1500
58	2230
59	230
62	120
63	170
64	170
65	630
66	860
67	3170
68	520
69	120
70	220
73	330
80	970
81	800
82	5250
83	560
84	3700
85	140
98	4590
99	3430
100	210
