Mass Spectrum: 1,3-Dimethyl-2,4,5-trioxoimidazolidine
Formula: C5 H6 N2 O3
CAS: 5176-82-9
Molecular weight: 142
Origin: R.A. CORRAL, DIV. QUIM. ORG., UNIV. NAC. LA PLATA, ARGEN
m/z	RELATIVE INTENSITY
40	200
41	300
42	300
44	200
54	200
55	200
56	6000
57	6000
58	9900
59	300
70	1600
86	600
114	600
142	9999
