Mass Spectrum: 1,3-Benzenedicarboxylic acid, 5-bromo-, dimethyl ester
Formula: C10 H9 Br O4
CAS: 51760-21-5
Molecular weight: 272
Origin: NIST Mass Spectrometry Data Center, 1994
m/z	RELATIVE INTENSITY
4	38
14	369
15	4877
16	63
18	78
26	55
28	578
29	1818
30	617
31	548
32	104
37	418
38	448
39	365
44	62
45	220
49	275
50	875
51	339
52	62
53	470
59	1532
60	56
61	178
62	497
63	1495
64	232
65	82
73	1209
74	6207
75	9999
76	1180
77	836
78	939
79	138
81	89
85	66
86	73
89	320
90	240
91	638
92	434
93	48
101	155
102	633
103	230
104	102
105	672
106	747
107	70
118	47
119	202
120	81
128	56
133	248
134	649
135	81
142	69
143	78
144	121
147	257
153	465
154	596
155	842
156	473
157	367
161	73
162	187
169	65
170	370
171	77
172	365
181	419
182	181
183	471
184	222
185	163
187	69
193	212
197	631
198	1617
199	737
200	1536
201	187
213	2358
215	2246
216	211
227	215
229	234
241	8361
242	1118
243	8205
244	809
245	89
259	75
272	3002
273	340
274	3000
275	327
