Mass Spectrum: Eicosane, 2,6,10,14,18-pentamethyl-
Formula: C25 H52
CAS: 51794-16-2
Molecular weight: 352
m/z	RELATIVE INTENSITY
55	1739
56	1811
57	9999
58	507
69	1558
70	1666
71	8079
72	580
83	725
84	725
85	5072
86	435
97	616
98	1268
99	2319
100	290
111	543
112	1522
113	2645
114	254
125	471
126	1449
127	2536
128	290
139	217
140	362
141	1232
142	181
154	362
155	1014
156	217
167	145
168	290
169	869
170	109
182	978
183	1666
184	290
196	833
197	1449
198	254
210	72
211	254
212	72
224	254
225	362
226	72
238	254
239	326
240	72
252	507
253	797
254	145
266	435
267	399
268	145
281	72
282	109
283	36
294	72
295	109
296	36
308	72
309	72
310	36
322	109
323	254
324	72
336	72
337	217
338	72
351	36
352	1159
353	326
354	72
