Mass Spectrum: Citrinin
Formula: C13 H14 O5
CAS: 518-75-2
Molecular weight: 250
Origin: Japan AIST/NIMC Database- Spectrum MS-IW-6622
m/z	RELATIVE INTENSITY
15	30
16	30
26	20
27	469
28	259
29	319
31	10
37	10
38	70
39	859
40	119
41	669
42	80
43	919
45	139
46	30
47	10
49	10
50	189
51	759
52	379
53	669
54	70
55	459
56	60
57	90
58	60
59	90
60	30
61	40
62	119
63	439
64	219
65	879
66	289
67	459
68	90
69	669
70	50
71	90
72	50
73	50
74	159
75	149
76	99
77	1309
78	399
79	799
80	229
81	189
82	60
83	70
84	20
85	30
86	60
87	149
88	129
89	249
90	119
91	1549
92	349
93	459
94	209
95	159
96	20
97	30
98	20
99	10
100	20
101	179
102	419
103	469
104	149
105	569
106	189
107	529
108	239
109	119
110	20
111	20
113	20
114	20
115	529
116	289
117	509
118	579
119	569
120	209
121	669
122	179
123	80
124	20
125	10
127	90
128	129
129	199
130	109
131	369
132	239
133	529
134	359
135	789
136	419
137	90
138	20
139	10
140	10
141	70
142	40
143	119
144	90
145	649
146	929
147	599
148	379
149	989
150	249
151	70
152	20
153	10
155	20
156	30
157	90
158	139
159	509
160	439
161	1299
162	469
163	1389
164	839
165	99
166	10
169	20
170	30
171	169
172	90
173	639
174	169
175	1229
176	899
177	1699
178	459
179	70
185	70
186	239
187	339
188	779
189	1699
190	1879
191	3089
192	399
193	40
194	20
199	109
200	10
201	40
202	10
203	2709
204	4429
205	829
206	8829
207	1269
208	169
209	10
213	30
214	2339
215	499
216	99
217	6609
218	909
219	119
220	30
221	50
222	20
229	10
230	20
231	849
232	4889
233	829
234	109
235	20
250	9999
251	2109
252	299
253	30
