Mass Spectrum: 2H,5H-Pyrano[3,2-c][1]benzopyran-5-one, 3,4-dihydro-2-methoxy-2-methyl-4-phenyl-
Formula: C20 H18 O4
CAS: 518-20-7
Molecular weight: 322
Origin: H. H. Maurer et al., J. Chromatography B, 1998, 714, 181
m/z	RELATIVE INTENSITY
52	232
53	425
55	193
56	193
57	232
59	232
62	309
63	849
64	1042
65	849
66	193
72	8764
73	656
74	232
75	425
76	695
77	927
78	309
79	193
82	232
85	232
87	193
88	232
89	386
90	193
91	927
92	2239
93	734
94	193
95	270
101	347
102	1467
103	656
104	270
105	425
113	232
115	1004
116	347
117	347
119	193
120	1042
121	1969
122	347
125	425
127	309
128	502
129	888
130	270
131	502
138	193
139	232
141	425
142	193
143	232
144	232
145	425
147	1197
148	1737
149	309
151	232
152	347
155	232
161	1004
162	270
163	309
164	154
165	502
166	193
169	232
170	347
171	502
173	347
175	386
176	232
177	193
178	270
187	734
188	232
189	232
190	154
191	154
196	154
199	154
201	154
202	193
203	309
205	232
212	154
213	927
214	154
219	154
221	386
222	154
231	579
245	193
247	347
248	232
249	3899
250	811
251	1042
252	232
263	1274
264	309
265	6988
266	1313
267	154
275	2355
276	656
277	193
289	656
290	1313
291	1544
292	463
307	579
322	9999
323	2587
324	425
