Mass Spectrum: S-Triazolo(1,5-a)pyrimidine, 5-methyl-7-ethylamino-
Formula: C8 H11 N5
CAS: 51806-90-7
Molecular weight: 177
Origin: A. WIERER, SEKT. CHEM., HUMBOLDT UNIV., BERLIN, E. G
m/z	RELATIVE INTENSITY
44	1300
81	200
93	200
95	240
107	700
108	1200
109	2800
122	1900
134	2200
135	1200
149	2000
162	7900
177	9999
