Mass Spectrum: 1,3,5-Trinitro-2-[2-(2,4,6-trinitrophenyl)ethyl]benzene
Formula: C14 H8 N6 O12
CAS: 5180-53-0
Molecular weight: 452
Origin: USAF ACADEMY, COLORADO SPRINGS, COLORADO 80840; J LLOYD PFLUG
m/z	RELATIVE INTENSITY
29	112
30	2605
38	75
39	112
46	569
50	707
51	482
52	212
53	256
54	62
61	181
62	1321
63	1333
64	983
65	432
66	388
67	87
68	131
69	438
74	1590
75	2786
76	3224
77	920
78	538
79	331
80	344
81	144
86	494
87	1233
88	907
89	676
90	745
91	607
92	1220
93	256
94	300
98	219
99	338
100	263
101	281
102	288
103	1402
104	826
105	350
106	406
107	256
108	488
110	175
111	144
112	156
113	281
114	219
115	144
116	369
117	162
118	219
119	832
120	2341
121	507
122	269
123	37
124	231
125	156
126	269
127	156
128	75
130	68
132	112
133	169
134	1014
135	400
136	425
137	457
138	325
139	256
140	125
141	62
147	68
148	1014
149	826
150	751
151	532
152	413
153	119
161	406
162	626
163	845
164	795
165	444
167	319
168	381
169	62
173	119
174	626
175	331
176	219
177	150
178	2104
179	951
180	926
181	144
182	125
188	62
190	94
191	119
192	162
193	482
194	1352
195	263
196	125
198	256
208	2980
209	1051
210	1603
211	175
220	100
221	81
222	81
223	62
224	701
226	9999
227	901
228	200
236	81
237	68
238	75
240	444
241	87
242	438
249	68
250	75
251	62
265	75
266	87
267	156
268	75
295	94
296	106
297	62
313	75
341	131
387	137
417	62
435	106
