Mass Spectrum: Benzeneethanol, 3-chloro-
Formula: C8 H9 Cl O
CAS: 5182-44-5
Molecular weight: 156
Origin: Japan AIST/NIMC Database- Spectrum MS-NW-6441
m/z	RELATIVE INTENSITY
15	20
18	20
26	40
27	149
28	90
29	179
30	20
31	1669
32	10
35	10
36	60
37	90
38	169
39	679
40	70
41	99
42	20
43	129
44	70
45	50
46	20
47	10
49	70
50	429
51	609
52	80
53	40
55	40
56	10
57	20
58	20
59	30
60	30
61	119
62	279
63	869
64	209
65	519
66	40
67	10
68	20
69	20
70	10
72	20
73	259
74	179
75	389
76	99
77	479
78	70
79	30
83	20
84	30
85	90
86	70
87	70
88	30
89	1599
90	719
91	9999
92	789
93	40
97	40
98	20
99	549
100	40
101	259
102	179
103	379
104	60
105	20
106	10
107	10
111	60
112	459
113	80
114	149
115	20
118	10
119	20
120	20
121	30
122	10
123	30
124	20
125	6269
126	4629
127	2429
128	1539
129	119
136	10
137	99
138	389
139	99
140	139
141	20
142	10
154	30
155	50
156	4109
157	399
158	1389
159	139
160	10
