Mass Spectrum: 2-Pentanone, 5-(acetyloxy)-
Formula: C7 H12 O3
CAS: 5185-97-7
Molecular weight: 144
Origin: Japan AIST/NIMC Database- Spectrum MS-IW-2864
m/z	RELATIVE INTENSITY
13	10
14	50
15	449
16	10
26	70
27	339
28	229
29	249
30	10
31	289
37	10
38	40
39	369
40	90
41	719
42	1729
43	9999
44	469
45	549
46	10
50	20
51	20
52	10
53	70
54	50
55	369
56	50
57	219
58	2329
59	269
60	299
61	1639
62	40
63	10
65	10
67	10
68	10
69	339
70	10
71	279
72	299
73	169
74	50
83	439
84	1439
85	299
86	99
87	1669
88	70
89	10
99	159
100	589
101	1289
102	179
103	399
104	10
113	10
116	10
129	20
144	20
