Mass Spectrum: 1H-Pyrrole-2-acetic acid, 1-methyl-, methyl ester
Formula: C8 H11 N O2
CAS: 51856-79-2
Molecular weight: 153
Origin: Japan AIST/NIMC Database- Spectrum MS-NW-5999
m/z	RELATIVE INTENSITY
14	10
15	259
18	10
26	50
27	169
28	90
29	40
30	20
31	20
37	30
38	99
39	389
40	80
41	319
42	589
43	20
44	20
45	50
46	60
47	70
49	10
50	99
51	239
52	249
53	599
54	99
55	40
56	20
59	50
61	20
62	40
63	99
64	40
65	269
66	239
67	289
68	60
69	30
72	10
75	10
76	10
77	80
78	159
79	60
80	50
81	20
82	50
83	10
90	10
91	30
92	209
93	709
94	9999
95	729
96	30
106	20
107	20
108	229
109	50
110	30
111	30
119	30
120	30
121	40
122	90
123	10
124	40
125	10
136	10
137	10
138	80
139	10
152	30
153	2419
154	219
155	20
