Mass Spectrum: O-Ethyl S-methyl methylphosphonothiolate
Formula: C4 H11 O2 P S
CAS: 51865-09-9
Molecular weight: 154
Origin: VERIFINN
m/z	RELATIVE INTENSITY
26	180
27	1081
28	220
29	1161
31	140
35	120
43	210
45	981
46	430
47	2542
48	1061
49	320
61	621
62	170
63	601
64	60
65	901
75	120
76	50
77	280
79	9999
80	1782
81	330
91	200
93	270
94	70
95	691
107	761
108	1511
109	1411
110	2893
111	971
112	140
126	1902
127	90
128	80
139	130
154	1692
155	80
156	80
