Mass Spectrum: Benzene, 2,4-dichloro-1-phenoxy-
Formula: C12 H8 Cl2 O
CAS: 51892-26-3
Molecular weight: 238
m/z	RELATIVE INTENSITY
18	100
27	250
28	470
32	110
37	130
38	290
39	851
40	60
49	90
50	971
51	4324
52	220
53	90
55	50
61	160
62	380
63	1121
64	240
65	410
66	70
68	50
69	330
70	250
72	110
73	530
74	761
75	801
76	310
77	8388
78	601
79	50
83	150
84	300
85	200
86	120
87	350
88	140
89	130
92	60
93	40
94	80
97	200
98	330
99	180
100	270
101	591
102	260
105	80
106	60
107	100
108	40
109	470
110	140
111	210
112	70
113	150
114	120
115	220
119	340
120	210
121	50
126	130
127	60
128	90
133	571
134	50
135	390
136	50
137	120
138	120
139	1401
140	410
141	410
142	100
145	100
147	90
149	310
150	40
151	100
161	280
162	370
163	200
164	230
165	50
166	50
167	951
168	9999
169	1491
170	310
173	150
175	2182
176	330
177	721
178	110
183	50
185	40
202	621
203	5265
204	1621
205	1752
206	490
207	60
209	120
210	641
211	160
212	410
213	60
214	70
238	9999
239	1321
240	6516
241	851
242	1061
243	140
