Mass Spectrum: Etofylline
Formula: C9 H12 N4 O3
CAS: 519-37-9
Molecular weight: 224
Origin: Association of Official Racing Chemists
m/z	RELATIVE INTENSITY
46	86
51	155
52	439
53	826
54	888
55	599
56	538
57	205
58	194
59	74
64	83
65	133
66	635
67	1884
68	1559
69	447
70	421
72	83
73	12
77	96
78	57
79	285
80	377
81	1652
82	608
83	461
92	60
93	200
94	727
95	4915
96	722
97	258
98	85
106	60
107	101
108	540
109	2711
110	365
111	240
112	102
120	109
121	359
122	1636
123	2218
124	727
125	159
133	97
134	71
135	171
136	632
137	556
138	242
139	103
149	103
150	158
151	684
152	151
165	215
166	303
167	76
177	141
178	83
180	9999
181	1156
182	146
193	2075
194	2005
195	244
196	64
206	963
207	86
208	3
224	5589
225	594
226	89
