Mass Spectrum: Matrine
Formula: C15 H24 N2 O
CAS: 519-02-8
Molecular weight: 248
Origin: V.G.Zaikin, TIPS, Russian Acad. Sci.
m/z	RELATIVE INTENSITY
51	300
52	200
53	1101
54	1201
55	4103
56	3703
57	6305
58	500
59	100
60	150
61	150
64	100
65	500
66	300
67	1701
68	1801
69	1101
70	1000
71	1151
72	100
73	150
77	800
78	300
79	1000
80	1301
81	1101
82	1401
83	1201
84	1201
85	900
91	600
92	200
93	550
94	1000
95	1000
96	4704
97	900
98	1201
99	400
104	200
105	300
106	400
107	300
108	800
109	700
110	1301
111	400
112	400
113	100
118	150
119	150
120	700
121	300
122	1401
123	500
124	400
125	200
131	200
132	200
134	800
135	400
136	2402
137	1101
138	2302
139	300
146	150
147	200
148	1401
149	1401
150	4103
151	1000
152	400
153	200
154	100
160	100
161	200
162	500
163	200
164	300
165	200
166	100
174	100
175	100
176	300
177	1301
178	400
179	100
180	200
181	100
188	200
189	200
190	200
191	250
192	300
193	200
204	100
205	600
206	400
207	100
219	350
220	150
233	200
245	150
246	200
247	9999
248	6105
249	891
250	70
