Mass Spectrum: Benzoylecgonine
Formula: C16 H19 N O4
CAS: 519-09-5
Molecular weight: 289
Origin: AAFS Toxicology Section MS DB Committee, U. Alberta, Canada
m/z	RELATIVE INTENSITY
41	300
42	640
43	440
44	1131
45	210
46	50
50	190
51	670
52	80
53	190
54	190
55	860
56	450
57	1060
58	300
59	100
60	430
61	130
63	90
64	90
65	310
66	130
67	1151
68	620
69	640
70	520
71	620
72	320
73	650
74	230
75	150
76	350
77	4063
78	480
79	380
80	430
81	920
82	6135
83	3032
84	530
85	360
86	230
87	200
88	50
89	80
91	710
92	210
93	2001
94	2632
95	700
96	1961
97	1040
98	330
99	190
100	130
101	130
102	50
103	90
104	90
105	3132
106	320
107	200
108	380
109	280
110	230
111	190
112	120
113	120
114	50
115	110
116	60
117	70
118	60
119	240
120	230
121	140
122	1010
123	470
124	9999
125	1000
126	130
127	70
128	60
129	160
130	110
131	60
133	50
134	60
135	110
136	60
137	60
138	270
139	90
140	210
141	190
148	290
150	110
151	60
166	130
167	220
168	2632
169	290
184	210
185	70
193	70
289	470
290	100
