Mass Spectrum: 4-Methoxyamphetamine, N-acetyl
Formula: C12 H17 N O2
CAS: 51920-74-2
Molecular weight: 207
Origin: Drug Lab
m/z	RELATIVE INTENSITY
38	30
39	230
40	40
41	180
42	380
43	1571
44	9999
45	270
50	110
51	360
52	280
53	130
54	20
55	70
56	40
57	80
58	20
60	10
62	40
63	190
64	80
65	290
66	30
67	20
68	10
74	20
75	30
76	50
77	901
78	1051
79	230
80	30
81	10
86	1491
87	80
88	10
89	230
90	140
91	701
92	110
93	40
94	20
102	30
103	130
104	70
105	170
106	150
107	190
108	70
109	10
115	170
116	100
117	430
118	100
119	80
121	3533
122	891
123	70
130	10
131	50
132	70
133	330
134	130
135	30
145	10
147	1051
148	9569
149	1121
150	140
151	10
163	20
164	60
207	50
208	10
