Mass Spectrum: Ethyl 4-iodobenzoate
Formula: C9 H9 I O2
CAS: 51934-41-9
Molecular weight: 276
Origin: Japan AIST/NIMC Database- Spectrum MS-NW-6658
m/z	RELATIVE INTENSITY
14	20
15	50
18	10
25	10
26	80
27	419
28	80
29	719
30	30
32	10
37	99
38	149
39	149
41	10
42	10
43	70
44	20
45	379
49	90
50	2069
51	319
52	20
53	90
61	30
62	40
63	60
64	40
65	659
66	40
72	10
73	159
74	799
75	899
76	3549
77	489
78	40
79	20
89	10
90	10
91	20
92	50
93	109
94	10
101	20
103	319
104	969
105	199
106	20
115	80
116	10
119	10
120	30
121	319
122	30
127	159
128	90
131	90
132	10
139	20
141	10
148	10
149	679
150	70
152	20
153	10
156	10
171	10
173	10
176	10
177	20
178	10
186	20
188	10
191	10
201	10
202	20
203	2109
204	179
217	10
220	20
222	10
223	10
224	10
229	10
230	30
231	9999
232	1209
233	90
234	10
247	10
248	4399
249	389
250	40
251	10
257	10
258	30
259	20
261	80
262	10
274	10
275	90
276	5419
277	559
278	50
