Mass Spectrum: N,N-Diethylamphetamine
Formula: C13 H21 N
CAS: 51930-71-3
Molecular weight: 191
Origin: Finnigan MAT: Toxicological Library (LIBR-TX)
m/z	RELATIVE INTENSITY
56	355
65	851
72	3445
73	273
77	441
89	398
90	287
91	2119
92	323
100	9999
101	477
103	193
115	618
117	607
118	772
119	206
132	119
148	120
191	9
