Mass Spectrum: 2,4-Hexadiene, (E,E)-
Formula: C6 H10
CAS: 5194-51-4
Molecular weight: 82
Origin: NIST Mass Spectrometry Data Center, 1990.
m/z	RELATIVE INTENSITY
15	340
26	494
27	2139
28	352
29	412
37	253
38	672
39	4134
40	800
41	3581
42	565
43	87
49	139
50	868
51	1115
52	488
53	1878
54	1741
55	637
56	112
61	71
62	164
63	313
64	71
65	1618
66	71
67	9999
68	523
74	155
77	615
79	1447
80	201
81	1036
82	4191
83	281
