Mass Spectrum: 2,4-Hexadiene, (E,Z)-
Formula: C6 H10
CAS: 5194-50-3
Molecular weight: 82
Origin: Japan AIST/NIMC Database- Spectrum MS-NW-3426
m/z	RELATIVE INTENSITY
14	10
15	119
25	20
26	219
27	1349
28	119
29	339
36	20
37	159
38	329
39	2909
40	559
41	3519
42	589
43	80
44	20
48	10
49	80
50	489
51	719
52	379
53	1769
54	1699
55	669
56	119
57	10
60	10
61	60
62	90
63	209
64	40
65	949
66	429
67	9999
68	569
69	20
73	30
74	80
75	30
77	409
78	99
79	1039
80	149
81	1279
82	5169
83	319
84	10
