Mass Spectrum: 1,5-Heptadiene-3,4-diol
Formula: C7 H12 O2
CAS: 51945-98-3
Molecular weight: 128
Origin: CARL DJERASSI DEPT OF CHEM STANFORD UNIV STANFORD CALIF 94305
m/z	RELATIVE INTENSITY
38	100
39	1600
40	200
41	2700
42	200
43	3000
44	100
51	100
53	1700
54	100
55	500
57	1600
58	700
59	100
69	300
70	100
71	9999
72	800
