Mass Spectrum: 1H-Isoindole-1,3(2H)-dione, 2-phenyl-
Formula: C14 H9 N O2
CAS: 520-03-6
Molecular weight: 223
Origin: J.L.COTTER MINISTRY OF AVIATION SUPPLY, RAE, FARNBOROUGH, UK
m/z	RELATIVE INTENSITY
38	100
39	200
50	1000
51	400
52	100
62	100
63	200
64	300
65	100
74	200
75	400
76	3500
77	1000
78	100
91	200
92	100
93	100
102	100
103	100
104	1700
119	100
130	100
139	100
140	100
151	100
152	300
153	200
166	100
167	100
177	10
178	90
179	440
180	50
195	100
222	300
223	9999
224	1500
