Mass Spectrum: 1H-Pyrrole, 3-ethyl-2,4,5-trimethyl-
Formula: C9 H15 N
CAS: 520-69-4
Molecular weight: 137
Origin: D. GAMES, M. HEWLINS, A. JACKSON, CHEM DEPT, UNIV COLL, CARDIFF U.K.
m/z	RELATIVE INTENSITY
40	458
42	1232
44	20
53	264
54	152
65	244
77	570
79	529
81	448
106	224
107	794
108	417
120	651
121	896
122	9999
123	936
134	162
136	1222
137	3696
138	346
