Mass Spectrum: 1H-Pyrrolizine-1-methanol, hexahydro-7-hydroxy-, [1S-(1.alpha.,7.alpha.,7a.beta.)]-
Formula: C8 H15 N O2
CAS: 520-62-7
Molecular weight: 157
m/z	RELATIVE INTENSITY
27	522
28	290
29	174
30	319
39	377
40	101
41	710
42	522
43	261
44	145
53	203
54	174
55	609
56	145
57	145
67	145
68	188
69	116
70	130
80	304
81	246
82	9999
83	696
85	130
99	159
100	188
113	2232
114	130
126	188
140	87
157	1000
158	145
