Mass Spectrum: Echimidine
Formula: C20 H31 N O7
CAS: 520-68-3
Molecular weight: 397
Origin: Finnigan MAT: Toxicological Library (LIBR-TX)
m/z	RELATIVE INTENSITY
41	1387
43	2294
53	1126
55	4340
59	1161
67	933
80	1842
83	3678
93	5867
94	4276
95	628
106	646
108	476
118	805
119	2565
120	7491
121	2576
136	5087
137	568
138	541
141	1816
152	213
161	47
162	67
174	94
176	76
191	45
192	203
195	76
202	48
206	32
220	9999
221	2060
222	220
235	41
237	82
238	250
253	8
297	89
298	19
322	6
335	6
338	22
382	22
