Mass Spectrum: 4H-1-Benzopyran-4-one, 5-hydroxy-7-methoxy-2-phenyl-
Formula: C16 H12 O4
CAS: 520-28-5
Molecular weight: 268
Origin: NIST Mass Spectrometry Data Center
m/z	RELATIVE INTENSITY
37	10
38	50
39	160
49	10
50	180
51	430
52	140
53	200
54	60
59	40
62	140
63	280
64	110
65	90
66	110
69	861
70	190
74	130
75	190
76	350
77	801
78	140
79	130
80	50
82	70
87	60
88	20
89	90
90	80
91	150
92	70
95	1271
96	110
98	110
100	40
102	550
103	260
104	40
105	520
106	70
107	80
108	611
109	140
110	671
111	200
112	120
114	90
115	260
118	40
120	1111
123	661
124	100
125	130
126	130
127	290
128	150
129	260
130	30
136	270
137	490
138	1001
139	300
140	130
141	510
142	60
150	50
151	110
152	220
153	540
154	160
155	140
156	20
164	30
165	130
166	520
167	60
168	220
169	150
170	30
179	40
181	100
183	90
184	20
192	30
195	30
198	20
209	30
210	400
211	290
212	60
215	20
223	60
224	70
225	1862
226	290
227	30
237	120
238	971
239	4504
240	911
241	130
243	210
244	30
251	30
266	20
267	1511
268	9999
269	1762
270	230
