Mass Spectrum: 2-Hexanol, (S)-
Formula: C6 H14 O
CAS: 52019-78-0
Molecular weight: 102
Origin: Chuck Anderson, Aldrich Chemical Co.
m/z	RELATIVE INTENSITY
14	13
15	148
16	7
18	9
19	132
26	61
27	720
28	201
29	747
30	24
31	238
32	4
36	4
37	8
38	32
39	425
40	61
41	1394
42	307
43	1231
44	706
45	9999
46	168
47	24
49	1
50	16
51	22
52	7
53	37
54	18
55	210
56	174
57	148
58	31
59	24
63	1
65	1
67	20
68	39
69	892
70	49
71	13
83	24
84	151
85	20
87	182
88	9
101	13
