Mass Spectrum: Benzeneethanol, 3-nitro-
Formula: C8 H9 N O3
CAS: 52022-77-2
Molecular weight: 167
Origin: NIST Mass Spectrometry Data Center
m/z	RELATIVE INTENSITY
15	10
17	10
18	40
19	10
20	10
25	10
26	50
27	260
28	130
29	310
30	320
31	2432
32	30
33	10
37	80
38	270
39	1371
40	210
41	310
42	50
43	160
44	80
45	50
46	80
47	10
49	20
50	771
51	1391
52	320
53	330
54	30
55	100
56	10
57	10
58	10
59	10
60	10
61	130
62	561
63	1782
64	731
65	1762
66	140
67	40
68	20
69	10
73	40
74	340
75	310
76	300
77	2963
78	751
79	370
80	50
81	30
82	10
83	10
84	10
85	40
86	120
87	120
89	4824
90	9609
91	4614
92	480
93	60
94	70
95	10
98	30
99	10
100	10
101	70
102	330
103	591
104	130
105	80
106	190
107	530
108	60
109	10
116	10
117	20
118	50
120	9999
121	1041
122	110
123	10
124	20
128	10
132	10
133	20
134	20
136	1521
137	8378
138	711
139	60
148	10
149	180
150	4564
151	510
152	40
153	10
165	50
167	1341
168	120
169	10
