Mass Spectrum: Benzoic acid, 2-amino-5-chloro-, methyl ester
Formula: C8 H8 Cl N O2
CAS: 5202-89-1
Molecular weight: 185
Origin: T.A.BLAZER DU PONT, GIBBSTOWN, N.J., USA
m/z	RELATIVE INTENSITY
12	98
13	59
14	111
15	1454
16	86
19	5
20	13
24	4
25	22
26	84
27	172
28	326
29	487
30	223
31	155
33	10
35	41
36	137
37	282
38	494
39	544
40	109
41	357
42	87
43	137
44	166
45	131
46	17
47	29
48	16
49	122
50	193
51	236
52	900
53	233
54	52
55	103
56	77
57	53
63	1916
64	568
65	446
66	106
67	46
68	52
69	94
70	61
71	32
72	80
73	429
74	188
75	256
76	86
77	263
78	152
79	75
80	19
81	15
82	22
83	47
84	60
85	32
86	61
87	64
88	193
89	367
90	1140
91	721
92	173
93	76
94	60
95	64
96	39
97	122
98	366
99	1691
100	273
101	548
102	66
103	48
104	60
105	50
106	49
107	66
108	23
109	21
110	84
111	36
112	49
113	45
114	58
115	32
116	44
117	43
118	93
119	92
120	53
121	19
122	45
123	46
124	259
125	538
126	4293
127	756
128	1480
129	209
130	30
131	22
132	5
133	6
134	12
135	113
136	20
137	9
138	21
139	38
140	46
141	36
142	116
143	24
144	38
145	3
146	2
147	34
148	34
149	16
150	74
151	47
152	86
153	9999
154	4358
155	3543
156	1394
157	117
158	8
163	1
166	8
167	6
168	12
169	29
170	19
171	12
172	4
180	2
182	4
183	6
184	61
185	5945
186	621
187	1926
188	189
189	53
190	3
