Mass Spectrum: p-Butoxybenzonitrile
Formula: C11 H13 N O
CAS: 5203-14-5
Molecular weight: 175
Origin: NIST Mass Spectrometry Data Center, 1994
m/z	RELATIVE INTENSITY
13	12
14	39
15	307
18	17
26	419
27	2708
28	835
29	5566
30	134
32	5
37	429
38	455
39	2285
40	5
41	4960
42	242
43	70
44	7
49	46
50	463
51	643
52	236
53	235
54	60
55	453
56	1916
57	2310
58	99
61	79
62	289
63	979
64	1245
65	267
66	35
67	13
68	21
73	18
74	94
75	690
76	485
77	138
78	27
79	22
80	22
86	12
87	34
88	67
89	12
90	1017
91	880
92	173
93	39
99	38
100	24
102	1102
103	137
104	178
105	21
116	73
117	63
119	9999
120	3487
121	269
122	12
128	16
132	232
133	28
144	6
145	16
146	24
175	1651
176	214
177	14
