Mass Spectrum: 4'-(2-Bromoethyl)benzoic acid
Formula: C9 H9 Br O2
CAS: 52062-92-7
Molecular weight: 228
Origin: Japan AIST/NIMC Database- Spectrum MS-IW-5153
m/z	RELATIVE INTENSITY
14	50
16	30
26	30
27	249
28	30
29	50
37	50
38	129
39	489
40	80
41	70
42	10
43	40
44	80
45	149
46	20
49	50
50	609
51	1169
52	379
53	139
54	10
55	40
56	10
57	80
58	10
59	10
60	50
61	50
62	139
63	399
64	90
65	449
66	109
67	60
68	10
69	10
70	10
71	50
73	50
74	299
75	299
76	379
77	2129
78	1659
79	839
80	90
81	30
82	50
83	10
84	20
85	60
86	20
87	30
88	10
89	359
90	259
91	619
92	229
93	30
94	20
95	20
97	10
98	99
99	10
100	10
101	90
102	309
103	1409
104	849
105	1499
106	139
107	1779
108	149
109	10
115	70
116	119
117	219
118	80
119	70
120	60
121	20
122	30
128	20
129	139
130	199
131	1239
132	209
133	50
134	10
135	9999
136	899
137	80
143	60
144	10
147	20
148	719
149	5049
150	499
151	50
154	10
157	10
158	99
159	10
165	20
176	299
177	40
183	80
184	80
185	90
186	30
195	30
197	30
211	109
212	10
213	99
214	10
228	2389
229	239
230	2299
231	239
232	20
