Mass Spectrum: Hex-2-yn-4-one, 2-methyl-
Formula: C7 H10 O
CAS: 52066-33-8
Molecular weight: 110
Origin: A.Pleshkova, Nesmeyanov Inst.Org.Elem.Cpds, Moscow
m/z	RELATIVE INTENSITY
27	701
28	300
37	200
38	300
39	1501
40	300
41	1101
42	200
43	701
44	20
66	200
67	9999
68	500
69	20
82	601
83	50
95	601
96	50
110	200
111	10
