Mass Spectrum: 11-Tricosene
Formula: C23 H46
CAS: 52078-56-5
Molecular weight: 322
m/z	RELATIVE INTENSITY
41	7667
43	9999
55	7417
56	3533
57	6756
58	390
69	4834
70	2762
71	2963
72	180
77	150
78	50
79	340
83	5085
84	1802
85	1742
86	120
91	100
92	20
97	3813
98	1121
103	10
104	10
105	40
106	10
111	1752
112	711
117	10
118	10
119	20
120	10
121	20
122	10
123	100
124	170
125	771
126	450
131	10
132	10
133	10
134	10
135	10
136	10
137	50
138	130
139	300
140	310
145	10
146	10
147	10
148	10
149	10
150	10
151	20
152	90
153	180
154	220
159	10
160	10
161	10
162	10
163	10
164	10
165	20
166	70
167	120
168	160
173	10
174	10
175	10
176	10
177	10
178	10
179	10
180	50
181	80
182	120
183	150
187	10
188	10
189	10
190	10
191	10
192	10
193	10
194	40
195	50
196	90
205	10
206	10
207	10
208	30
209	40
210	60
215	10
216	10
217	10
218	10
219	10
220	10
221	10
222	20
223	30
224	40
229	10
230	10
231	10
232	10
233	10
234	10
235	10
236	20
237	20
238	30
243	10
244	10
245	10
246	10
247	10
248	10
249	10
250	10
251	10
252	20
257	10
258	10
259	10
260	10
261	10
262	10
263	10
264	10
265	10
266	20
277	10
278	10
279	10
280	10
291	10
292	10
293	10
294	60
305	10
306	10
307	10
308	10
319	10
320	10
321	10
322	280
