Mass Spectrum: m-Mentha-4,8-diene, (1S,3S)-(+)-
Formula: C10 H16
CAS: 5208-51-5
Molecular weight: 136
Origin: G.VON BUNAU MAX-PLANCK-INST., MULHEIM-RHUR, GERMANY, FRG
m/z	RELATIVE INTENSITY
15	442
27	1966
29	1351
37	172
38	344
39	3563
41	3268
43	2260
45	663
46	418
47	565
50	541
51	1351
52	639
53	1769
54	344
55	2285
56	147
58	246
59	147
61	246
62	344
63	786
64	344
65	1695
66	663
67	1966
68	1155
69	369
74	197
75	958
76	270
77	3170
78	835
79	9312
80	1499
81	1695
82	491
89	565
90	639
91	8821
92	5749
93	9999
94	2654
95	1425
96	467
103	246
105	1450
106	442
107	5946
108	1130
109	147
117	270
119	762
120	246
121	8034
122	1646
123	172
134	221
135	246
136	9902
137	1155
