Mass Spectrum: Butanoic acid, 2-hydroxy-, ethyl ester
Formula: C6 H12 O3
CAS: 52089-54-0
Molecular weight: 132
Origin: Japan AIST/NIMC Database- Spectrum MS-NW-3080
m/z	RELATIVE INTENSITY
14	20
15	99
17	10
18	50
19	289
26	119
27	759
28	279
29	1529
30	109
31	2849
32	30
38	20
39	169
40	30
41	1159
42	109
43	459
44	50
45	399
46	40
47	179
55	99
56	20
57	459
58	319
59	9999
60	349
61	20
68	10
69	50
70	40
71	20
73	30
74	20
75	489
76	139
85	20
86	20
87	10
89	239
90	10
101	10
103	159
104	30
115	10
116	10
117	20
