Mass Spectrum: Dromostanolone Propionate
Formula: C23 H36 O3
CAS: 521-12-0
Molecular weight: 360
Origin: Japan AIST/NIMC Database- Spectrum MS-IW-4298
m/z	RELATIVE INTENSITY
26	20
27	159
28	159
29	1399
30	40
31	10
39	109
40	30
41	949
42	80
43	549
44	20
45	50
51	20
52	10
53	269
54	70
55	1359
56	179
57	5009
58	179
59	20
65	129
66	50
67	1069
68	339
69	819
70	60
71	209
72	30
73	70
74	109
75	10
77	429
78	90
79	1169
80	289
81	1569
82	259
83	319
84	60
85	109
86	30
87	40
89	10
91	949
92	199
93	1599
94	4659
95	2379
96	329
97	299
98	60
99	50
100	30
101	20
102	10
103	50
104	50
105	1009
106	369
107	1819
108	809
109	979
110	179
111	309
112	40
113	60
114	30
115	80
116	30
117	199
118	189
119	829
120	439
121	1249
122	489
123	899
124	359
125	329
126	40
127	20
128	40
129	99
130	50
131	409
132	179
133	899
134	419
135	969
136	1139
137	689
138	3189
139	439
140	30
141	30
142	30
143	139
144	299
145	549
146	459
147	1409
148	2089
149	5469
150	869
151	789
152	129
153	30
154	10
155	40
156	20
157	219
158	249
159	549
160	279
161	1479
162	749
163	599
164	119
165	99
166	20
167	30
168	10
169	40
170	20
171	249
172	129
173	469
174	249
175	669
176	309
177	959
178	249
179	179
180	30
181	10
183	70
184	20
185	229
186	99
187	429
188	189
189	339
190	229
191	159
192	139
193	139
194	20
195	10
196	10
197	129
198	60
199	379
200	519
201	1089
202	619
203	289
204	159
205	119
206	30
207	20
209	10
211	90
212	40
213	349
214	459
215	639
216	189
217	299
218	219
219	90
220	20
221	10
222	10
223	30
224	10
225	109
226	30
227	179
228	50
229	399
230	249
231	389
232	119
233	50
234	10
235	10
239	30
240	20
241	40
242	40
243	519
244	499
245	1509
246	339
247	329
248	90
249	30
250	10
251	30
252	10
253	369
254	70
255	50
257	159
258	859
259	199
260	359
261	289
262	70
263	10
264	20
265	20
266	20
267	179
268	209
269	179
270	109
271	5179
272	1109
273	149
274	199
275	129
276	129
277	20
278	10
280	10
282	30
284	60
285	509
286	9999
287	2489
288	379
289	169
290	30
291	10
302	40
303	139
304	149
305	40
316	10
317	50
318	10
327	10
331	60
332	10
342	20
343	10
345	119
346	30
358	10
359	10
360	2079
361	569
362	90
363	10
