Mass Spectrum: Resorcinol, 2-p-mentha-1,8-dien-3-yl-5-pentyl-, (-)-(E)-
Formula: C21 H30 O2
CAS: 521-37-9
Molecular weight: 314
Origin: Drug Lab
m/z	RELATIVE INTENSITY
40	50
41	530
42	40
43	571
44	10
51	50
52	20
53	230
54	20
55	320
56	20
57	40
63	30
64	10
65	160
66	50
67	370
68	220
69	210
70	10
71	50
75	10
76	20
77	380
78	100
79	300
80	60
81	140
82	20
83	30
89	40
90	20
91	571
92	100
93	190
94	50
95	90
96	10
97	10
101	20
102	40
103	140
104	40
105	290
106	70
107	410
108	350
109	130
110	10
111	10
114	10
115	330
116	90
117	140
118	40
119	240
120	330
121	871
122	110
123	160
124	60
126	10
127	120
128	330
129	180
130	40
131	210
132	60
133	140
134	130
135	80
136	90
137	140
138	30
139	30
140	10
141	140
142	60
143	70
144	80
145	170
146	80
147	390
148	90
149	90
150	60
151	30
152	170
153	80
154	30
155	50
156	10
157	120
158	70
159	290
160	180
161	260
162	50
163	40
164	30
165	120
166	60
167	30
168	20
169	40
170	20
171	90
172	80
173	250
174	1221
175	651
176	90
177	30
178	40
179	30
180	50
181	60
182	40
183	40
184	20
185	60
186	40
187	340
188	110
189	180
190	170
191	50
192	10
193	761
194	130
195	140
196	30
197	40
198	20
199	60
200	30
201	120
202	40
203	50
204	20
205	10
206	90
207	250
208	120
209	30
210	10
211	20
212	10
213	50
214	30
215	60
216	10
217	70
218	30
219	50
220	20
221	20
225	10
227	10
228	10
229	380
231	9999
232	1692
233	230
234	20
241	10
243	90
244	30
245	70
246	1071
247	180
248	20
255	10
257	60
258	100
259	70
260	10
269	10
270	10
271	150
272	50
273	10
283	10
285	20
286	40
297	20
299	190
300	40
314	480
315	100
316	10
