Mass Spectrum: Cannabinol
Formula: C21 H26 O2
CAS: 521-35-7
Molecular weight: 310
Origin: NIST Mass Spectrometry Data Center
m/z	RELATIVE INTENSITY
27	90
28	20
29	220
39	80
40	10
41	240
42	20
43	250
44	10
51	20
52	10
53	50
54	10
55	90
56	30
57	40
63	20
64	10
65	40
66	10
67	40
69	30
71	10
75	10
76	20
77	70
78	20
79	30
81	10
82	20
83	10
84	10
87	10
88	10
89	50
90	10
91	80
92	10
93	10
95	20
96	10
97	20
98	10
99	10
101	20
102	30
103	40
104	40
105	50
106	10
107	10
109	30
110	10
111	40
112	30
113	10
114	10
115	180
116	40
117	50
118	40
119	330
123	10
124	10
125	30
126	80
127	110
128	290
129	150
130	30
131	20
132	10
133	10
134	20
137	10
139	70
140	20
141	170
142	70
143	60
144	20
145	20
146	10
147	10
150	20
151	60
152	300
153	130
154	40
155	90
156	20
157	20
158	10
159	10
161	10
163	30
164	40
165	470
166	170
167	90
168	40
169	40
170	30
171	30
172	20
173	10
176	40
177	40
178	190
179	110
180	40
181	100
182	30
183	30
184	10
185	10
189	80
190	50
191	80
192	50
193	60
194	70
195	170
196	50
197	30
198	10
199	30
200	10
201	10
202	30
203	30
204	10
205	40
206	20
207	50
208	50
209	170
210	40
211	60
212	10
213	10
215	10
216	10
217	10
218	10
219	20
220	10
221	50
222	40
223	430
224	150
225	80
226	10
231	10
233	10
234	10
235	40
236	30
237	100
238	1411
239	340
240	40
241	10
247	10
249	20
250	20
251	410
252	110
253	140
254	50
255	10
263	20
264	10
265	70
266	20
267	60
268	10
277	10
279	10
281	20
293	50
294	80
295	9999
296	2272
297	280
298	20
309	50
310	1111
311	260
312	30
