Mass Spectrum: 2,3-Dicyano-5-phenylpyrazine
Formula: C12 H6 N4
CAS: 52109-66-7
Molecular weight: 206
Origin: G. HOLZMANN, INST. ORG. CHEM., BERLIN, W. GE
m/z	RELATIVE INTENSITY
63	1180
64	270
76	1780
77	9280
78	5100
102	1180
103	9950
104	970
127	820
128	280
129	410
130	100
153	610
154	3520
155	380
179	6510
180	1080
205	1010
206	9999
207	2120
