Mass Spectrum: 2,3-Dicyano-5-methyl-6-phenylpyrazine
Formula: C13 H8 N4
CAS: 52109-67-8
Molecular weight: 220
Origin: G. HOLZMANN, INST. ORG. CHEM., BERLIN, W. GERMANY
m/z	RELATIVE INTENSITY
41	310
51	720
63	410
76	2740
77	1330
103	7810
104	820
117	1810
179	410
218	420
219	9999
220	6310
