Mass Spectrum: 2-Methoxyphenylacetone
Formula: C10 H12 O2
CAS: 5211-62-1
Molecular weight: 164
Origin: NIST Mass Spectrometry Data Center
m/z	RELATIVE INTENSITY
15	230
26	30
27	130
29	50
37	30
38	120
39	691
40	40
41	150
42	100
43	2893
44	70
45	20
49	20
50	430
51	1091
52	671
53	200
54	20
55	40
61	50
62	180
63	571
64	150
65	1732
66	120
73	10
74	110
75	80
76	110
77	1201
78	1211
79	260
80	10
85	10
86	30
87	30
88	10
89	500
90	200
91	9999
92	861
93	1051
94	80
102	30
103	120
104	20
105	210
106	70
107	380
108	20
115	30
118	20
119	50
121	8858
122	1722
123	130
131	60
132	20
133	40
135	10
148	10
164	3873
165	430
166	30
