Mass Spectrum: 7,8-Dioxabicyclo[4.2.2]dec-9-ene
Formula: C8 H12 O2
CAS: 52148-56-8
Molecular weight: 140
Origin: ASES Database, Dalian Institute, P.R. China
m/z	RELATIVE INTENSITY
26	700
27	6595
28	5024
29	7486
39	4684
40	400
41	9999
42	990
43	790
53	980
54	790
55	8998
56	1191
57	1491
66	400
67	2482
68	1000
69	790
70	800
77	490
79	2582
80	1991
81	2812
82	300
83	1791
84	490
93	1101
94	300
95	400
96	490
97	300
108	390
140	500
