Mass Spectrum: DL-Valine, N-acetyl-, methyl ester
Formula: C8 H15 N O3
CAS: 52152-47-3
Molecular weight: 173
m/z	RELATIVE INTENSITY
15	551
18	102
26	265
27	714
28	163
29	204
32	326
39	163
41	347
42	184
43	2857
44	143
54	82
55	1122
56	653
57	612
59	265
60	1204
65	41
69	61
70	449
71	449
72	9999
73	592
74	265
82	163
83	286
84	82
85	41
86	82
88	4571
89	775
98	143
99	2388
100	122
102	143
103	20
113	41
114	8775
115	612
116	163
126	163
128	20
130	245
131	612
142	143
173	102
174	143
