Mass Spectrum: Benzeneacetic acid, .alpha.-hydroxy-.alpha.-phenyl-, ethyl ester
Formula: C16 H16 O3
CAS: 52182-15-7
Molecular weight: 256
Origin: Japan AIST/NIMC Database- Spectrum MS-NW-6397
m/z	RELATIVE INTENSITY
14	20
15	70
16	20
18	20
26	70
27	339
28	419
29	679
30	20
31	109
32	20
36	20
38	30
39	139
40	10
41	10
42	10
43	60
44	169
45	60
46	10
49	10
50	169
51	729
52	90
53	30
55	20
56	10
57	10
60	10
61	10
62	50
63	119
64	40
65	40
66	10
69	30
70	10
73	10
74	70
75	80
76	189
77	4079
78	359
79	30
81	20
82	70
83	20
84	10
86	30
87	50
88	30
89	50
90	10
91	40
98	10
99	10
100	10
101	20
102	30
103	20
104	50
105	9999
106	819
107	60
110	10
113	30
114	20
115	99
116	10
121	10
122	10
126	40
127	40
128	40
129	10
133	40
137	10
138	10
139	109
140	10
141	10
150	20
151	60
152	259
153	139
154	50
155	40
158	10
159	10
162	10
163	99
164	99
165	789
166	299
167	209
168	50
178	20
179	10
180	10
181	249
182	329
183	8829
184	1309
185	119
186	10
193	10
194	99
195	20
209	30
210	20
211	4899
212	849
213	90
239	50
240	20
256	10
