Mass Spectrum: 2,3'-Bipyridine, 1'-acetyl-1',3,4,4',5,5',6,6'-octahydro-
Formula: C12 H18 N2 O
CAS: 52195-93-4
Molecular weight: 206
Origin: CARL DJERASSI DEPT OF CHEM STANFORD UNIV STANFORD CALIF 94305
m/z	RELATIVE INTENSITY
41	800
43	2500
44	500
53	500
55	600
80	600
82	600
106	500
107	700
108	1700
109	500
120	500
122	1700
134	500
135	800
136	600
147	500
149	1000
163	9999
164	2000
177	400
178	200
191	500
192	300
205	1400
206	6900
207	1200
