Mass Spectrum: 2,4,5-Triethoxybenzophenone
Formula: C19 H22 O4
CAS: 52199-46-9
Molecular weight: 314
Origin: NIST Mass Spectrometry Data Center
m/z	RELATIVE INTENSITY
17	20
18	90
27	1451
29	4024
30	70
38	60
39	380
42	50
43	270
50	350
51	1461
52	260
53	1311
54	110
55	460
62	110
63	200
64	80
65	140
66	110
67	140
69	3373
70	150
71	60
73	50
75	140
77	5005
78	530
79	390
80	80
81	60
82	160
89	120
91	380
92	90
93	50
95	971
96	190
97	110
101	120
102	300
103	390
105	3723
106	330
107	360
108	160
109	50
111	40
113	70
114	140
115	651
116	150
117	170
120	50
121	150
123	1241
124	220
125	170
126	160
127	631
128	500
129	190
131	841
132	140
133	130
134	90
135	160
136	120
137	240
138	80
139	360
141	80
143	90
144	100
145	130
151	1641
152	661
153	1021
154	120
155	781
156	150
157	410
159	721
160	130
161	80
163	80
164	50
165	200
167	180
168	60
169	60
171	110
172	50
173	220
179	350
180	390
181	1281
182	190
183	1421
184	300
185	170
187	260
188	50
193	70
195	80
197	110
199	100
200	100
201	180
207	80
209	2132
211	3443
212	651
213	230
214	70
215	120
223	220
224	50
225	120
226	40
227	60
229	8338
230	1361
231	140
237	561
238	90
239	530
240	230
241	260
243	100
255	100
257	1631
258	561
259	100
267	120
268	170
269	440
270	110
271	220
285	1101
286	500
287	60
297	2422
298	500
299	450
300	100
314	9999
315	2282
316	320
