Mass Spectrum: 1-Piperidinecarboxaldehyde, 2-(3,4-dihydro-2H-pyrrol-5-yl)-
Formula: C10 H16 N2 O
CAS: 52196-11-9
Molecular weight: 180
Origin: CARL DJERASSI DEPT OF CHEM STANFORD UNIV STANFORD CALIF 94305
m/z	RELATIVE INTENSITY
41	1300
65	600
66	700
80	300
81	600
82	300
83	600
84	700
96	7200
97	400
109	9999
110	900
113	400
135	400
151	800
163	100
180	200
