Mass Spectrum: Ethopropazine
Formula: C19 H24 N2 S
CAS: 522-00-9
Molecular weight: 312
Origin: AAFS Toxicology Section MS DB Committee, U. Alberta, Canada
m/z	RELATIVE INTENSITY
42	240
43	40
44	500
45	40
50	20
51	40
54	30
55	20
56	300
57	70
58	40
63	50
64	10
65	60
68	30
69	120
70	270
71	90
72	550
73	30
74	20
75	40
76	40
77	110
78	30
82	50
83	10
84	90
85	20
86	30
88	10
89	40
91	20
93	10
95	30
96	10
98	80
100	9999
101	700
102	40
103	20
105	10
106	20
108	70
109	80
112	10
113	20
114	40
115	50
116	10
119	10
121	20
122	10
126	30
127	100
128	60
129	10
133	30
135	10
136	10
138	20
139	140
140	90
145	20
146	20
150	20
151	80
152	230
153	110
154	190
155	20
157	10
159	10
164	30
165	10
166	110
167	110
168	10
169	20
171	90
172	30
173	10
177	20
178	100
179	170
180	680
181	100
182	10
183	40
184	80
185	20
196	60
197	130
198	710
199	200
200	50
201	10
204	20
205	10
206	10
208	20
209	60
211	20
212	190
213	270
214	40
223	60
224	40
225	20
238	20
239	50
240	30
312	500
313	130
314	30
