Mass Spectrum: Furo[2,3-b]quinoline, 4,6,8-trimethoxy-
Formula: C14 H13 N O4
CAS: 522-19-0
Molecular weight: 259
m/z	RELATIVE INTENSITY
50	491
51	566
52	377
53	679
61	302
62	792
63	1019
64	491
65	340
66	755
69	906
74	528
75	906
76	679
77	906
78	340
79	264
87	453
88	679
89	377
90	302
91	264
93	717
99	302
100	604
101	453
102	755
103	264
104	377
106	302
107	226
113	226
114	566
115	755
116	453
117	302
120	377
122	264
127	377
128	528
129	302
130	943
131	226
140	189
142	377
143	981
144	302
145	302
147	264
156	566
157	377
158	717
160	377
170	226
171	453
172	453
173	1509
174	226
184	226
185	340
186	1358
187	340
188	377
198	340
199	1773
200	604
201	1132
202	226
212	302
213	2113
214	755
215	1132
227	528
228	2490
229	4566
230	566
242	377
243	679
244	2226
245	377
258	5207
259	9999
260	1321
261	226
