Mass Spectrum: Cinchonan-9-ol, 10,11-dihydro-6'-methoxy-, (8.alpha.,9R)-
Formula: C20 H26 N2 O2
CAS: 522-66-7
Molecular weight: 326
Origin: Drug Lab
m/z	RELATIVE INTENSITY
42	1221
43	571
44	430
50	50
51	110
52	60
53	450
54	320
55	3183
56	1301
57	410
58	80
62	90
63	180
64	90
65	150
66	70
67	771
68	530
69	561
70	681
71	70
72	80
74	60
75	100
76	100
77	520
78	90
79	280
80	320
81	350
82	3313
83	791
84	711
85	130
87	80
88	210
89	410
90	300
91	160
92	60
93	150
94	260
95	671
96	540
97	260
98	130
100	80
101	380
102	240
103	210
104	50
106	70
107	60
108	450
109	310
110	5325
111	1141
112	280
113	120
114	130
115	530
116	911
117	1151
118	170
120	50
122	270
123	460
124	691
125	220
126	1692
127	300
128	340
129	280
130	300
131	130
132	60
133	60
135	90
136	561
138	9999
139	2793
140	2272
141	300
142	240
143	350
144	280
145	601
146	270
151	80
152	751
153	130
154	621
155	290
156	180
157	180
158	2192
159	2793
160	7757
161	1061
162	90
163	80
166	510
167	320
168	631
169	330
170	550
171	230
172	2142
173	2863
174	1601
175	260
176	210
179	60
180	70
181	90
182	280
183	260
184	540
185	340
186	2232
187	1051
188	1531
189	7827
190	971
191	110
192	50
194	50
196	250
197	200
198	480
199	410
200	771
201	2032
202	1621
203	270
204	70
207	60
208	60
209	50
210	140
211	220
212	370
213	320
214	1061
215	340
216	230
217	150
220	80
224	90
225	110
226	330
227	270
228	180
229	210
230	50
236	80
237	70
238	80
239	100
240	340
241	180
242	280
243	150
250	50
251	260
252	110
253	170
254	250
255	300
256	60
257	260
264	50
265	130
266	80
267	550
268	470
269	1601
270	480
271	170
277	50
278	50
279	190
280	70
281	170
282	120
283	180
284	90
285	100
293	70
294	60
295	200
297	2692
298	641
299	90
307	140
308	140
309	791
310	240
311	3323
312	761
313	80
316	70
325	941
326	9138
327	2222
328	260
