Mass Spectrum: Dodecahydro-1H,6H,11H-tripyrido[1,2-a:1',2'-c:1'',2''-e][1,3,5]triazine
Formula: C15 H27 N3
CAS: 522-33-8
Molecular weight: 249
Origin: Div. of Experiment Therapeutics WRAIR, WRAMC, Washington DC 20307
m/z	RELATIVE INTENSITY
41	2805
42	1171
43	317
44	234
45	52
47	264
49	143
51	73
53	630
54	1826
55	5609
56	1467
57	120
58	45
60	10
61	22
62	29
63	12
64	11
65	145
67	503
68	677
70	567
71	54
72	41
73	20
74	15
75	8
76	6
77	92
79	132
80	440
82	1903
83	7142
84	9999
85	620
86	431
88	88
91	53
92	31
93	84
94	229
95	67
96	581
97	192
98	105
99	47
100	13
101	16
103	72
105	12
106	96
108	180
109	172
110	449
111	394
112	75
113	18
118	8
120	71
121	68
122	299
123	1227
124	256
125	67
126	32
132	13
133	22
134	84
135	150
136	197
137	426
138	544
139	95
140	28
147	9
148	80
149	157
150	173
151	71
152	26
153	7
154	13
160	6
161	19
162	25
163	94
164	92
165	1390
166	726
167	177
168	22
175	32
177	132
178	71
179	64
180	24
190	22
191	118
192	2903
193	436
194	26
205	28
206	162
207	53
218	6
219	6
220	93
221	30
233	5
234	12
246	10
248	134
249	1207
250	184
251	6
