Mass Spectrum: Pyrimitate
Formula: C11 H20 N3 O3 P S
CAS: 5221-49-8
Molecular weight: 305
Origin: FDA, Los Angeles District Laboratory
m/z	RELATIVE INTENSITY
41	500
42	2400
45	500
47	400
53	200
54	450
55	850
56	400
65	1150
66	350
67	1250
68	450
69	1250
70	400
71	2350
72	400
80	800
81	300
82	300
84	250
96	650
97	1500
124	1900
134	650
135	1400
136	1800
137	250
138	1850
140	600
143	200
152	1850
153	9999
154	2200
155	300
156	300
163	1650
164	750
165	250
167	800
168	750
169	850
180	4100
181	750
184	550
200	500
207	450
216	250
228	250
232	400
260	300
276	450
290	250
305	5099
306	1000
307	400
