Mass Spectrum: 2-Methyl-1-tetradecene
Formula: C15 H30
CAS: 52254-38-3
Molecular weight: 210
Origin: NIST Mass Spectrometry Data Center, 1990.
m/z	RELATIVE INTENSITY
27	1166
28	961
29	2436
32	153
39	1272
41	5738
42	980
43	3076
44	136
53	588
54	572
55	4411
56	9999
57	4984
58	192
65	110
66	102
67	810
68	673
69	4111
70	1861
71	633
79	139
81	286
82	512
83	1481
84	819
85	404
95	140
96	247
97	1141
98	353
99	76
110	150
111	790
112	276
125	273
126	174
139	94
154	262
182	205
195	98
210	488
