Mass Spectrum: Anthracene, 2-ethyl-
Formula: C16 H14
CAS: 52251-71-5
Molecular weight: 206
Origin: NIST Mass Spectrometry Data Center, 1990.
m/z	RELATIVE INTENSITY
27	334
28	85
39	251
50	201
51	229
62	209
63	495
70	253
74	335
75	516
76	689
77	150
83	1513
86	208
87	439
88	818
89	1201
95	945
96	1268
98	197
99	203
100	416
101	788
102	314
103	636
110	92
111	111
113	109
115	246
126	231
127	108
128	85
137	91
139	342
150	499
151	477
152	489
162	128
163	521
164	425
165	1611
166	231
174	199
175	205
176	864
177	285
178	1017
179	257
187	339
188	345
189	3185
190	2069
191	9999
192	1585
193	113
200	243
201	197
202	770
203	511
204	435
205	113
206	8706
207	1437
208	113
