Mass Spectrum: Cobalt,[[2,2'-[thiobis(3,1-propanediylnitrilomethylidyne)]bis[phenolato]](2-)-N,N',O,O']-,(T-4)-
Formula: C20 H22 Co N2 O2 S
CAS: 52279-54-6
Molecular weight: 413
Origin: L.T. TAYLOR, DEP. CHEM., VA. STATE UNIV., BLACKSBURG, VA., USA
m/z	RELATIVE INTENSITY
59	220
165	480
177	350
178	410
179	820
180	300
192	580
193	130
205	240
206	90
207	190
218	730
219	550
220	750
252	1750
253	480
254	20
266	970
279	330
280	120
307	250
379	660
413	9999
