Mass Spectrum: Nickel, [[2,2'-[oxybis(3,1-propanediylnitrilomethylidyne)]bis[phenolato]](2-)-N,N',O,O',O'']-
Formula: C20 H22 N2 Ni O3
CAS: 52279-52-4
Molecular weight: 396
Origin: L.T. TAYLOR, DEP. CHEM., VA. STATE UNIV., BLACKSBURG, VA., USA
m/z	RELATIVE INTENSITY
58	290
164	350
177	700
178	970
179	1090
191	240
192	90
204	220
205	150
217	350
218	160
219	1670
235	1060
236	1440
237	570
249	100
275	210
289	120
290	460
379	50
396	9999
