Mass Spectrum: 3,4-Ethylenedioxybromobenzene
Formula: C8 H7 Br O2
CAS: 52287-51-1
Molecular weight: 214
Origin: NIST Mass Spectrometry Data Center
m/z	RELATIVE INTENSITY
12	20
13	40
14	140
15	270
16	10
17	10
18	10
24	30
25	120
26	861
27	1501
28	901
29	561
30	110
32	10
36	50
37	460
38	480
39	190
41	100
42	120
43	260
44	20
49	701
50	3333
51	5795
52	510
53	591
54	50
55	150
60	70
61	460
62	781
63	1491
64	130
65	120
66	100
67	10
69	10
72	20
73	170
74	701
75	661
76	150
77	571
79	9999
80	611
81	220
82	50
90	20
91	50
92	50
93	20
94	10
104	180
105	40
106	210
107	1091
108	170
109	70
115	10
116	30
117	70
118	40
119	50
120	20
128	30
129	80
130	130
131	170
132	100
133	90
134	40
135	140
136	10
141	30
142	70
143	100
144	50
145	70
153	10
154	30
155	50
156	50
158	3583
159	761
160	3623
161	470
162	30
170	20
171	20
172	20
173	10
185	70
186	290
187	330
188	440
189	270
190	130
199	671
200	80
201	691
202	60
211	10
214	6466
215	751
216	6376
217	520
218	50
