Mass Spectrum: 2-Methyl-5-nitro-2H-indazole
Formula: C8 H7 N3 O2
CAS: 5228-48-8
Molecular weight: 177
Origin: NIST Mass Spectrometry Data Center, 1994
m/z	RELATIVE INTENSITY
15	682
26	72
27	43
28	493
29	43
30	1536
37	450
38	778
39	782
40	198
41	138
42	354
43	6
46	520
49	172
50	1249
51	1730
52	826
53	244
54	120
55	81
61	761
62	1778
63	3195
64	707
65	1419
66	675
67	112
73	224
74	825
75	1108
76	1612
77	2076
78	686
79	202
80	86
85	130
86	334
87	467
88	759
89	497
90	2180
91	385
92	1018
93	150
99	110
100	95
101	131
102	544
103	564
104	1955
105	221
116	2937
117	276
118	246
119	1578
120	152
129	375
130	588
131	2782
132	226
147	4824
148	450
161	200
177	9999
178	991
179	44
