Mass Spectrum: Naphthalene, 1,2,4a,5,8,8a-hexahydro-4,7-dimethyl-1-(1-methylethyl)-, [1S-(1.alpha.,4a.beta.,8a.alpha.)]-
Formula: C15 H24
CAS: 523-47-7
Molecular weight: 204
Origin: NIST Mass Spectrometry Data Center, 1998.
m/z	RELATIVE INTENSITY
15	30
26	10
27	450
29	690
30	20
38	20
39	850
40	120
41	2400
42	160
43	990
44	30
50	70
51	440
52	170
53	920
54	90
55	1710
56	90
57	170
58	70
59	20
62	30
63	240
64	180
65	870
66	170
67	1060
68	70
69	810
70	90
71	180
72	90
73	80
74	30
75	60
76	100
77	1870
78	490
79	1570
80	180
81	1940
82	160
83	220
84	20
85	10
87	170
89	160
90	30
91	4860
92	530
93	1590
94	10
95	2620
96	210
97	60
101	30
102	150
103	620
104	260
105	5319
106	630
107	1900
108	260
109	670
110	60
113	10
114	20
115	1620
116	630
117	1770
118	350
119	3540
120	480
121	1100
122	610
123	140
124	10
126	40
127	330
128	1160
129	1130
130	530
131	1430
132	290
133	4410
134	1020
135	390
136	70
137	10
139	50
140	10
141	340
142	210
143	350
144	210
145	1710
146	390
147	1900
148	770
149	370
150	50
151	20
152	60
153	70
154	30
155	50
156	30
157	70
158	50
159	380
160	430
161	9999
162	1380
163	130
164	10
165	20
171	20
172	10
173	250
174	150
175	1200
176	250
177	30
187	50
189	8949
190	1390
191	100
202	20
204	6719
205	1120
206	80
