Mass Spectrum: Apiol
Formula: C12 H14 O4
CAS: 523-80-8
Molecular weight: 222
Origin: Philip Morris R&D
m/z	RELATIVE INTENSITY
36	10
37	31
38	87
39	587
40	129
41	56
42	7
43	35
46	56
49	14
50	174
51	309
52	215
53	330
54	97
55	129
57	35
59	104
60	7
61	42
62	135
63	274
64	118
65	681
66	389
67	132
68	28
69	198
73	42
74	28
75	52
76	115
77	740
78	400
79	372
80	80
81	184
82	52
83	222
85	10
89	45
90	191
91	605
92	167
93	420
94	142
95	139
96	63
101	87
102	17
103	226
104	56
105	198
106	497
107	208
108	45
109	97
110	10
111	24
115	17
117	191
118	139
119	226
120	52
121	688
122	69
123	63
131	163
132	45
133	459
134	396
135	181
136	10
137	59
145	139
146	69
147	163
148	31
149	1633
150	236
151	146
159	38
160	3
161	851
162	198
163	295
164	38
165	163
175	177
176	104
177	1810
178	240
179	142
180	240
181	10
191	1219
192	288
193	174
194	10
195	1056
196	104
206	35
207	2616
209	14
221	309
222	9999
223	1299
