Mass Spectrum: Isopsoralen
Formula: C11 H6 O3
CAS: 523-50-2
Molecular weight: 186
Origin: Japan AIST/NIMC Database- Spectrum MS-IW-7257
m/z	RELATIVE INTENSITY
17	30
18	159
26	10
27	10
28	90
29	40
37	40
38	109
39	70
43	10
49	40
50	309
51	869
52	129
53	60
55	10
61	50
62	119
63	239
64	50
65	179
66	60
73	20
74	269
75	449
76	519
77	50
78	10
79	499
80	10
85	20
86	40
87	50
88	10
89	10
92	10
93	469
97	10
98	60
99	30
100	40
101	259
102	1209
103	109
104	40
113	10
129	329
130	909
131	80
132	10
141	10
157	80
158	5019
159	559
160	50
185	30
186	9999
187	1219
188	129
