Mass Spectrum: 2-Methyl-3-(methylthio)-1-propene
Formula: C5 H10 S
CAS: 52326-10-0
Molecular weight: 102
Origin: J. MADSEN,DEP. ORG. CHEM.,TECH. UNIV. DENMARK,LYNGBY,DENMARK
m/z	RELATIVE INTENSITY
26	130
27	1730
28	155
29	2140
32	210
38	180
39	2750
40	470
41	1170
43	110
45	2380
46	720
47	1360
48	230
49	150
50	260
51	350
52	140
53	2100
54	2050
55	5380
56	2110
57	210
58	150
59	670
60	90
61	2170
62	260
63	110
67	150
69	90
71	220
74	90
85	300
86	110
87	4470
88	230
89	200
101	130
102	9999
103	610
104	450
