Mass Spectrum: Carboxin
Formula: C12 H13 N O2 S
CAS: 5234-68-4
Molecular weight: 235
Origin: ACCUSTANDARD Chemicals / NIST MS Data Center.
m/z	RELATIVE INTENSITY
14	32
15	246
17	3
18	17
25	10
26	105
27	330
28	392
29	54
30	10
31	16
32	60
33	8
34	8
35	10
37	52
38	192
39	818
40	101
41	121
42	8
43	4808
44	159
45	641
46	63
47	53
50	128
51	534
52	127
53	75
54	31
55	47
56	7
57	34
58	229
59	344
60	57
61	59
62	55
63	214
64	287
65	711
66	209
67	109
68	26
69	98
70	59
71	200
72	166
73	58
74	53
75	39
76	26
77	893
78	100
79	17
80	9
81	18
82	16
83	36
84	10
85	42
87	4584
88	408
89	255
90	59
91	178
92	368
93	327
94	38
95	6
96	9
97	14
99	12
100	37
101	38
102	24
103	163
104	144
105	26
106	44
108	12
109	55
110	11
115	1036
116	81
117	73
118	42
119	103
120	100
121	54
122	9
123	15
125	8
128	22
129	9
130	35
132	485
133	65
134	15
135	29
136	132
137	19
138	9
140	10
143	9999
144	732
145	497
146	45
147	22
148	15
149	11
150	20
157	13
158	10
159	10
160	10
162	25
163	19
164	98
165	30
166	6
173	4
175	34
176	5
178	12
190	14
191	11
192	5
206	27
208	7
218	92
219	16
220	8
235	4414
236	627
237	242
238	31
