Mass Spectrum: Copper,[[2,2'-thiobis(3,1-propanediylnitrilomethylidyne)]bis[phenolato]](2-)-N,N',O,O']-,(SP-4-2)-
Formula: C20 H22 Cu N2 O2 S
CAS: 52358-04-0
Molecular weight: 417
Origin: L.T. TAYLOR, DEP. CHEM., VA. STATE UNIV., BLACKSBURG, VA., USA
m/z	RELATIVE INTENSITY
63	530
169	380
181	240
182	650
183	640
184	460
196	1030
197	100
209	410
210	1000
211	110
222	1050
223	380
224	400
256	640
257	780
258	7320
284	1100
285	50
298	470
311	760
362	100
417	9999
418	2350
419	5173
420	1170
421	320
