Mass Spectrum: Nickel,[[2,2'-[1,7-heptanediylbis(nitrilomethylidyne)]bis[phenolato]](2-)-N,N',O,O']-
Formula: C21 H24 N2 Ni O2
CAS: 52358-03-9
Molecular weight: 394
Origin: L.T. TAYLOR, DEP. CHEM., VA. STATE UNIV., BLACKSBURG, VA., USA
m/z	RELATIVE INTENSITY
58	370
164	430
177	520
178	720
179	1700
191	690
205	240
219	660
232	430
233	400
245	370
246	330
247	210
260	470
261	160
273	1740
274	350
275	20
288	500
394	9999
