Mass Spectrum: Methyl .alpha.,.beta.-isopropylidene-D-glycerate
Formula: C7 H12 O4
CAS: 52373-72-5
Molecular weight: 160
Origin: NIST Mass Spectrometry Data Center
m/z	RELATIVE INTENSITY
14	20
15	190
26	40
27	250
28	40
29	390
30	60
31	210
33	60
37	10
38	40
39	550
40	130
41	971
42	911
43	8988
44	300
45	180
53	30
54	60
55	581
56	40
57	120
58	130
59	1952
60	100
61	801
62	20
63	10
69	110
70	40
71	450
72	470
73	2412
74	120
75	160
76	10
83	500
84	30
85	200
86	100
87	20
89	30
90	120
91	10
98	10
99	30
101	5135
102	320
103	290
104	10
113	10
115	30
117	891
118	50
119	10
130	50
131	10
141	10
145	9999
146	751
147	110
148	10
161	20
