Mass Spectrum: 11-Octadecenoic acid, methyl ester
Formula: C19 H36 O2
CAS: 52380-33-3
Molecular weight: 296
Origin: R.T.HOLMAN,UNIVERSITY OF MINNESOTA
m/z	RELATIVE INTENSITY
26	150
27	1600
28	800
29	3300
30	100
31	180
32	90
33	40
35	40
36	60
37	50
38	70
39	1700
40	370
41	8600
42	1800
43	5900
44	280
45	320
46	20
47	30
48	20
49	20
50	60
51	130
52	100
53	1000
54	2200
55	9999
56	2100
57	1900
58	130
59	2200
60	110
61	50
62	30
63	50
64	20
65	260
66	200
67	2800
68	1300
69	5300
70	1200
71	660
72	90
73	490
74	4000
75	530
76	50
77	260
78	90
79	590
80	280
81	1800
82	1000
83	1900
84	1700
85	490
86	50
87	2400
88	240
89	40
90	10
91	180
92	50
93	270
94	220
95	1300
96	1700
97	2000
98	1200
99	210
100	70
101	440
102	70
103	50
104	20
105	90
106	50
107	170
108	140
109	660
110	830
111	900
112	310
113	170
114	200
115	390
116	90
117	40
118	20
119	120
120	60
121	210
122	90
123	530
124	410
125	460
126	100
127	140
128	210
129	300
130	80
131	30
132	10
133	120
134	80
135	170
136	60
137	310
138	320
139	310
140	60
141	300
142	140
143	220
144	40
145	20
146	10
147	110
148	70
149	120
150	60
151	210
152	240
153	180
154	40
155	70
156	20
157	70
158	20
159	10
161	60
162	30
163	70
164	50
165	140
166	180
167	110
168	30
169	90
170	20
171	80
172	20
173	10
175	60
176	20
177	40
178	20
179	90
180	350
181	120
182	300
183	60
184	20
185	60
186	20
187	20
188	10
189	40
190	20
191	30
192	20
193	70
194	90
195	50
196	20
197	20
198	10
199	50
200	30
201	10
203	30
204	10
205	10
206	10
207	60
208	60
209	30
210	20
211	20
212	10
213	40
214	20
217	20
218	30
219	20
220	130
221	100
222	440
223	110
224	20
225	20
227	30
228	20
229	10
235	80
236	90
237	30
239	20
240	10
241	20
246	120
247	40
248	10
249	20
250	10
253	40
254	10
255	20
264	1000
265	580
266	110
267	50
268	10
269	10
270	10
278	20
279	10
294	20
296	224
297	60
298	30
299	10
