Mass Spectrum: 1,2-Naphthalenedione
Formula: C10 H6 O2
CAS: 524-42-5
Molecular weight: 158
Origin: NIST Mass Spectrometry Data Center, 1998.
m/z	RELATIVE INTENSITY
25	10
26	70
27	50
29	10
36	10
37	180
38	250
39	350
40	10
41	10
48	20
49	280
50	2060
51	1660
52	450
53	140
54	10
60	40
61	310
62	520
63	910
64	70
65	100
72	20
73	250
74	1570
75	1520
76	2550
77	200
79	10
84	30
85	80
86	120
87	230
96	10
97	50
98	270
99	80
100	40
101	740
102	9169
103	840
104	510
105	40
109	20
110	20
111	10
128	10
129	510
130	9999
131	980
158	330
159	40
