Mass Spectrum: Mebhydrolin
Formula: C19 H20 N2
CAS: 524-81-2
Molecular weight: 276
Origin: Tox21 Consortium/NIST Mass Spectrometry Data Center, 2012
m/z	RELATIVE INTENSITY
15	30
27	70
30	20
39	400
40	50
41	170
42	1071
43	100
44	70
50	70
51	310
52	100
56	30
61	30
62	40
63	380
64	100
65	1481
66	100
74	70
75	330
76	210
77	370
78	130
80	20
82	20
84	20
86	20
87	60
88	80
89	651
90	210
91	9999
92	791
93	50
94	20
95	30
98	40
99	20
100	20
101	430
102	440
103	170
104	100
105	30
106	20
107	10
108	40
113	110
114	270
115	2362
116	1131
117	310
118	80
124	10
125	10
126	100
127	320
128	591
129	290
130	380
131	50
132	10
135	20
139	70
140	841
141	300
142	1211
143	1001
144	561
145	80
146	20
150	10
151	50
152	110
153	60
154	370
155	150
156	480
157	110
158	30
164	40
165	80
166	40
167	130
168	410
169	520
170	150
171	40
175	20
176	40
177	30
178	60
179	40
180	30
181	100
182	390
183	1301
184	1031
185	821
186	120
187	20
188	20
189	60
190	40
191	80
192	40
193	20
194	20
195	20
196	20
197	30
200	10
201	30
202	90
203	40
204	120
205	20
206	90
208	20
214	20
215	40
216	110
217	671
218	1661
219	330
220	70
222	10
227	10
228	70
229	60
230	480
231	270
232	7577
233	8828
234	1611
235	160
236	10
241	10
242	10
243	20
244	20
246	30
247	140
248	50
255	10
259	10
261	20
262	10
273	130
274	40
275	3423
276	3683
277	741
278	100
279	10
