Mass Spectrum: 2-Butyl-5-methylthiazole
Formula: C8 H13 N S
CAS: 52414-85-4
Molecular weight: 155
Origin: R. TABACCHI, INST. CHIM., UNIV. NEUCHATEL, BASEL, SWITZ.
m/z	RELATIVE INTENSITY
27	1420
28	1260
29	790
39	2880
41	1730
43	470
45	1520
54	680
58	470
59	1000
60	260
68	370
69	260
70	210
71	4710
72	4720
73	1990
85	680
98	370
99	210
100	260
112	4970
113	9999
114	1830
115	1150
126	5230
127	1470
128	370
140	1310
154	470
155	1100
156	260
157	170
