Mass Spectrum: 1H-Pyrrole-3-carboxylic acid, 2,4-dimethyl-, methyl ester
Formula: C8 H11 N O2
CAS: 52459-90-2
Molecular weight: 153
Origin: D. GAMES, M. HEWLINS, A. JACKSON, CHEM DEPT, UNIV COLL, CARDIFF, U.K.
m/z	RELATIVE INTENSITY
40	1005
42	673
43	62
46	92
47	316
50	123
51	283
52	623
53	1451
54	170
55	58
59	98
61	699
62	75
63	234
64	150
65	1273
66	1119
67	1113
68	96
77	60
78	107
79	58
80	126
81	244
82	682
83	46
92	391
93	4050
94	1894
95	68
108	200
110	53
120	1808
121	5340
122	9999
123	837
124	60
136	334
138	3125
139	269
152	523
153	9566
154	895
155	73
