Mass Spectrum: Flunarizine
Formula: C26 H26 F2 N2
CAS: 52468-60-7
Molecular weight: 404
Origin: AAFS Toxicology Section MS DB Committee, U. Alberta, Canada
m/z	RELATIVE INTENSITY
38	10
39	250
40	20
41	230
42	670
43	80
44	70
50	30
51	120
52	30
53	10
54	130
55	320
56	520
57	270
58	40
59	10
62	20
63	90
64	20
65	180
66	10
67	20
68	100
69	60
70	70
71	30
72	10
74	10
75	60
76	30
77	130
78	70
79	10
80	20
81	60
82	90
83	250
84	40
85	40
86	10
87	10
88	10
89	110
91	1451
92	110
93	10
94	30
95	90
96	80
97	220
98	10
99	10
100	10
101	20
102	70
103	70
104	80
105	20
106	10
107	80
108	40
109	430
110	210
111	10
113	10
115	2542
116	660
117	7246
118	740
119	30
120	20
121	20
122	70
123	40
124	10
128	30
129	70
130	70
131	80
132	30
133	60
134	20
135	20
136	30
137	10
143	50
144	130
145	30
146	110
147	10
150	20
151	50
152	10
156	20
157	60
158	120
159	50
160	40
161	10
163	40
164	40
170	120
171	20
172	70
173	10
174	260
175	60
176	10
177	30
178	10
181	100
183	1741
184	260
185	20
186	10
187	50
188	120
189	10
199	60
201	9999
202	1671
203	2692
204	370
205	20
229	10
230	120
231	30
232	10
242	30
243	10
244	100
245	10
285	10
287	1341
288	260
289	20
309	10
313	10
403	10
404	50
405	10
