Mass Spectrum: Pinazepam
Formula: C18 H13 Cl N2 O
CAS: 52463-83-9
Molecular weight: 308
Origin: E. GRASSI, ZAMBELETTI RES. LABS., MILAN, ITA y
m/z	RELATIVE INTENSITY
63	680
65	1000
75	1000
76	670
77	1570
89	1120
90	400
91	3700
92	350
100	350
102	680
103	400
111	450
115	560
116	560
149	400
151	900
152	680
159	620
163	1070
164	450
165	900
166	400
176	500
177	1000
178	850
179	450
205	1400
206	560
213	560
214	450
215	350
216	900
217	1690
218	400
239	1120
240	500
241	1850
242	560
243	840
244	500
245	790
251	450
252	500
268	1460
269	950
270	730
272	360
273	450
279	2600
280	9999
281	4170
282	3700
283	1010
307	8150
308	9700
309	4660
310	3480
311	730
