Mass Spectrum: 3-Cyclohexene-1-carboxaldehyde, 3-(4-methyl-3-pentenyl)-
Formula: C13 H20 O
CAS: 52475-89-5
Molecular weight: 192
Origin: W.Jennings, T.Shibamoto
m/z	RELATIVE INTENSITY
24	210
29	70
41	3153
42	70
43	270
53	70
55	380
57	70
67	561
68	180
69	9999
70	771
77	190
79	681
80	70
81	561
82	70
85	70
91	370
92	180
93	1882
94	270
95	751
96	70
104	180
105	450
106	70
107	350
108	70
109	70
110	70
119	70
121	270
122	180
123	70
131	70
135	190
136	70
148	70
149	450
161	70
163	1281
164	70
177	70
192	380
