Mass Spectrum: Propranolol
Formula: C16 H21 N O2
CAS: 525-66-6
Molecular weight: 259
Origin: R RYHAGE MS-LAB KAROLINSKA INSTITUTET STOCKHOLM SWEDEN
m/z	RELATIVE INTENSITY
29	104
30	3668
31	132
32	86
33	3
34	3
36	166
38	95
39	120
41	344
42	196
43	559
44	83
45	21
46	28
47	9
49	12
50	28
51	49
52	34
53	6
54	40
55	31
56	485
57	246
58	172
59	34
60	138
61	12
62	31
63	104
64	21
65	68
66	12
67	3
68	9
69	71
70	150
71	221
72	9999
73	577
74	114
75	61
76	40
77	49
78	12
79	3
80	12
81	40
82	21
84	55
85	37
86	98
87	25
88	25
89	68
90	31
91	25
93	6
94	9
95	6
96	6
97	9
98	74
99	18
100	273
101	89
102	249
103	31
105	15
106	3
107	9
108	9
109	6
110	3
111	40
112	25
113	55
114	160
115	783
116	552
117	37
118	9
119	6
120	15
121	34
122	181
123	15
125	15
126	92
127	414
128	218
129	104
130	15
131	15
132	3
133	6
135	28
137	9
140	12
141	31
142	6
143	129
144	727
145	107
146	9
148	3
149	28
150	3
152	6
153	25
154	3
155	31
156	37
157	114
158	34
159	6
161	3
163	3
164	3
165	12
166	3
167	9
168	9
169	34
170	37
171	21
172	6
173	9
174	3
176	3
178	6
181	3
182	3
183	92
184	9
185	3
186	110
187	6
188	3
191	9
192	6
193	15
194	9
195	6
197	9
198	9
199	6
200	12
203	3
204	6
205	3
206	9
208	3
209	3
210	6
212	3
213	9
214	9
215	335
216	74
217	6
218	3
220	3
221	6
222	6
225	12
226	6
227	12
230	3
232	6
236	6
238	3
239	3
240	3
241	9
242	12
243	92
244	181
245	37
246	6
248	6
249	3
251	3
253	9
255	6
256	15
257	21
258	331
259	381
260	86
261	12
