Mass Spectrum: Flavone
Formula: C15 H10 O2
CAS: 525-82-6
Molecular weight: 222
Origin: Japan AIST/NIMC Database- Spectrum MS-NW- 493
m/z	RELATIVE INTENSITY
18	80
27	90
28	10
37	60
38	269
39	419
43	30
50	589
51	669
52	239
53	139
55	40
61	50
62	229
63	1209
64	1369
65	139
66	30
69	139
70	99
71	30
73	40
74	339
75	379
76	669
77	459
78	60
81	119
82	799
83	129
84	50
86	60
87	80
88	50
89	129
90	60
91	99
92	3659
93	269
96	40
97	1579
98	80
99	30
101	129
102	1149
103	99
105	179
111	60
113	30
114	30
115	80
119	90
120	7689
121	629
122	70
126	40
127	30
129	239
130	30
139	189
140	20
151	30
152	50
163	129
164	119
165	799
166	139
181	60
193	30
194	3369
195	559
196	50
205	30
220	50
221	2369
222	9999
223	1759
224	149
