Mass Spectrum: Acetic acid, [(benzoylamino)oxy]-
Formula: C9 H9 N O4
CAS: 5251-93-4
Molecular weight: 195
Origin: J. SHAW, BORRISTON RESEARCH, ROCKVILLE, MD, USA
m/z	RELATIVE INTENSITY
12	190
13	160
14	290
15	160
16	440
17	490
18	1361
19	310
22	10
24	10
25	50
26	350
27	830
28	1221
29	3683
30	1461
31	5375
32	1301
33	30
36	80
37	520
38	940
39	1291
40	170
41	330
42	310
43	270
44	2472
45	1611
46	380
47	150
48	20
49	300
50	2362
51	5015
52	840
53	140
54	30
55	30
56	70
57	30
58	40
59	100
60	200
61	140
62	220
63	630
64	1081
65	470
66	90
67	20
69	10
70	20
71	10
72	20
73	120
74	490
75	480
76	1331
77	8338
78	900
79	70
80	20
81	10
85	10
86	10
87	20
88	30
89	20
90	100
91	1151
92	220
93	50
94	20
95	30
97	10
99	20
100	10
103	1531
105	9999
106	1021
107	70
119	1601
120	500
121	1681
122	240
123	20
129	10
147	10
149	60
150	20
178	30
195	360
196	70
197	10
