Mass Spectrum: Undecanal dimethyl acetal
Formula: C13 H28 O2
CAS: 52517-67-6
Molecular weight: 216
Origin: Insect Chem. Ecol. Lab., USDA, Beltsville, MD 20705
m/z	RELATIVE INTENSITY
41	1328
42	17
43	1516
45	812
47	886
48	15
51	9
52	5
53	101
54	70
55	853
56	143
57	365
58	541
59	160
61	36
63	3
65	17
66	20
67	201
68	83
69	560
71	985
72	69
73	17
74	1544
75	9999
77	9
79	35
81	153
82	89
83	489
84	51
85	95
86	7
87	9
89	87
90	4
91	4
93	8
95	89
96	5
97	452
98	33
99	12
101	24
109	28
110	31
111	108
112	15
114	3
123	5
124	9
127	3
151	4
152	16
156	12
183	5
185	538
186	64
187	4
199	7
216	15
