Mass Spectrum: Ethyl N-(2-methylphenyl)carbamate
Formula: C10 H13 N O2
CAS: 5255-71-0
Molecular weight: 179
Origin: ASES Database, Dalian Institute, P.R. China
m/z	RELATIVE INTENSITY
51	2001
52	880
53	710
65	1101
77	2282
78	1581
79	1211
80	600
90	590
91	780
92	1501
93	590
94	490
104	1771
105	1211
106	8978
107	5785
108	680
120	5795
121	590
132	1681
133	2872
134	1691
151	990
179	9999
180	1211
