Mass Spectrum: Perphenyloctasilsesquioxane
Formula: C48 H40 O12 Si8
CAS: 5256-79-1
Molecular weight: 1032
Origin: Institute of Organic Chemistry, Novosibirsk, USSR 1988
m/z	RELATIVE INTENSITY
76	89
77	469
78	1019
79	119
153	59
154	359
155	19
363	169
364	189
365	209
399	519
400	649
401	209
439	189
440	109
450	119
451	89
478	169
479	89
516	1089
517	219
721	129
722	79
723	149
797	99
799	169
876	319
877	5029
878	3909
879	2619
880	1299
881	599
882	239
955	9999
956	8869
957	6859
958	2309
959	969
960	319
1032	7039
1033	6369
1034	4419
1035	1739
1036	959
