Mass Spectrum: 2H-Thiopyran, tetrahydro-3-methyl-
Formula: C6 H12 S
CAS: 5258-50-4
Molecular weight: 116
m/z	RELATIVE INTENSITY
1	80
2	20
13	10
14	40
15	641
16	20
26	390
27	4184
28	791
29	1561
30	40
32	40
33	50
34	80
35	190
36	10
37	120
38	360
39	5725
40	831
41	8828
42	1922
43	360
44	30
45	4864
46	4244
47	2803
48	270
49	150
50	140
51	330
52	140
53	1201
54	771
55	3173
56	851
57	2312
58	731
59	1932
60	3733
61	4064
62	390
63	240
64	10
65	230
66	190
67	4524
68	1331
69	4664
70	500
71	520
72	170
73	1031
74	1221
75	1081
76	90
77	130
78	20
79	130
80	20
81	601
82	1021
83	200
84	50
85	290
86	60
87	1361
88	420
89	80
90	20
95	10
97	80
98	20
99	140
100	20
101	9999
102	661
103	430
104	20
113	20
114	10
115	320
116	7587
117	611
118	320
119	20
