Mass Spectrum: 5-Ethyl-5-p-tolylbarbituric acid
Formula: C13 H14 N2 O3
CAS: 52584-39-1
Molecular weight: 246
Origin: Japan AIST/NIMC Database- Spectrum MS-NW-6625
m/z	RELATIVE INTENSITY
15	50
16	10
26	60
27	489
28	199
29	319
30	20
31	20
32	10
37	30
38	90
39	759
40	90
41	219
42	30
43	109
44	239
45	20
49	10
50	269
51	749
52	219
53	249
54	50
55	30
56	30
57	639
58	559
59	60
61	30
62	169
63	539
64	519
65	1209
66	99
67	20
68	20
69	40
70	249
71	30
72	359
73	50
74	139
75	199
76	209
77	849
78	299
79	189
80	179
82	30
83	10
85	10
86	80
87	99
88	50
89	369
90	199
91	1929
92	1129
93	99
94	20
97	10
98	30
99	20
100	20
101	80
102	349
103	649
104	339
105	379
106	119
107	70
108	119
109	20
110	10
111	10
112	30
113	30
114	40
115	1349
116	779
117	2609
118	1519
119	1089
120	139
121	30
123	10
124	10
125	10
126	20
127	129
128	309
129	499
130	319
131	899
132	1319
133	209
134	20
140	20
141	40
142	70
143	30
144	60
145	80
146	1429
147	599
148	60
149	30
153	10
154	30
155	50
156	80
157	419
158	339
159	159
160	1479
161	209
162	20
170	60
171	30
172	50
173	70
174	779
175	1669
176	289
177	30
178	10
184	10
185	40
186	289
187	50
188	579
189	209
190	169
191	30
193	30
194	20
195	10
197	10
198	10
199	119
200	119
201	249
202	60
203	519
204	80
205	10
208	10
210	10
211	10
212	10
213	10
214	20
215	30
216	20
217	2369
218	9999
219	1279
220	139
221	10
228	10
229	289
230	50
231	329
232	50
233	10
244	20
245	80
246	5989
247	929
248	109
249	10
