Mass Spectrum: 1,5-Cyclooctadiene, (E,Z)-
Formula: C8 H12
CAS: 5259-71-2
Molecular weight: 108
m/z	RELATIVE INTENSITY
39	5005
40	500
41	2002
50	701
51	1201
52	601
53	1501
54	9999
55	601
65	801
66	1702
67	5305
68	300
77	1501
78	701
79	4004
80	3904
81	300
91	901
92	100
93	1802
94	100
108	1201
109	200
