Mass Spectrum: Sulfaphenazole
Formula: C15 H14 N4 O2 S
CAS: 526-08-9
Molecular weight: 314
Origin: Finnigan MAT: Toxicological Library (LIBR-TX)
m/z	RELATIVE INTENSITY
51	1223
52	2196
53	916
65	3261
66	672
77	5346
78	517
91	400
92	5635
93	1300
104	600
108	4931
109	406
130	779
131	2057
132	305
140	2940
141	314
145	575
149	197
156	9999
157	5061
158	6443
159	1695
249	195
250	1801
251	289
314	4890
315	888
