Mass Spectrum: 1H-Imidazole, 2-[[4-(1,1-dimethylethyl)-2,6-dimethylphenyl]methyl]-4,5-dihydro-
Formula: C16 H24 N2
CAS: 526-36-3
Molecular weight: 244
Origin: NIST Mass Spectrometry Data Center, 1990.
m/z	RELATIVE INTENSITY
14	62
15	178
18	86
27	282
28	484
29	379
30	270
32	50
39	438
40	144
41	1091
42	500
43	247
44	2162
45	84
50	56
51	244
52	122
53	301
54	195
55	361
56	96
57	534
63	195
64	139
65	449
66	84
67	115
68	75
69	135
70	75
71	355
72	89
76	140
77	729
78	383
79	420
80	153
81	826
82	146
83	182
84	316
86	224
89	174
91	1212
92	278
93	516
97	63
99	134
101	798
102	150
103	357
104	166
105	689
106	166
107	283
115	1363
116	491
117	612
118	176
119	709
120	113
121	99
127	445
128	1273
129	1273
130	800
131	629
132	190
133	242
139	97
140	83
141	433
142	408
143	719
144	488
145	1404
146	431
147	122
152	88
153	189
154	176
155	246
156	245
157	233
158	847
159	761
160	303
161	128
167	73
168	102
169	154
170	320
171	842
172	780
173	4023
174	622
175	390
182	95
183	109
184	250
185	434
186	495
187	542
188	1256
189	166
197	161
198	320
199	778
200	560
201	200
202	354
211	213
212	123
213	659
214	994
215	243
225	160
226	65
227	575
228	65
229	9999
230	1707
231	119
241	118
242	258
243	2209
244	7835
245	1337
246	135
