Mass Spectrum: Tryptophol
Formula: C10 H11 N O
CAS: 526-55-6
Molecular weight: 161
Origin: NIST Mass Spectrometry Data Center
m/z	RELATIVE INTENSITY
26	10
27	20
28	40
29	40
30	10
31	120
37	10
38	30
39	100
40	10
41	10
43	10
49	10
50	160
51	350
52	150
53	40
54	10
55	10
57	20
58	30
61	30
62	100
63	250
64	80
65	110
70	30
71	10
73	10
74	130
75	190
76	240
77	1171
78	130
79	20
85	10
86	30
87	40
88	30
89	160
90	90
91	40
92	10
98	20
99	10
100	10
101	130
102	581
103	981
104	130
105	20
113	30
114	30
115	180
116	60
117	180
118	90
119	10
127	20
128	450
129	440
130	9999
131	1091
132	80
133	10
140	20
141	10
142	30
143	70
144	30
159	10
161	2132
162	250
163	20
