Mass Spectrum: 1-Azabicyclo[2.2.2]octane, 2-methyl-
Formula: C8 H15 N
CAS: 5261-65-4
Molecular weight: 125
Origin: J. MITERA
m/z	RELATIVE INTENSITY
26	200
27	1490
28	1490
29	1190
30	500
31	400
38	100
39	1290
40	300
41	2180
42	4160
43	500
44	400
45	200
50	100
51	200
52	200
53	600
54	800
55	2180
56	9999
57	890
58	200
59	200
65	200
66	100
67	400
68	790
69	1490
70	690
71	1090
72	100
74	200
79	100
80	200
81	300
82	1490
83	890
84	1680
93	50
94	150
95	200
96	3170
97	1390
98	200
108	100
110	5150
111	500
124	990
125	3560
126	400
