Mass Spectrum: 4-Hydroxybenzaldoxime, 2TMS derivative
Formula: C13 H23 N O2 Si2
CAS: 52629-38-6
Molecular weight: 281
Origin: O A MAMER, MCGILL UNIVERSITY, MONTRE
m/z	RELATIVE INTENSITY
25	12
26	33
27	65
29	14
30	21
37	13
38	22
39	54
40	3
42	26
43	505
44	141
45	1288
46	96
47	6
48	42
49	40
50	87
51	64
52	16
53	52
54	23
55	58
56	9
57	64
58	99
59	503
60	108
61	317
62	44
63	116
64	70
65	73
66	21
67	26
68	21
69	31
70	58
71	33
72	60
73	4510
74	455
75	9999
76	826
77	478
78	46
79	28
80	19
81	30
82	24
83	73
84	34
85	79
86	27
87	22
88	31
89	309
90	84
91	396
92	57
93	65
94	28
95	69
96	45
97	28
98	20
99	33
100	15
101	15
102	132
103	83
104	55
105	73
106	33
107	64
108	30
109	51
110	28
111	20
112	13
114	13
115	31
116	113
117	57
118	32
119	79
120	121
121	126
122	46
123	59
124	17
125	72
126	43
127	12
129	13
130	18
131	40
132	39
133	145
134	75
135	576
136	92
137	70
138	35
139	17
143	17
145	26
146	76
147	467
148	147
149	198
150	158
151	99
152	22
153	18
158	15
159	15
160	96
161	53
162	99
163	123
164	40
165	95
166	32
167	19
174	26
176	632
177	220
178	84
179	47
180	20
181	33
182	14
183	12
190	41
191	73
192	1212
193	237
194	125
195	50
196	12
206	50
207	17
208	59
209	103
210	23
211	16
215	13
217	15
219	13
220	28
221	19
223	97
224	27
225	23
233	15
234	27
235	23
236	34
237	24
248	16
249	97
250	43
252	126
253	30
254	20
260	13
266	1429
267	426
268	161
269	48
281	2518
282	646
283	298
284	67
285	16
