Mass Spectrum: Heptane, 1-bromo-6-methyl-
Formula: C8 H17 Br
CAS: 52648-04-1
Molecular weight: 192
Origin: NIST Mass Spectrometry Data Center, 1990.
m/z	RELATIVE INTENSITY
15	129
26	232
27	2364
28	656
29	1608
32	29
39	2921
40	812
41	8687
42	3990
43	9999
44	338
50	93
51	236
52	129
53	736
54	93
55	6571
56	1527
57	3143
58	156
65	139
67	489
69	6553
70	869
71	1490
79	133
80	85
81	106
83	97
84	65
93	183
95	182
97	1862
98	153
107	352
109	335
112	96
121	182
123	148
135	1208
137	1294
149	6413
151	6208
152	334
