Mass Spectrum: Benzene, 2-chloro-5-methyl-1,3-dinitro-
Formula: C7 H5 Cl N2 O4
CAS: 5264-65-3
Molecular weight: 216
Origin: NIST Mass Spectrometry Data Center, 1994
m/z	RELATIVE INTENSITY
4	47
14	48
15	55
16	56
18	41
26	92
27	275
28	414
29	41
30	9999
31	103
32	105
35	38
36	83
37	381
38	437
39	1809
40	169
41	100
42	44
43	549
46	692
47	70
49	261
50	791
51	2066
52	358
53	191
54	51
61	769
62	2328
63	5222
64	664
65	928
66	108
67	79
68	57
69	230
72	437
73	1092
74	913
75	810
76	588
77	5569
78	555
79	50
84	701
85	564
86	1221
87	1379
88	664
89	6248
90	652
91	71
92	50
93	1046
94	95
96	182
97	819
98	199
99	412
100	539
101	78
102	187
105	1095
106	87
108	65
109	83
110	50
111	159
112	588
113	150
114	228
115	42
121	1313
122	146
123	837
124	1819
125	490
126	577
127	135
128	384
129	51
130	220
135	1147
136	85
138	43
139	303
140	208
141	161
142	119
154	58
155	448
156	65
157	136
169	90
170	88
171	49
172	41
186	323
187	38
188	131
200	128
202	65
216	6021
217	602
218	1939
219	184
