Mass Spectrum: Permethrine
Formula: C21 H20 Cl2 O3
CAS: 52645-53-1
Molecular weight: 390
Origin: NIST Mass Spectrometry Data Center, 1990.
m/z	RELATIVE INTENSITY
12	3
17	4
18	61
26	23
27	239
29	20
35	7
36	26
37	15
38	80
39	508
40	84
41	375
42	39
43	214
44	25
45	15
47	9
49	30
50	186
51	748
52	135
53	160
54	29
55	233
56	13
59	15
60	10
61	21
62	55
63	294
64	149
65	463
66	66
67	73
68	18
69	25
70	7
71	5
73	155
74	43
75	150
76	162
77	1294
78	304
79	143
80	37
81	32
82	20
83	143
84	22
85	117
86	23
87	132
88	5
89	720
90	448
91	1186
92	167
93	149
94	51
95	28
96	19
97	14
99	87
100	32
101	50
102	39
103	42
104	7
105	37
106	13
107	58
109	201
110	19
111	190
112	48
113	123
114	67
115	575
116	74
117	15
118	7
119	11
120	11
121	75
122	17
123	78
125	100
127	1025
128	470
129	561
130	77
131	39
133	12
134	4
135	13
137	36
139	125
140	53
141	174
142	39
143	23
144	27
145	6
147	13
148	14
149	64
150	24
151	108
152	286
153	629
154	349
155	447
156	70
157	41
158	8
159	6
163	2304
164	321
165	2029
166	215
167	270
168	631
169	151
170	26
171	35
172	14
173	8
174	6
175	6
176	8
177	17
179	15
181	478
183	9999
184	1442
185	135
186	10
187	11
189	7
191	58
192	15
193	31
194	11
195	11
196	6
197	42
198	29
199	26
200	26
201	4
205	6
207	24
208	7
209	9
216	6
217	20
218	102
219	34
220	38
221	12
223	32
224	10
234	6
235	8
240	6
241	7
242	29
243	9
244	8
253	8
254	62
255	276
256	56
257	101
258	16
261	17
262	5
263	5
264	6
265	44
266	14
273	25
274	10
275	13
277	8
279	9
281	7
288	13
289	23
290	85
291	50
292	54
293	28
294	16
295	9
297	4
301	8
303	6
304	4
307	21
308	5
309	10
311	124
312	44
313	47
314	9
318	31
319	55
320	16
331	4
337	8
338	7
339	35
340	9
341	14
345	11
346	5
347	11
354	106
355	74
356	50
357	30
374	5
375	38
376	7
377	28
378	6
379	7
390	205
391	60
392	147
393	36
394	27
395	4
