Mass Spectrum: 1,1'-Biphenyl, 2,2',3,3',4,4',5,6-octachloro-
Formula: C12 H2 Cl8
CAS: 52663-78-2
Molecular weight: 426
Origin: N. Todua, WGM, MMES
m/z	RELATIVE INTENSITY
42	135
43	135
44	260
47	198
48	135
50	135
60	135
61	198
62	135
66	135
71	135
72	198
73	333
74	260
78	135
79	135
82	135
83	333
84	260
85	198
90	395
93	135
94	333
95	333
96	260
97	198
98	135
102	135
106	135
107	395
108	593
109	531
110	198
112	135
113	135
118	135
119	198
120	458
121	198
122	198
125	333
126	395
127	135
130	135
131	198
132	458
133	198
134	135
141	135
142	198
143	853
144	988
145	593
146	458
147	135
148	135
149	135
152	135
154	135
155	135
156	198
157	135
159	135
160	395
161	458
162	333
165	260
166	260
167	260
168	198
178	791
179	1384
180	1249
181	656
182	333
183	135
190	135
191	135
192	198
193	135
194	198
195	458
197	395
198	260
199	135
201	62
202	135
203	135
204	135
205	135
212	135
213	333
214	531
215	656
216	853
217	333
218	395
219	135
220	135
226	135
227	135
228	135
229	135
237	135
238	135
239	198
240	135
241	135
242	135
250	333
251	458
252	395
253	458
254	198
255	198
260	135
262	135
263	135
272	135
273	135
275	135
285	135
286	1446
287	260
288	1977
289	926
291	198
292	260
298	62
311	62
320	198
321	458
322	395
323	728
324	333
325	458
326	198
327	198
328	135
329	135
356	2570
357	531
358	5202
359	4339
361	728
362	1904
363	333
364	593
365	135
366	135
389	62
391	1186
392	333
393	2632
394	531
395	2497
396	458
397	1384
398	260
399	531
400	135
401	198
426	3486
427	593
428	8553
429	1249
430	9999
431	1384
432	6180
433	926
434	2497
435	395
436	656
437	135
438	198
