Mass Spectrum: 1,1'-Biphenyl, 2,2',3,3',4,5'-hexachloro-
Formula: C12 H4 Cl6
CAS: 52663-66-8
Molecular weight: 358
Origin: Organic Synthesis Lab, MSU, Moscow.TRC 1257
m/z	RELATIVE INTENSITY
44	689
47	254
48	89
49	410
50	719
60	307
61	1118
62	534
67	120
71	174
72	610
73	1897
74	1913
75	466
78	483
80	139
83	185
84	1408
85	1127
86	768
87	284
91	971
96	705
97	1010
98	1377
99	424
107	501
108	1471
109	3721
110	2459
111	688
114	269
119	225
120	585
121	644
122	881
123	346
126	2486
127	2175
131	408
132	620
133	693
134	404
135	221
144	4829
145	6407
146	3823
147	1423
148	506
156	373
157	259
158	238
160	130
161	510
162	887
163	726
167	142
168	192
169	286
170	136
179	710
180	1659
181	1307
182	1588
183	938
184	422
185	335
193	149
194	120
204	232
205	178
206	214
216	184
217	538
218	2983
219	641
220	1724
221	291
222	259
230	182
252	781
253	792
254	705
255	637
256	393
257	240
288	5563
289	939
290	7419
291	1130
292	3865
293	404
294	1004
295	134
323	2619
324	571
325	4204
326	702
327	2284
328	307
329	825
331	123
358	5142
360	9999
361	1419
362	8246
363	1118
364	3590
365	383
366	880
367	130
