Mass Spectrum: 1,1'-Biphenyl, 2,2',3,5,5'-pentachloro-
Formula: C12 H5 Cl5
CAS: 52663-61-3
Molecular weight: 324
Origin: Organic Synthesis Lab, MSU, Moscow.TRC 1293
m/z	RELATIVE INTENSITY
51	37
60	75
61	241
62	287
63	45
64	45
66	32
72	82
73	360
74	484
75	166
80	58
84	152
85	274
86	155
87	71
92	415
94	29
95	68
96	126
97	259
98	384
99	188
107	46
108	186
109	810
110	672
111	304
114	61
115	106
116	57
119	41
120	85
121	77
122	268
123	227
127	1129
128	996
129	363
131	35
132	89
133	115
134	105
135	55
144	191
145	259
146	316
147	271
148	264
149	310
150	48
158	108
159	66
160	86
161	53
162	322
163	378
164	273
165	72
167	37
169	49
171	46
172	43
181	80
182	200
183	250
184	1135
185	307
186	444
187	63
194	66
203	25
206	69
208	45
217	58
218	509
219	479
220	353
221	361
222	94
223	43
228	70
230	75
243	24
252	40
254	3599
255	618
256	3083
257	644
258	1225
259	139
260	168
289	1470
290	490
291	2664
292	371
293	1248
294	248
295	308
296	38
297	47
324	5848
325	818
326	9999
327	1175
328	5377
329	705
330	1866
331	222
332	257
