Mass Spectrum: 1,1'-Biphenyl, 2,2',3,3',4,5,5',6,6'-nonachloro-
Formula: C12 H Cl9
CAS: 52663-77-1
Molecular weight: 460
Origin: Organic Synthesis Lab, MSU, Moscow.TRC 1179
m/z	RELATIVE INTENSITY
43	44
44	287
47	119
49	68
56	31
57	45
61	63
62	37
71	61
72	147
73	125
82	34
83	63
84	161
85	138
90	305
91	115
94	52
95	147
96	145
97	97
106	67
107	336
108	385
109	224
110	108
118	90
119	134
120	204
121	110
125	185
126	171
127	75
130	88
131	144
132	268
133	89
134	61
141	55
142	285
143	318
144	421
145	268
146	48
154	65
155	83
156	83
157	47
160	587
161	723
162	587
163	187
165	28
166	120
167	116
168	109
180	328
181	100
182	75
190	79
191	55
192	77
195	611
196	1207
197	1178
198	578
199	199
202	73
203	70
204	54
212	86
213	189
214	247
215	220
216	169
217	51
219	24
226	56
227	37
229	26
230	200
231	396
232	500
233	388
234	200
235	65
236	37
237	68
239	48
249	76
250	455
251	104
252	411
253	68
254	206
256	27
262	51
273	64
274	69
275	60
284	100
285	236
286	160
287	345
288	111
289	187
290	51
298	68
300	37
308	54
310	40
320	1320
321	238
322	2193
323	325
324	1492
325	199
326	518
327	82
328	91
345	32
354	61
355	308
356	182
357	720
358	206
359	492
360	92
361	215
362	43
363	76
390	2229
391	302
392	5051
393	613
394	4864
395	651
396	2623
397	327
398	809
399	112
400	126
401	33
425	774
426	126
427	2193
428	334
429	2309
430	422
431	1492
432	215
433	688
434	64
435	137
437	34
460	2829
461	345
462	8095
463	1031
464	9999
465	1398
466	7626
467	1037
468	3670
469	443
470	1207
471	143
472	247
