Mass Spectrum: 1,1'-Biphenyl, 2,2',3,3',6-pentachloro-
Formula: C12 H5 Cl5
CAS: 52663-60-2
Molecular weight: 324
Origin: Organic Synthesis Lab, MSU, Moscow.TRC 1303
m/z	RELATIVE INTENSITY
51	86
55	61
60	88
61	471
62	288
63	162
64	30
72	199
73	639
74	967
75	428
76	40
79	342
83	84
84	391
85	504
86	323
87	160
88	41
92	784
93	309
94	42
95	56
96	201
97	446
98	811
99	411
100	63
107	119
108	385
109	1831
110	1454
111	471
113	45
114	117
115	125
118	66
120	210
121	285
122	543
123	377
124	144
127	2449
128	2197
129	722
131	115
132	202
133	336
134	135
135	112
136	72
142	26
144	548
145	816
146	519
147	489
148	382
149	519
150	64
156	55
157	160
158	145
159	117
160	102
161	55
162	577
163	722
164	431
165	236
166	55
167	43
168	55
169	104
170	84
171	65
172	69
181	123
182	206
183	460
184	2047
185	504
186	664
187	86
193	97
194	100
195	69
196	90
204	119
205	72
206	70
208	45
217	62
218	571
219	618
220	469
221	346
222	173
224	39
228	145
230	99
254	4484
255	722
256	4658
257	572
258	1494
259	236
260	135
289	2889
290	493
291	3679
292	644
293	1826
294	278
295	434
296	50
324	5723
325	823
326	9999
327	1259
328	4904
329	684
330	1599
331	275
332	265
333	60
