Mass Spectrum: 1,1'-Biphenyl, 2,2',3,3',4,4',6-heptachloro-
Formula: C12 H3 Cl7
CAS: 52663-71-5
Molecular weight: 392
Origin: T.L.Hayes, Battelle Columbus Laboratories, Columbus, OH 43221
m/z	RELATIVE INTENSITY
35	2298
36	6589
37	1367
38	1978
47	861
48	205
49	1015
59	28
60	1106
61	2249
62	824
72	1351
73	4867
74	1622
78	554
79	140
84	3311
85	313
86	1440
87	32
90	3068
91	1084
95	688
96	2127
97	1592
98	2406
102	59
107	1504
108	6368
109	5270
110	2629
111	191
114	299
115	20
118	509
119	459
120	1788
126	7814
127	5270
128	1639
129	24
130	82
131	1122
132	1989
133	1509
134	953
141	103
142	399
143	3460
144	6004
145	4006
146	3283
147	637
148	337
154	303
155	141
156	1202
157	572
158	541
159	97
161	6556
162	9712
163	6225
164	2224
165	340
166	290
168	530
169	447
170	260
171	84
172	33
179	3648
180	402
181	3090
182	2720
183	606
184	646
185	61
190	103
191	124
192	477
193	140
194	244
195	62
196	767
197	1667
198	1559
199	941
200	299
201	74
202	50
203	337
204	138
207	59
208	4
214	66
215	263
216	1254
217	1487
218	1053
219	866
220	230
226	212
227	131
228	280
229	114
230	135
231	41
232	26
237	21
238	306
239	103
240	430
241	105
242	222
243	36
244	51
245	22
249	33
250	85
251	355
252	3940
253	882
254	3736
255	546
256	1244
257	172
258	114
259	11
262	177
263	54
264	177
265	35
266	85
267	9
268	6
269	8
271	5
272	24
274	75
275	18
276	12
277	56
284	9
285	28
286	516
287	875
288	939
289	1156
290	526
291	550
292	189
293	115
294	9
295	10
296	34
297	5
298	58
299	12
300	35
301	10
302	12
305	11
309	16
311	12
312	3
313	19
314	9
319	5
321	7
322	5634
323	853
324	9911
325	1177
326	5893
327	810
328	1962
329	233
330	340
331	50
332	20
340	5
345	8
353	3
356	24
357	1907
358	372
359	3813
360	592
361	2778
362	486
363	1276
364	171
365	306
366	63
367	38
368	8
370	4
371	4
372	7
375	5
376	3
377	9
379	9
382	2
383	3
386	2
387	7
392	4194
393	413
394	9999
395	1123
396	8564
397	1047
398	4988
399	534
400	1482
401	191
402	293
403	42
404	42
405	6
