Mass Spectrum: 1,1'-Biphenyl, 2,3,4',6-tetrachloro-
Formula: C12 H6 Cl4
CAS: 52663-58-8
Molecular weight: 290
Origin: Organic Synthesis Lab, MSU, Moscow.TRC 1318
m/z	RELATIVE INTENSITY
51	136
56	47
61	226
62	153
63	108
72	50
73	200
74	529
75	564
79	81
80	63
84	118
85	133
86	214
87	86
88	36
90	34
92	640
93	266
97	156
98	310
99	204
108	129
110	1122
111	739
112	143
113	56
114	57
115	89
116	35
121	94
122	124
123	267
124	66
125	47
127	385
128	449
129	113
132	65
133	104
135	88
136	54
144	67
145	239
146	349
147	258
148	129
149	467
150	1082
151	99
158	50
159	70
160	72
161	44
170	62
182	53
183	96
184	811
185	409
186	332
187	203
194	115
196	72
198	29
204	54
218	84
220	3247
221	411
222	2428
223	278
224	380
254	235
255	99
256	210
257	117
258	113
290	7751
291	1077
292	9999
293	1251
294	4877
295	562
296	1036
297	128
298	91
