Mass Spectrum: 1,1'-Biphenyl, 2,2',3,3',4,5,5',6'-octachloro-
Formula: C12 H2 Cl8
CAS: 52663-75-9
Molecular weight: 426
Origin: Organic Synthesis Lab, MSU, Moscow.TRC 1188
m/z	RELATIVE INTENSITY
41	20
44	83
47	33
48	13
49	34
50	28
57	31
60	30
61	42
62	27
67	11
71	29
72	64
73	155
74	52
78	43
79	22
83	35
84	95
85	125
86	37
90	117
91	50
94	22
95	73
96	98
97	76
98	33
99	22
106	20
108	246
109	208
110	66
111	12
113	39
114	28
118	51
119	63
120	138
121	91
122	55
123	11
130	30
131	66
132	151
133	75
134	57
137	7
141	25
142	87
143	408
144	541
145	249
146	149
147	37
148	19
149	20
153	11
154	23
155	43
156	100
157	29
158	30
160	115
161	164
165	16
166	57
167	41
168	61
169	35
178	418
179	758
180	678
181	364
182	103
183	33
190	31
191	21
192	42
193	23
194	26
195	20
196	61
197	101
202	20
203	32
204	13
205	30
207	13
213	137
214	336
215	409
216	486
217	168
218	176
219	35
220	20
226	40
228	39
238	34
239	33
240	28
241	22
242	24
250	88
251	184
252	99
253	158
254	44
255	68
256	13
262	36
264	46
265	16
266	10
273	24
274	18
275	14
285	51
286	852
287	166
288	1148
289	187
290	622
291	72
292	141
296	13
298	28
300	19
306	9
311	19
313	16
320	72
321	267
322	168
323	433
324	137
325	287
326	64
327	96
328	22
329	21
334	9
356	1875
357	285
358	3855
359	536
360	3087
361	438
362	1326
363	160
364	343
365	43
366	39
391	86
392	47
393	203
394	68
395	182
396	56
397	116
398	35
399	42
426	3304
427	497
428	8662
429	1138
430	9999
431	1259
432	6278
433	816
434	2465
435	318
436	615
437	86
438	123
439	11
