Mass Spectrum: 1,1'-Biphenyl, 2,2',3,5,5',6-hexachloro-
Formula: C12 H4 Cl6
CAS: 52663-63-5
Molecular weight: 358
Origin: N. Todua, WGM, MMES
m/z	RELATIVE INTENSITY
41	126
44	252
47	189
49	189
50	189
51	189
60	189
61	189
62	189
72	189
73	315
74	315
75	189
79	189
84	189
85	252
86	252
87	126
91	252
92	189
94	126
95	126
96	252
97	252
98	252
99	189
102	126
107	189
108	315
109	494
111	431
112	189
114	126
115	189
118	189
119	189
120	189
121	189
122	252
123	189
126	431
127	368
128	252
131	189
132	252
133	189
134	189
142	126
143	189
144	809
145	1050
146	557
147	315
148	252
149	126
156	189
157	189
158	189
159	189
160	126
161	189
162	189
163	252
164	189
167	189
168	189
169	189
170	189
171	189
179	368
180	494
181	494
182	494
183	431
184	252
185	189
192	189
193	189
194	189
195	189
203	189
204	189
205	189
206	189
214	63
215	126
216	189
217	252
218	998
219	315
220	809
221	252
222	252
227	189
228	189
230	189
238	189
242	126
251	126
252	368
253	431
254	368
255	431
256	252
257	252
258	126
262	189
288	3224
289	683
290	4033
291	746
292	2048
293	431
294	557
295	189
296	189
323	1796
324	431
325	3109
326	557
327	1796
328	315
329	746
330	189
331	252
358	4905
359	746
360	9999
361	1365
362	8192
363	1050
364	3287
365	557
366	935
367	252
368	252
