Mass Spectrum: 1,1'-Biphenyl, 2,2',3,3',5,5',6-heptachloro-
Formula: C12 H3 Cl7
CAS: 52663-67-9
Molecular weight: 392
Origin: Organic Synthesis Lab, MSU, Moscow.TRC 1209
m/z	RELATIVE INTENSITY
44	790
49	162
50	134
61	321
62	192
72	183
73	902
74	379
84	293
85	425
91	373
95	169
96	239
97	387
98	380
108	878
109	672
110	401
119	157
120	346
121	300
122	324
126	1249
127	1565
128	426
131	148
132	830
133	400
134	201
143	828
144	1236
145	749
146	664
147	265
156	255
157	199
161	2036
162	3150
163	2156
164	707
165	262
167	185
178	278
179	300
180	484
181	456
182	702
183	178
192	192
196	573
197	1182
198	1236
199	725
200	279
216	551
217	615
218	396
219	301
220	144
240	187
251	233
252	2283
253	525
254	2308
255	429
256	861
257	116
264	159
266	134
286	272
287	497
288	490
289	738
290	305
291	298
322	4475
323	608
324	6547
325	846
326	4841
327	542
328	1182
329	161
330	184
357	1991
359	4159
360	474
361	3408
362	456
363	1402
364	247
365	305
392	3938
394	9732
395	1324
396	9999
397	1309
398	5906
399	606
400	1849
401	251
402	379
