Mass Spectrum: 1,1'-Biphenyl, 2,3',4,4',5,5'-hexachloro-
Formula: C12 H4 Cl6
CAS: 52663-72-6
Molecular weight: 358
Origin: Organic Synthesis Lab, MSU, Moscow.TRC 1221
m/z	RELATIVE INTENSITY
41	34
44	141
47	54
49	104
50	104
51	31
53	23
56	20
57	47
60	80
61	194
62	122
63	27
66	19
67	33
71	33
72	116
73	346
74	436
75	86
78	48
79	43
80	29
83	46
84	247
85	197
86	205
87	33
91	167
94	19
96	153
97	185
98	295
99	131
106	21
107	98
108	279
109	739
110	480
111	150
114	64
115	48
116	16
118	25
119	58
120	153
121	153
122	222
123	85
126	331
127	461
131	60
132	120
133	166
134	75
135	72
136	18
142	35
143	119
144	896
145	1081
146	741
147	272
148	138
156	56
157	58
158	45
159	28
160	22
161	91
162	154
163	126
164	39
166	26
167	27
168	45
169	90
170	28
171	42
179	175
180	321
181	317
182	387
183	227
184	94
185	63
192	42
193	34
194	42
195	19
196	27
203	27
204	50
205	50
206	76
207	26
208	29
215	24
216	30
217	168
218	868
219	249
220	590
221	91
222	93
228	60
230	35
240	31
242	33
252	263
253	275
254	310
255	283
256	128
257	98
258	26
259	15
288	2341
289	384
290	3162
291	492
292	1534
293	178
294	341
296	40
322	61
323	33
324	117
325	83
326	104
327	41
328	52
358	4825
359	638
360	9999
361	1318
362	7986
363	1119
364	3515
365	414
366	806
367	91
368	96
369	15
