Mass Spectrum: 1,1'-Biphenyl, 2,2',3,3',4,5,5'-heptachloro-
Formula: C12 H3 Cl7
CAS: 52663-74-8
Molecular weight: 392
Origin: Organic Synthesis Lab, MSU, Moscow.TRC 1215
m/z	RELATIVE INTENSITY
44	666
47	363
49	374
50	417
60	373
61	1129
62	488
67	184
71	283
72	743
73	2398
74	1380
75	277
78	412
83	324
84	1402
85	1260
86	864
96	922
97	888
98	1264
99	242
106	216
107	877
108	2779
109	2013
110	1131
111	296
113	190
114	221
115	165
118	419
119	483
120	967
121	828
122	810
123	236
126	3802
127	3771
128	1096
130	158
131	587
132	1335
133	931
134	528
135	223
141	120
142	242
143	2418
144	3160
145	2162
146	1785
147	490
156	502
157	367
158	238
161	4725
162	7834
163	4686
164	1671
165	302
166	203
167	434
168	378
169	374
170	236
179	954
180	1111
181	860
182	1434
183	315
184	393
192	305
193	197
194	223
196	1288
197	2478
198	2052
199	1030
200	462
201	126
203	201
204	206
205	247
207	162
215	210
216	920
217	1226
218	789
219	800
240	191
242	122
251	335
252	4114
253	1056
254	3750
255	573
256	1120
258	143
274	135
286	464
287	797
288	892
289	1081
290	406
291	556
292	240
293	126
322	5874
323	1000
324	9625
325	1342
326	5938
327	812
328	1677
329	193
330	292
357	2069
358	360
359	4204
360	615
361	3629
362	408
363	1327
364	221
365	242
392	4367
393	716
394	9973
395	1357
396	9999
397	1613
398	5874
399	823
400	1708
401	360
402	416
