Mass Spectrum: p-Benzoquinone, 2,3,5,6-tetrafluoro-
Formula: C6 F4 O2
CAS: 527-21-9
Molecular weight: 180
Origin: Japan AIST/NIMC Database- Spectrum MS-NW-3210
m/z	RELATIVE INTENSITY
12	60
16	10
19	10
24	99
28	299
31	2269
32	30
36	179
40	20
43	429
44	99
47	40
48	60
50	20
52	169
55	689
56	20
59	20
60	20
62	3559
63	70
67	80
69	169
71	2369
72	90
74	1579
75	60
79	139
80	10
81	70
85	10
86	219
87	10
90	1969
91	70
93	3109
94	99
95	20
98	99
105	569
106	40
109	10
117	239
118	20
124	7829
125	349
133	179
134	10
136	50
152	269
153	10
161	20
180	9999
181	679
182	90
