Mass Spectrum: 2-Thiophenecarboxylic acid
Formula: C5 H4 O2 S
CAS: 527-72-0
Molecular weight: 128
Origin: NIST Mass Spectrometry Data Center
m/z	RELATIVE INTENSITY
25	10
26	30
27	20
29	30
32	40
36	30
37	250
38	380
39	1982
40	80
41	70
43	10
44	140
45	1321
46	40
47	40
48	40
49	170
50	480
51	100
52	10
53	220
54	20
55	100
56	110
57	1191
58	611
59	70
60	30
61	20
64	10
66	30
67	10
68	50
69	200
70	10
71	100
72	70
73	10
74	10
77	40
80	50
81	460
82	440
83	891
84	130
85	60
99	10
100	200
101	10
109	10
111	9999
112	621
113	490
114	20
128	7186
129	450
130	360
131	20
