Mass Spectrum: Phenol, 3,4,5-trimethyl-
Formula: C9 H12 O
CAS: 527-54-8
Molecular weight: 136
Origin: NIST Mass Spectrometry Data Center, 1994
m/z	RELATIVE INTENSITY
14	40
15	384
16	15
18	22
19	37
26	166
27	1139
28	235
29	437
31	42
36	13
37	95
38	411
39	2369
40	392
41	1100
42	132
43	331
44	29
45	70
50	459
51	1177
52	411
53	812
54	92
55	439
56	21
58	71
59	50
60	52
61	81
62	246
63	612
64	193
65	1131
66	490
67	736
68	129
69	54
73	18
74	101
75	122
76	18
77	1880
78	406
79	790
80	87
81	99
82	20
85	20
86	48
87	45
89	179
91	2692
92	365
93	537
94	163
95	87
98	18
101	19
102	78
103	325
104	65
105	357
106	69
107	315
108	93
109	42
115	242
116	44
117	80
118	52
119	136
120	42
121	9999
122	885
123	52
131	23
133	65
135	2027
136	4534
137	481
138	33
