Mass Spectrum: Benzene, 1,2,3,5-tetramethyl-
Formula: C10 H14
CAS: 527-53-7
Molecular weight: 134
Origin: Japan AIST/NIMC Database- Spectrum MS-NW-3981
m/z	RELATIVE INTENSITY
15	30
26	10
27	239
28	30
29	50
37	10
38	50
39	499
40	60
41	469
42	20
50	109
51	329
52	109
53	239
54	10
55	50
57	60
58	50
59	10
61	20
62	60
63	179
64	119
65	379
66	139
67	60
74	40
75	50
76	30
77	569
78	169
79	269
80	20
86	10
87	20
89	60
90	20
91	1109
92	119
93	129
94	20
101	10
102	60
103	279
104	189
105	319
106	60
107	20
114	10
115	429
116	169
117	559
118	199
119	9999
120	999
121	40
127	20
128	40
129	30
130	10
131	60
132	60
133	1009
134	5709
135	619
136	30
