Mass Spectrum: [1,1'-Biphenyl]-4-carbonitrile, 4'-butoxy-
Formula: C17 H17 N O
CAS: 52709-87-2
Molecular weight: 251
Origin: Japan AIST/NIMC Database- Spectrum MS-NW-4510
m/z	RELATIVE INTENSITY
15	10
16	10
26	40
27	319
28	139
29	1009
30	30
37	10
38	30
39	309
40	20
41	689
42	30
43	20
50	70
51	90
52	30
53	30
55	149
56	40
57	409
58	20
61	20
62	80
63	149
64	40
65	30
68	20
69	10
74	60
75	90
76	70
77	60
78	10
85	10
86	40
87	60
88	60
89	70
90	20
91	10
94	20
98	20
99	30
100	40
101	40
102	40
103	10
104	20
110	10
111	20
112	20
113	109
114	80
115	99
116	50
117	10
118	10
124	10
125	30
126	30
127	90
128	30
129	10
131	10
137	20
138	60
139	269
140	639
141	119
142	20
144	20
149	20
150	70
151	229
152	99
153	50
154	20
155	10
156	10
163	10
164	149
165	60
166	809
167	209
168	50
169	40
170	10
175	10
176	60
177	229
178	209
179	40
180	50
181	10
184	10
190	10
192	30
193	60
194	289
195	9999
196	1519
197	139
198	10
208	80
209	20
221	10
222	10
250	20
251	2479
252	469
253	50
