Mass Spectrum: 1,3-Propane diisothiocyanate
Formula: C5 H6 N2 S2
CAS: 52714-52-0
Molecular weight: 158
Origin: NIST Mass Spectrometry Data Center, 1994
m/z	RELATIVE INTENSITY
4	33
13	27
14	65
15	162
18	23
25	47
26	474
27	1535
28	1209
29	57
30	55
31	23
32	561
33	57
34	41
37	183
38	376
39	2203
40	836
41	6789
42	494
43	41
44	687
45	1538
46	258
47	96
50	28
51	101
52	203
53	29
54	200
55	77
56	86
57	201
58	786
59	986
60	691
61	66
62	45
63	31
64	180
65	24
66	132
67	411
68	99
69	57
70	460
71	24
72	9999
73	662
74	454
75	33
76	42
79	80
82	1716
83	139
84	182
85	133
86	382
88	21
93	27
94	39
98	755
99	1295
100	220
101	81
102	32
113	31
117	51
125	89
126	49
131	253
133	32
141	116
158	5679
159	488
160	555
161	40
