Mass Spectrum: Ethanol, 2-(methylthio)-
Formula: C3 H8 O S
CAS: 5271-38-5
Molecular weight: 92
Origin: Japan AIST/NIMC Database- Spectrum MS-NW-2825
m/z	RELATIVE INTENSITY
13	20
14	90
15	349
16	10
17	10
18	50
19	119
25	10
26	129
27	1499
28	509
29	449
30	30
31	749
32	119
33	40
34	40
35	1479
36	30
37	60
39	40
41	199
42	139
43	809
44	1079
45	1589
46	1259
47	2229
48	899
49	799
50	50
51	30
56	10
57	70
58	219
59	459
60	109
61	9999
62	1139
63	489
64	40
73	60
74	239
75	229
76	70
77	30
79	10
90	40
91	80
92	5119
93	229
94	249
