Mass Spectrum: 1,1'-Biphenyl, 2,2',3,4,5,5'-hexachloro-
Formula: C12 H4 Cl6
CAS: 52712-04-6
Molecular weight: 358
Origin: N. Todua, WGM, MMES
m/z	RELATIVE INTENSITY
41	188
43	188
44	251
45	125
47	251
49	251
50	313
51	251
52	125
56	125
60	251
61	376
62	251
63	188
67	125
68	188
71	188
72	313
73	616
74	564
75	313
78	188
79	188
83	188
84	313
85	376
86	313
87	188
91	313
92	313
93	188
94	188
95	188
96	376
97	376
98	502
99	313
107	251
108	564
109	1118
110	742
111	313
112	188
114	188
115	188
117	188
118	188
119	376
121	313
122	439
123	251
124	188
127	564
128	564
131	251
132	439
133	313
134	251
135	251
136	188
141	188
142	188
144	1306
145	1619
146	993
147	564
148	313
149	188
155	188
156	251
157	251
158	188
159	188
160	188
161	251
162	376
163	313
164	188
165	125
166	188
167	188
168	251
169	188
170	188
171	188
172	188
179	376
180	616
181	564
182	502
183	502
184	251
185	251
190	188
192	188
193	188
194	188
195	188
196	125
203	188
204	188
205	188
206	188
207	188
215	188
216	188
217	376
218	1306
219	376
220	993
221	251
222	251
228	188
230	188
238	188
240	188
241	188
242	188
252	502
253	502
254	439
255	502
256	313
257	251
258	188
262	188
264	188
288	3855
289	679
290	5036
291	742
292	2549
293	439
294	616
295	251
296	188
322	188
323	1619
324	439
325	2549
326	502
327	1494
328	376
329	679
330	188
331	188
358	4911
359	742
360	9999
361	1494
362	8139
363	1181
364	3479
365	564
366	993
367	251
368	251
