Mass Spectrum: 1,1'-Biphenyl, 2,2',3,4,5,5',6-heptachloro-
Formula: C12 H3 Cl7
CAS: 52712-05-7
Molecular weight: 392
Origin: Jan Krupcik, Institute of Analytical Chemistry, Slovak University of Technology, Bratislava, Slovakia
m/z	RELATIVE INTENSITY
151	34
152	78
153	80
154	101
155	161
156	424
157	271
158	273
159	93
161	1195
162	1940
163	1255
164	478
165	125
166	143
167	145
168	252
169	186
170	104
171	110
172	15
173	25
177	156
178	170
179	380
180	420
181	628
182	994
183	281
184	371
185	78
186	37
187	20
188	65
189	30
190	90
191	173
192	145
193	132
194	84
195	61
196	315
197	622
198	562
199	405
200	130
201	40
202	108
203	96
204	209
205	129
206	170
207	643
208	133
209	125
210	20
212	32
213	21
214	66
215	100
216	444
217	567
218	612
219	381
220	277
221	88
222	79
223	31
224	20
226	141
227	48
228	190
229	28
230	146
231	18
232	17
236	36
237	78
238	52
239	134
240	73
241	92
242	45
243	55
249	88
250	105
251	235
252	2551
253	642
254	2784
255	489
256	1002
257	165
258	171
259	58
260	46
261	33
262	54
263	56
264	63
265	55
266	47
268	30
271	33
272	36
273	72
274	102
275	82
276	78
277	52
278	19
281	104
282	19
283	24
284	20
285	51
286	358
287	474
288	715
289	703
290	888
291	488
292	388
293	136
294	115
296	47
297	16
298	57
300	33
302	37
308	23
309	29
313	22
321	45
322	4066
324	6547
325	973
326	4158
327	691
328	1481
329	303
330	277
331	58
332	16
345	30
355	37
356	44
357	1244
358	638
359	2410
360	1064
361	2182
362	845
363	1002
364	516
365	206
366	105
367	59
392	4442
393	517
394	9999
395	1288
396	9621
397	1158
398	5193
399	700
400	1707
401	259
402	340
403	56
404	30
405	30
