Mass Spectrum: Benzene, 1,1',1''-ethylidynetris-
Formula: C20 H18
CAS: 5271-39-6
Molecular weight: 258
m/z	RELATIVE INTENSITY
39	70
50	70
51	260
52	40
63	80
65	60
76	80
77	611
78	160
89	90
91	120
107	70
113	80
114	60
115	220
120	80
126	40
127	50
128	60
129	100
139	120
141	60
150	60
151	70
152	180
153	80
154	60
155	110
164	150
165	3503
166	901
167	120
176	120
177	100
178	320
179	270
180	90
181	1101
182	170
242	100
243	9999
244	2102
245	210
257	30
258	651
259	160
260	20
