Mass Spectrum: Hydrazine, 1,1-dimethyl-2-propyl-
Formula: C5 H14 N2
CAS: 52728-54-8
Molecular weight: 102
Origin: ATLAS OF MASS SPECTRA OF ORGANIC COMPOUNDS, V. A. KOPTYUG, ED.
m/z	RELATIVE INTENSITY
26	70
27	560
28	910
29	330
30	1130
31	110
38	420
39	140
40	70
41	490
42	1470
43	1280
44	1580
45	1690
46	600
56	90
57	180
58	250
59	9999
60	390
71	110
72	70
73	2530
74	110
87	330
102	3810
103	330
