Mass Spectrum: Hydrazine, 1-butyl-1-ethyl-
Formula: C6 H16 N2
CAS: 52728-56-0
Molecular weight: 116
Origin: ATLAS OF MASS SPECTRA OF ORGANIC COMPOUNDS, V. A. KOPTYUG, ED.
m/z	RELATIVE INTENSITY
27	470
28	330
29	840
30	440
31	220
39	160
41	450
42	390
43	290
44	600
45	2260
46	50
55	70
56	350
57	250
58	220
59	330
71	70
73	9999
74	330
101	350
115	480
116	1330
117	120
