Mass Spectrum: 1,1'-Biphenyl, 2,2',3,3',5,6'-hexachloro-
Formula: C12 H4 Cl6
CAS: 52744-13-5
Molecular weight: 358
Origin: Organic Synthesis Lab, MSU, Moscow.TRC 1252
m/z	RELATIVE INTENSITY
44	366
47	161
49	245
50	452
60	370
61	1041
62	453
67	160
72	520
73	1790
74	1619
75	346
78	311
79	382
80	83
83	146
84	918
85	895
86	674
87	170
91	1744
96	596
97	761
98	1321
99	456
100	94
107	383
108	1225
109	3206
110	2160
111	675
114	280
115	195
116	102
119	220
120	450
121	523
122	803
123	346
126	2377
127	2343
131	220
132	639
133	614
134	379
135	263
142	81
144	4564
145	5565
146	3223
147	1234
148	437
156	191
157	287
158	316
161	538
162	653
163	473
168	103
169	160
171	120
179	883
180	1700
181	1470
182	1523
183	1051
184	461
185	207
192	133
193	165
194	124
195	106
203	89
204	185
205	102
206	129
216	200
217	454
218	3061
219	745
220	2035
221	315
222	382
228	196
230	203
252	586
253	653
254	666
255	793
256	259
257	298
288	5214
289	834
290	6933
291	1214
292	3285
293	513
294	783
295	150
323	2701
324	468
325	4229
326	627
327	2428
328	432
329	761
330	91
331	116
358	4792
359	871
360	9999
361	1511
362	8826
363	1363
364	3723
365	361
366	827
367	89
368	99
