Mass Spectrum: Bicyclo[4.1.0]hepta-1,3,5-triene, 2,5-diphenyl-
Formula: C19 H14
CAS: 52750-12-6
Molecular weight: 242
Origin: ASES Database, Dalian Institute, P.R. China
m/z	RELATIVE INTENSITY
41	610
43	670
55	780
57	1201
69	580
71	710
83	400
85	500
87	200
88	300
89	300
94	190
95	400
97	390
98	200
99	190
100	190
101	400
106	200
107	500
108	490
111	300
115	800
116	200
117	500
119	810
120	1391
121	700
139	490
149	190
163	500
164	580
165	2872
166	490
187	200
189	290
202	400
213	490
215	1191
216	390
226	900
227	390
237	700
238	400
239	4393
240	2492
241	9718
242	9999
243	1981
244	700
