Mass Spectrum: Flamprop-isopropyl
Formula: C19 H19 Cl F N O3
CAS: 52756-22-6
Molecular weight: 363
Origin: NIST Mass Spectrometry Data Center, 1995
m/z	RELATIVE INTENSITY
13	3
15	46
18	13
26	16
27	252
29	6
33	5
35	4
36	7
37	5
38	17
39	80
41	244
43	499
44	40
45	11
50	105
51	507
52	35
53	7
54	4
55	21
56	19
57	18
58	5
61	3
62	8
63	23
64	4
65	7
67	5
68	10
69	7
73	11
74	16
75	54
76	3
77	2561
78	161
79	5
81	15
82	13
83	13
84	3
85	3
88	4
89	7
91	8
92	5
93	53
94	70
95	18
96	5
99	5
100	2
101	4
105	9999
106	719
107	57
108	33
109	91
110	11
111	28
117	14
119	7
120	5
121	4
122	4
129	416
130	37
131	141
132	13
134	5
135	19
136	15
137	11
143	6
145	9
150	4
156	463
157	48
158	147
159	13
164	4
168	6
170	164
171	240
172	107
173	75
174	16
176	16
184	8
185	9
195	6
196	5
197	4
199	4
212	4
213	5
214	4
216	38
217	5
218	18
219	5
226	6
230	8
232	19
233	5
234	5
240	8
241	10
247	4
248	6
249	16
258	362
259	53
260	119
261	15
274	15
276	1927
277	334
278	668
279	106
280	10
303	28
304	311
305	66
306	110
307	18
320	5
363	512
364	107
365	188
366	34
367	5
