Mass Spectrum: 1-Heptanamine, N,N-dimethyl-
Formula: C9 H21 N
CAS: 5277-11-2
Molecular weight: 143
Origin: V.G.Zaikin, TIPS, Russian Acad. Sci., Moscow
m/z	RELATIVE INTENSITY
29	1371
30	850
39	690
40	160
41	1481
42	2232
43	930
44	1030
45	440
46	120
55	490
56	380
57	520
58	9999
59	1341
65	10
67	20
68	40
69	50
70	180
71	160
72	160
73	10
82	40
84	250
85	20
86	10
98	20
100	40
114	70
128	30
140	10
141	10
142	160
143	740
144	80
