Mass Spectrum: 1,2-Dibromo-4,5-methylenedioxybenzene
Formula: C7 H4 Br2 O2
CAS: 5279-32-3
Molecular weight: 278
Origin: NIST Mass Spectrometry Data Center
m/z	RELATIVE INTENSITY
12	60
13	90
14	520
16	20
17	10
18	20
24	60
25	160
26	100
27	20
29	1091
30	370
31	40
36	270
37	1001
38	320
39	100
42	250
46	40
48	170
49	881
50	1732
51	90
53	781
54	30
60	671
61	3443
62	6105
63	1181
64	320
65	50
70	120
71	170
72	190
73	130
74	50
75	50
76	30
77	190
79	440
80	70
81	450
82	60
85	30
86	20
89	90
90	701
91	170
92	70
93	120
95	50
103	20
104	140
105	100
106	110
107	60
109	50
110	70
111	180
112	90
113	10
115	80
116	180
117	210
118	210
119	530
120	140
121	50
123	60
124	20
125	50
126	30
127	20
128	60
129	180
130	70
131	210
132	20
133	30
140	911
141	2813
142	400
143	3443
144	250
145	1041
146	60
157	390
158	50
159	370
160	60
162	20
168	20
169	160
170	80
171	200
172	60
173	50
197	30
199	200
200	40
201	190
202	20
219	30
220	140
221	200
222	310
223	280
224	170
225	130
232	20
234	30
235	50
236	30
237	20
248	20
250	30
251	30
252	20
277	3403
278	5155
279	7216
280	9999
281	4154
282	4434
283	390
284	30
