Mass Spectrum: Benzene, 1,2-dinitro-
Formula: C6 H4 N2 O4
CAS: 528-29-0
Molecular weight: 168
Origin: NIST Mass Spectrometry Data Center, 1992
m/z	RELATIVE INTENSITY
13	27
15	7
16	85
17	13
18	31
26	181
27	365
28	1155
29	7
30	9999
32	148
37	539
38	1126
39	2140
40	249
41	39
42	52
43	23
44	75
45	23
46	476
48	43
50	5403
51	1800
52	1006
53	1026
54	98
55	27
60	56
61	255
62	576
63	4538
64	3086
65	206
66	221
67	125
68	145
69	12
73	405
74	2023
75	1471
76	2350
77	419
78	817
79	113
80	774
81	42
87	59
88	48
90	89
92	891
93	128
94	502
95	25
104	29
120	43
122	155
123	15
138	33
152	114
168	6182
169	421
170	78
