Mass Spectrum: Ethanone, 1-(2,3,4-trihydroxyphenyl)-
Formula: C8 H8 O4
CAS: 528-21-2
Molecular weight: 168
Origin: Japan AIST/NIMC Database- Spectrum MS-NW-9387
m/z	RELATIVE INTENSITY
14	20
15	129
17	20
18	109
19	10
26	40
27	129
28	59
29	159
30	10
31	20
32	10
37	80
38	169
39	589
40	109
41	119
42	109
43	1089
44	20
45	10
46	30
47	30
48	10
49	40
50	179
51	579
52	129
53	409
54	50
55	189
56	10
61	30
62	70
63	80
64	50
65	249
66	179
67	99
68	139
69	139
70	40
71	20
74	10
75	20
76	139
77	109
78	90
79	939
80	99
81	30
82	30
84	99
92	10
93	299
94	90
95	60
96	40
97	179
98	10
104	40
105	10
106	119
107	529
108	70
109	10
111	10
121	109
122	40
123	60
124	149
125	589
126	80
132	20
135	70
139	219
140	20
149	30
150	419
151	40
152	149
153	9999
154	779
155	109
167	90
168	4989
169	559
170	70
