Mass Spectrum: Benzoic acid, 2,4,5-trimethyl-
Formula: C10 H12 O2
CAS: 528-90-5
Molecular weight: 164
Origin: Japan AIST/NIMC Database- Spectrum MS-IW-8065
m/z	RELATIVE INTENSITY
17	20
18	70
26	10
27	249
28	139
29	50
37	10
38	50
39	609
40	70
41	559
42	20
43	139
44	40
45	99
46	10
49	10
50	219
51	719
52	209
53	299
54	20
55	60
57	289
58	399
59	209
60	10
61	30
62	109
63	339
64	70
65	619
66	169
67	80
68	40
69	10
71	50
72	109
73	459
74	139
75	129
76	90
77	1269
78	409
79	489
80	50
81	50
82	149
85	10
86	30
87	40
88	10
89	159
90	50
91	2279
92	249
93	299
94	30
98	20
99	10
101	40
102	169
103	879
104	369
105	1599
106	139
107	90
108	10
113	10
114	10
115	929
116	249
117	1679
118	5739
119	7139
120	819
121	279
122	20
129	10
130	10
131	289
132	40
133	60
134	10
135	50
136	10
144	30
145	339
146	8349
147	2629
148	269
149	1439
150	149
151	10
160	10
161	20
162	50
163	379
164	9999
165	1119
166	99
