Mass Spectrum: 1,2,4-Benzenetricarboxylic acid
Formula: C9 H6 O6
CAS: 528-44-9
Molecular weight: 210
Origin: Japan AIST/NIMC Database- Spectrum MS-NW-2677
m/z	RELATIVE INTENSITY
12	20
16	40
17	40
18	149
25	20
26	40
27	40
28	379
29	50
31	20
32	20
36	60
37	579
38	309
39	189
40	10
41	10
42	20
43	20
44	849
45	309
46	20
48	40
49	179
50	1089
51	279
52	70
53	429
54	20
55	40
57	10
58	10
60	60
61	119
62	139
63	359
64	349
65	429
66	80
69	30
72	30
73	359
74	1869
75	2309
76	369
77	139
78	30
79	10
81	80
84	10
85	10
86	10
90	30
91	139
92	169
93	70
94	10
100	10
101	60
102	1209
103	1959
104	289
105	80
108	10
109	40
118	10
119	579
120	3469
121	659
122	70
136	10
137	30
138	30
147	40
148	9999
149	2319
150	229
151	20
156	10
165	50
166	1439
167	139
168	20
175	259
176	20
191	10
192	579
193	169
194	20
210	20
211	10
