Mass Spectrum: 2,4-Dinitrobenzaldehyde
Formula: C7 H4 N2 O5
CAS: 528-75-6
Molecular weight: 196
Origin: NIST Mass Spectrometry Data Center, 1994
m/z	RELATIVE INTENSITY
16	192
17	78
18	69
25	50
26	170
27	136
28	563
29	1654
30	7503
31	58
36	61
37	753
38	1268
39	574
40	98
42	61
43	34
44	61
45	182
46	495
48	51
49	405
50	5770
51	910
52	598
53	2637
54	166
55	72
60	68
61	574
62	1020
63	2799
64	3355
65	305
66	268
67	84
68	62
69	156
73	797
74	5079
75	9144
76	3135
77	495
78	161
79	282
80	460
85	75
86	139
87	143
88	121
89	76
90	119
91	920
92	2411
93	171
94	58
101	49
103	2947
104	365
105	42
108	6025
109	387
110	47
120	9999
121	696
122	124
134	92
136	599
137	60
138	34
149	681
150	199
166	37
179	124
