Mass Spectrum: Ethanone, 1-[5-(2-furanylmethyl)-2-furanyl]-
Formula: C11 H10 O3
CAS: 52805-84-2
Molecular weight: 190
m/z	RELATIVE INTENSITY
37	129
38	309
39	747
41	180
43	2165
44	258
50	258
51	593
52	335
53	747
54	77
55	155
61	52
62	155
63	464
64	206
65	773
74	26
77	180
79	258
81	825
87	129
89	361
90	155
91	3247
92	309
93	26
103	206
105	155
118	258
119	2242
120	180
121	155
147	3814
148	387
161	155
162	77
175	2526
176	309
189	722
190	9999
191	1185
192	155
