Mass Spectrum: Cyclopentanemethanol, .alpha.-methyl-
Formula: C7 H14 O
CAS: 52829-98-8
Molecular weight: 114
Origin: NIST Mass Spectrometry Data Center
m/z	RELATIVE INTENSITY
14	10
15	340
19	300
26	90
27	1041
29	771
30	30
31	220
37	20
38	80
39	1121
40	220
41	2322
42	721
43	1111
44	1281
45	9999
46	230
47	330
48	10
50	30
51	90
52	30
53	290
54	90
55	621
56	40
57	260
58	40
62	10
63	20
65	110
66	100
67	1241
68	4834
69	761
70	70
71	160
72	10
77	40
79	200
81	1341
82	80
83	10
95	50
96	200
97	50
99	530
100	30
113	10
