Mass Spectrum: Hexanamide, N,N-dibutyl-
Formula: C14 H29 N O
CAS: 52868-51-6
Molecular weight: 227
Origin: J.A.GILPIN DOW CHEM. CO., MIDLAND, MICHIGAN, USA
m/z	RELATIVE INTENSITY
15	40
27	400
28	300
29	700
30	500
31	30
41	1100
42	500
43	1800
44	800
45	100
55	500
56	300
57	1100
58	100
59	30
60	800
71	800
72	300
73	700
74	80
85	40
86	9999
87	900
88	40
99	700
100	900
101	90
114	500
115	700
116	80
127	20
128	2100
129	400
141	10
142	400
143	90
155	20
156	1400
157	200
170	70
171	500
184	900
185	100
198	300
199	40
212	70
213	10
226	50
227	400
