Mass Spectrum: 3-Methyl-2-butene-1-thiol
Formula: C5 H10 S
CAS: 5287-45-6
Molecular weight: 102
Origin: W.Holscher ET AL.J.Agr.Food Chem.,40,655(1992)
m/z	RELATIVE INTENSITY
33	641
34	130
37	280
38	550
39	4714
40	661
41	9999
42	480
43	200
45	1381
46	110
47	550
50	591
51	681
52	180
53	1641
54	180
55	110
56	90
57	150
58	240
59	460
60	90
61	90
65	310
66	90
67	1692
68	2762
69	5405
70	200
87	130
102	871
103	90
