Mass Spectrum: Pyridine, 1,1'-(1,2-phenylenedicarbonyl)bis[1,2,3,4-tetrahydro-
Formula: C18 H20 N2 O2
CAS: 52881-76-2
Molecular weight: 296
m/z	RELATIVE INTENSITY
41	1500
42	700
43	4600
44	500
50	500
53	500
54	700
55	1800
58	1000
76	3700
77	1400
82	900
84	600
103	500
104	7599
105	1500
130	600
132	900
133	500
186	600
214	9999
215	1800
296	1800
