Mass Spectrum: Pyridine, 1,1'-[1,2-phenylenebis(1-oxo-2,1-ethanediyl)]bis[1,2,3,4-tetrahydro-
Formula: C20 H24 N2 O2
CAS: 52881-80-8
Molecular weight: 324
m/z	RELATIVE INTENSITY
41	800
54	700
55	800
67	500
68	900
77	700
78	500
82	5499
83	9999
84	1800
103	4800
104	1500
105	1700
110	1100
131	1800
186	1100
213	800
214	9699
215	1600
241	1900
242	9099
243	1500
324	1300
