Mass Spectrum: Pyridine, 1,1'-(1,4-phenylenedicarbonyl)bis[1,2,3,4-tetrahydro-
Formula: C18 H20 N2 O2
CAS: 52881-77-3
Molecular weight: 296
m/z	RELATIVE INTENSITY
41	900
42	500
43	1400
54	700
55	2000
76	3500
77	1000
82	1000
83	800
84	1000
103	600
104	8499
105	1100
132	800
158	500
214	9999
215	1600
296	2400
