Mass Spectrum: Heptane, 3-ethyl-4-methyl-
Formula: C10 H22
CAS: 52896-91-0
Molecular weight: 142
Origin: Japan AIST/NIMC Database- Spectrum MS-IW-5293
m/z	RELATIVE INTENSITY
15	20
26	30
27	1029
28	149
29	1799
30	40
38	20
39	809
40	129
41	3109
42	1909
43	9289
44	409
50	10
51	60
52	20
53	289
54	99
55	3659
56	479
57	6329
58	279
63	10
65	50
66	20
67	129
68	40
69	629
70	9999
71	7889
72	419
77	30
79	30
81	20
83	99
84	239
85	199
86	10
97	30
98	179
99	349
100	20
111	30
112	489
113	1609
114	139
127	10
142	289
143	30
