Mass Spectrum: 5-Chlorovaleric acid, nonyl ester
Formula: C14 H27 Cl O2
CAS: 52893-18-2
Molecular weight: 262
Origin: Zaikin V.G., TIPS RAS, Moscow, Russia
m/z	RELATIVE INTENSITY
26	110
27	550
28	230
29	581
36	150
38	50
39	330
40	50
41	581
42	510
43	320
44	110
45	50
49	110
51	100
53	160
54	150
55	3894
56	621
57	230
58	40
59	30
60	60
62	90
63	210
64	30
65	60
67	40
68	90
69	290
70	380
71	170
73	200
75	30
82	120
83	490
84	330
85	110
87	40
91	2322
92	100
93	711
94	30
96	30
97	310
98	270
99	30
100	150
101	300
118	140
119	9999
120	470
121	2863
122	140
126	210
136	60
137	671
138	60
139	220
