Mass Spectrum: 5-Chlorovaleric acid, decyl ester
Formula: C15 H29 Cl O2
CAS: 52893-19-3
Molecular weight: 276
Origin: Zaikin V.G., TIPS RAS, Moscow, Russia
m/z	RELATIVE INTENSITY
26	140
27	991
28	10
29	1932
30	50
31	60
36	170
38	90
39	851
40	190
41	4084
42	1802
43	4924
44	250
45	120
49	90
50	30
51	80
52	30
53	470
54	821
55	9999
56	4864
57	4134
58	290
59	260
60	100
61	60
62	70
63	280
64	30
65	130
66	50
67	711
68	1301
69	3853
70	5055
71	1842
72	100
73	641
74	60
75	50
77	50
79	60
81	310
82	1581
83	5205
84	3213
85	1511
86	90
87	210
89	50
90	40
91	2973
92	140
93	991
94	40
95	140
96	611
97	3373
98	2112
99	350
100	721
101	3123
102	190
103	30
109	50
110	240
111	2132
112	2462
113	250
115	40
116	140
117	30
118	150
119	5705
120	360
121	1892
122	80
125	50
129	40
134	80
135	50
136	811
137	9428
138	841
139	3053
140	2532
141	310
147	60
149	30
155	80
157	210
163	90
174	60
176	30
177	130
179	40
185	350
186	30
187	20
192	340
193	30
194	100
241	270
242	30
277	30
