Mass Spectrum: Heptane, 4-(1-methylethyl)-
Formula: C10 H22
CAS: 52896-87-4
Molecular weight: 142
Origin: CONTINENTAL OIL CO., PONCA CITY, OKLA, USA
m/z	RELATIVE INTENSITY
13	8
14	32
15	212
16	14
24	2
25	6
26	66
27	1886
28	300
29	1608
30	39
36	5
37	18
38	36
39	889
40	159
41	2886
42	710
43	4158
44	160
50	28
51	61
52	31
53	216
54	124
55	1073
56	1340
57	9999
58	453
59	11
62	5
63	13
64	5
65	33
66	18
67	80
68	84
69	801
70	673
71	404
72	22
76	3
77	22
78	9
79	20
80	5
81	19
82	10
83	121
84	31
85	135
86	8
94	2
95	9
96	4
97	18
98	2398
99	678
100	45
107	3
108	2
109	5
110	2
111	3
112	8
113	16
114	3
115	2
117	2
119	3
120	2
121	2
122	1
123	2
127	4
133	2
135	1
137	2
141	2
142	53
143	6
