Mass Spectrum: Pyridine, 3-ethyl-4-methyl-
Formula: C8 H11 N
CAS: 529-21-5
Molecular weight: 121
Origin: Japan AIST/NIMC Database- Spectrum MS-NW-3130
m/z	RELATIVE INTENSITY
15	50
26	90
27	529
28	90
29	60
37	70
38	189
39	1029
40	149
41	299
42	70
43	20
44	10
45	10
46	10
49	20
50	309
51	679
52	399
53	609
54	139
55	30
58	50
59	30
60	10
61	50
62	99
63	309
64	129
65	529
66	269
67	90
68	30
73	10
74	50
75	50
76	50
77	1479
78	479
79	1739
80	249
81	30
86	10
87	10
89	60
90	40
91	319
92	279
93	709
94	159
95	10
102	10
103	20
104	169
105	99
106	9999
107	839
108	30
116	10
117	90
118	189
119	70
120	2559
121	7189
122	679
123	20
