Mass Spectrum: 1,5-Methano-8H-pyrido[1,2-a][1,5]diazocin-8-one, 3-(3-butenyl)-1,2,3,4,5,6-hexahydro-, (1R)-
Formula: C15 H20 N2 O
CAS: 529-78-2
Molecular weight: 244
m/z	RELATIVE INTENSITY
50	150
51	390
52	290
53	641
54	340
55	1431
56	240
57	350
58	9999
59	400
63	140
64	120
65	520
66	290
67	390
68	440
69	150
70	300
77	500
78	370
79	340
80	360
81	200
82	450
83	100
84	140
90	100
91	290
92	160
93	290
94	310
95	100
96	330
97	200
98	3203
99	130
103	110
104	350
105	200
106	180
108	100
109	250
115	100
118	440
122	200
123	400
130	250
131	180
132	310
133	230
134	330
136	100
142	100
145	140
146	1421
147	721
148	300
159	110
160	1281
161	250
162	110
190	480
203	1121
204	250
205	120
244	881
245	150
