Mass Spectrum: Bicyclo[2.2.1]hept-2-ene, 2,3-dimethyl-
Formula: C9 H14
CAS: 529-16-8
Molecular weight: 122
Origin: NIST Mass Spectrometry Data Center
m/z	RELATIVE INTENSITY
26	30
27	290
28	70
29	100
37	20
38	60
39	1001
40	150
41	561
42	40
43	40
50	180
51	530
52	230
53	550
54	70
55	130
58	40
59	30
61	30
62	80
63	230
64	50
65	611
66	250
67	290
68	40
74	50
75	20
76	20
77	1772
78	420
79	9108
80	631
81	50
89	40
91	1571
92	240
93	1111
94	9999
95	771
96	30
102	20
103	110
104	40
105	340
106	50
107	751
108	70
121	40
122	3393
123	330
124	20
