Mass Spectrum: 2-Cyclohexen-1-one, 3-methyl-6-(1-methylethenyl)-
Formula: C10 H14 O
CAS: 529-01-1
Molecular weight: 150
m/z	RELATIVE INTENSITY
27	1341
39	3133
41	1591
53	1201
54	1902
82	9999
91	931
107	1621
135	1732
150	2943
