Mass Spectrum: Chamazulene
Formula: C14 H16
CAS: 529-05-5
Molecular weight: 184
Origin: N.W. DAVIES, UNIVERSITY OF TASMANIA, TASMANIA, AUSTRALIA
m/z	RELATIVE INTENSITY
27	220
39	420
41	290
50	130
51	430
53	110
55	110
62	110
63	430
64	280
65	170
70	120
74	110
75	190
76	660
77	750
78	360
82	360
83	470
84	190
85	290
87	110
89	260
91	250
92	560
102	160
115	890
116	110
126	130
127	460
128	1190
129	710
130	110
139	430
141	880
142	310
143	170
150	110
151	370
152	1690
153	2260
154	1290
155	2170
156	310
164	110
165	980
166	280
167	820
168	580
169	9100
170	1290
181	110
182	130
183	2640
184	9999
185	1510
186	110
