Mass Spectrum: 4-Nitro-3-carbethoxy-1,2,7-trimethylindole
Formula: C14 H16 N2 O4
CAS: 52916-05-9
Molecular weight: 276
Origin: V.A. KOPTYUG, ATLAS OF MS OF ORG. CMPDS.,VOL3
m/z	RELATIVE INTENSITY
39	300
41	1420
42	270
43	2110
44	410
45	200
51	120
54	100
55	1830
56	1400
57	1600
67	410
68	210
69	2800
70	290
71	1030
77	580
78	210
79	120
81	1200
82	450
83	1000
84	270
90	120
91	180
92	150
93	370
96	430
97	420
98	120
111	380
115	1840
116	530
117	500
118	180
130	460
144	2500
145	470
149	340
157	7220
158	810
172	2530
173	560
174	150
185	1240
186	400
200	1700
201	530
203	1910
204	600
230	2120
231	5020
276	9999
277	1120
