Mass Spectrum: Deltamethrin
Formula: C22 H19 Br2 N O3
CAS: 52918-63-5
Molecular weight: 503
Origin: NIST Mass Spectrometry Data Center, 1998.
m/z	RELATIVE INTENSITY
26	20
27	290
29	130
37	30
38	190
39	1140
40	150
41	1030
42	80
43	860
44	80
45	30
49	20
50	520
51	2190
52	330
53	570
54	70
55	490
56	20
57	10
59	40
61	20
62	210
63	500
64	280
65	1160
66	250
67	280
68	70
69	80
70	20
71	20
73	10
74	100
75	240
76	590
77	4450
78	960
79	530
80	270
81	220
82	90
83	580
84	30
85	10
86	10
87	80
88	430
89	310
90	10
91	3250
92	2620
93	3740
94	460
95	160
96	110
97	50
98	10
99	20
100	20
101	40
102	120
103	300
104	100
105	80
106	50
107	110
108	60
109	210
110	20
111	40
112	10
113	50
114	760
115	1290
116	370
117	500
118	60
119	570
120	90
121	180
122	20
123	20
125	50
126	80
127	410
128	190
129	110
130	120
131	250
132	150
133	150
134	30
135	70
136	40
137	450
138	50
139	310
140	290
141	680
142	120
143	60
144	100
145	80
146	60
147	50
148	10
149	20
150	60
151	530
152	2030
153	1260
154	290
155	90
156	70
157	130
158	70
159	200
160	40
161	80
162	30
163	50
164	60
165	60
166	70
167	40
168	590
169	380
170	180
171	420
172	3020
173	720
174	2830
175	450
176	40
177	210
178	310
179	200
180	1830
181	9999
182	1430
183	130
184	20
185	30
187	90
188	70
189	100
190	270
191	70
192	20
193	60
194	50
195	30
196	20
197	670
198	180
199	480
200	60
201	260
202	30
203	30
205	20
206	600
207	540
208	1710
209	1800
210	300
211	170
212	20
213	150
215	120
216	30
217	80
218	30
219	30
220	10
222	10
223	20
224	20
225	30
226	20
227	10
235	10
237	90
238	10
239	190
240	30
241	110
242	10
243	10
245	20
246	10
249	10
251	2980
252	250
253	5819
254	440
255	2790
256	220
257	10
261	20
262	10
263	10
265	50
266	10
267	10
269	30
271	20
277	40
279	160
280	20
281	180
282	10
283	70
289	10
295	140
296	20
297	270
298	30
299	150
300	20
301	10
316	20
317	20
318	20
326	10
328	20
344	70
345	50
346	10
396	10
397	60
398	20
399	50
400	10
405	20
423	40
424	20
425	50
426	20
503	20
505	30
507	20
