Mass Spectrum: Acetic acid, bromo-, 1,1-dimethylethyl ester
Formula: C6 H11 Br O2
CAS: 5292-43-3
Molecular weight: 194
Origin: Japan AIST/NIMC Database- Spectrum MS-IW-2358
m/z	RELATIVE INTENSITY
13	10
14	109
15	249
26	50
27	499
28	219
29	2129
30	50
31	199
37	20
38	60
39	819
40	159
41	3929
42	719
43	1039
44	50
45	30
49	20
50	40
51	50
52	10
53	80
54	30
55	379
56	2049
57	9999
58	669
59	8699
60	329
61	20
71	10
72	10
73	60
77	20
79	70
80	99
81	70
82	90
91	20
92	40
93	799
94	90
95	749
96	40
97	10
113	10
120	60
121	2319
122	109
123	2259
124	50
135	30
137	10
138	10
139	10
140	10
141	10
169	10
179	1609
180	90
181	1579
182	90
183	10
