Mass Spectrum: trans-2-Methyl-3-octene
Formula: C9 H18
CAS: 52937-36-7
Molecular weight: 126
Origin: NIST Mass Spectrometry Data Center, 1990.
m/z	RELATIVE INTENSITY
15	96
27	1479
28	598
29	1094
32	91
39	2216
40	587
41	6106
42	805
43	1250
44	80
50	135
51	332
52	175
53	987
54	80
55	6696
56	5539
57	1443
58	63
63	86
65	309
66	139
67	1240
68	1006
69	9999
70	1760
71	145
77	225
78	53
79	257
80	42
81	256
82	197
83	873
84	762
85	76
91	48
97	139
98	203
111	449
126	1618
127	148
