Mass Spectrum: 9-Tetradecen-1-ol, (E)-
Formula: C14 H28 O
CAS: 52957-16-1
Molecular weight: 212
Origin: Vladimir Zaikin, TIPS RAS, Moscow, Russia
m/z	RELATIVE INTENSITY
30	450
31	2802
32	200
36	100
37	300
38	500
39	4654
40	1251
41	9158
42	2902
43	3583
44	720
45	210
50	350
51	450
52	350
53	1351
54	4504
55	9999
56	2552
57	1701
58	180
63	100
65	400
66	850
67	6405
68	4203
69	3783
70	1201
71	600
72	80
73	60
77	380
78	170
79	800
80	500
81	4884
82	5304
83	1851
84	450
85	320
91	120
93	200
94	200
95	2922
96	3202
97	900
98	230
99	70
107	70
108	90
109	1221
110	1201
111	250
112	70
121	50
122	50
123	520
124	480
125	100
129	30
137	280
138	250
139	50
151	80
152	80
166	100
167	30
194	380
195	50
