Mass Spectrum: Butanoic acid, 2-ethyl-2-methyl-, methyl ester
Formula: C8 H16 O2
CAS: 5296-70-8
Molecular weight: 144
Origin: D.HENNEBERG, MAX-PLANCK INSTITUTE, MULHEIM, WEST GERMANY
m/z	RELATIVE INTENSITY
26	200
27	2522
28	570
29	2452
30	100
31	100
39	1361
40	2362
41	2852
42	280
43	9999
44	340
45	180
50	100
51	280
52	70
53	630
54	170
55	1981
56	450
57	1471
58	40
59	2682
60	90
67	70
69	1511
70	100
73	310
74	110
83	260
84	1571
85	8598
86	550
87	120
97	60
101	700
103	58
113	170
115	390
116	2332
117	120
