Mass Spectrum: 7,8-Dioxabicyclo[4.2.2]decane
Formula: C8 H14 O2
CAS: 52965-57-8
Molecular weight: 142
Origin: ASES Database, Dalian Institute, P.R. China
m/z	RELATIVE INTENSITY
27	4123
28	4994
29	8948
30	200
31	990
39	2812
40	200
41	9999
42	1981
43	4584
44	1481
45	700
53	700
54	1181
55	6005
56	1981
57	5695
58	1000
67	3182
68	800
69	1991
70	1101
71	590
79	990
80	1000
81	1981
82	290
83	800
85	1391
87	390
95	200
96	90
97	90
98	290
109	200
142	1991
143	100
