Mass Spectrum: 3-Ethylthio-1-propene
Formula: C5 H10 S
CAS: 5296-62-8
Molecular weight: 102
Origin: NIST Mass Spectrometry Data Center
m/z	RELATIVE INTENSITY
12	50
14	160
15	450
16	10
26	1381
27	4594
28	831
29	1812
32	220
33	140
34	160
35	1061
36	70
37	641
38	1441
39	6846
40	691
41	9228
42	400
43	70
45	9999
46	2162
47	3453
48	210
49	160
50	80
53	641
54	60
55	80
56	60
57	530
58	1341
59	2502
60	5925
61	2412
62	490
63	110
65	50
67	290
68	230
69	1081
71	1021
72	1722
73	8808
74	3673
75	1431
76	230
85	661
87	1421
88	100
89	90
100	50
102	9348
103	621
104	410
