Mass Spectrum: Ethylene, 1,1-diphenyl-
Formula: C14 H12
CAS: 530-48-3
Molecular weight: 180
Origin: Japan AIST/NIMC Database- Spectrum MS-NW-1475
m/z	RELATIVE INTENSITY
26	20
27	169
28	40
29	10
30	10
37	20
38	50
39	379
40	20
41	20
44	10
49	10
50	429
51	1149
52	279
53	50
61	30
62	139
63	549
64	119
65	139
66	10
69	90
73	20
74	289
75	339
76	1149
77	1419
78	279
79	20
81	30
82	329
83	50
85	20
86	70
87	129
88	359
89	1539
90	229
91	60
98	70
99	50
100	20
101	90
102	679
103	359
104	30
105	409
106	30
110	20
111	20
113	60
114	30
115	309
116	30
122	10
125	20
126	139
127	109
128	119
129	10
137	20
138	20
139	239
140	30
141	40
149	10
150	139
151	399
152	799
153	239
154	80
155	10
162	10
163	139
164	179
165	6459
166	919
167	309
168	50
174	30
175	60
176	619
177	639
178	4249
179	6549
180	9999
181	1479
182	269
183	30
