Mass Spectrum: Methanone, [4-(dimethylamino)phenyl]phenyl-
Formula: C15 H15 N O
CAS: 530-44-9
Molecular weight: 225
Origin: Japan AIST/NIMC Database- Spectrum MS-NW-6479
m/z	RELATIVE INTENSITY
14	70
15	109
16	40
18	20
26	20
27	80
28	90
29	90
30	60
31	10
37	10
38	40
39	149
40	50
41	60
42	769
43	80
44	60
45	10
50	229
51	539
52	80
53	40
54	30
55	30
56	50
57	10
58	10
59	10
61	10
62	40
63	179
64	70
65	109
66	50
67	10
68	30
69	40
70	20
71	10
73	10
74	70
75	90
76	209
77	1679
78	369
79	339
80	60
81	20
82	20
83	10
84	10
85	10
86	10
87	20
88	20
89	30
90	129
91	239
92	139
93	60
94	40
97	40
98	479
99	80
101	10
102	40
103	70
104	409
105	1109
106	109
107	30
109	20
110	10
111	30
112	10
113	10
114	10
115	30
116	10
117	30
118	139
119	209
120	309
121	50
122	50
125	10
126	30
127	30
128	20
129	10
132	449
133	50
134	189
135	40
137	10
138	10
139	40
140	30
141	20
146	20
147	10
148	9999
149	1039
150	99
151	60
152	179
153	99
154	30
155	10
162	10
163	20
164	10
165	479
166	80
167	40
168	20
169	10
179	20
180	169
181	189
182	50
183	10
194	10
195	10
196	90
197	50
198	10
207	10
208	119
209	70
210	50
222	40
223	40
224	1199
225	7299
226	1229
227	129
228	10
