Mass Spectrum: 3,5-Dimethoxy-4-hydroxycinnamic acid
Formula: C11 H12 O5
CAS: 530-59-6
Molecular weight: 224
Origin: Japan AIST/NIMC Database- Spectrum MS-NW-6348
m/z	RELATIVE INTENSITY
14	10
15	219
18	10
26	20
27	90
28	80
29	109
30	10
31	50
32	10
33	10
37	30
38	119
39	359
40	40
41	70
42	30
43	99
44	90
45	159
46	30
49	20
50	259
51	429
52	119
53	379
54	60
55	139
56	10
57	30
59	50
60	20
61	40
62	119
63	299
64	149
65	589
66	139
67	99
68	40
69	329
70	20
71	30
73	20
74	90
75	129
76	169
77	409
78	139
79	259
80	40
81	259
82	109
83	30
84	10
85	50
86	20
87	40
88	40
89	109
90	50
91	329
92	199
93	349
94	109
95	70
96	60
97	90
98	30
99	10
100	10
101	30
102	20
103	60
104	80
105	239
106	60
107	199
108	60
109	109
110	129
111	80
112	60
113	20
116	10
117	80
118	50
119	209
120	199
121	669
122	129
123	90
124	20
125	119
126	10
127	10
129	10
130	10
131	40
132	90
133	219
134	129
135	409
136	90
137	189
138	70
139	99
140	30
141	10
145	60
146	30
147	139
148	60
149	479
150	99
151	40
152	20
153	159
154	30
155	20
159	10
160	20
161	60
162	50
163	479
164	119
165	109
166	90
167	70
168	10
170	20
175	139
176	40
177	259
178	249
179	189
180	269
181	469
182	50
183	10
190	10
191	50
192	20
193	70
194	60
195	40
196	20
205	10
206	20
207	209
208	60
209	1039
210	149
211	20
221	10
222	20
223	219
224	9999
225	1169
226	209
227	20
