Mass Spectrum: 2(1H)-Naphthalenone, 3,4-dihydro-
Formula: C10 H10 O
CAS: 530-93-8
Molecular weight: 146
Origin: Japan AIST/NIMC Database- Spectrum MS-NW-6395
m/z	RELATIVE INTENSITY
14	10
15	10
26	40
27	239
28	169
29	20
36	10
37	50
38	139
39	709
40	70
41	80
42	50
43	30
44	80
45	10
49	30
50	279
51	549
52	179
53	70
54	10
55	50
56	10
57	249
58	399
59	60
60	10
61	80
62	209
63	519
64	129
65	399
66	40
71	10
72	30
73	30
74	109
75	109
76	99
77	559
78	1129
79	99
85	20
86	50
87	60
88	30
89	379
90	119
91	839
92	99
93	10
98	10
99	10
101	20
102	199
103	1189
104	9999
105	939
106	40
113	30
114	30
115	1129
116	369
117	2479
118	679
119	70
126	10
127	30
128	50
129	40
130	70
131	469
132	50
144	109
145	80
146	5539
147	639
148	50
