Mass Spectrum: 4-Pyridineethanesulfonic acid
Formula: C7 H9 N O3 S
CAS: 53054-76-5
Molecular weight: 187
Origin: Japan AIST/NIMC Database- Spectrum MS-NW-3031
m/z	RELATIVE INTENSITY
14	10
15	10
16	50
17	109
18	469
24	20
25	20
26	329
27	399
28	469
29	10
31	10
32	179
33	20
34	60
36	30
37	139
38	249
39	969
40	90
41	129
42	30
43	30
44	109
45	10
48	1569
49	149
50	1159
51	2139
52	2229
53	259
54	149
55	20
56	10
57	10
60	20
61	80
62	129
63	399
64	3729
65	919
66	189
67	30
69	10
73	30
74	189
75	189
76	339
77	1429
78	3379
79	1079
80	109
81	10
82	20
83	10
87	10
88	10
89	30
90	40
91	99
92	299
93	229
94	20
95	10
97	10
99	20
100	10
101	10
102	60
103	99
104	3329
105	9999
106	1239
107	149
108	10
113	10
115	10
116	20
117	149
118	149
119	80
120	40
121	10
122	20
127	60
128	149
129	10
130	50
131	10
132	80
133	10
135	10
136	10
137	10
139	10
140	10
142	10
143	10
144	10
152	10
154	10
155	10
166	10
167	20
168	20
169	20
170	20
180	20
181	30
182	20
183	40
184	10
185	10
187	159
188	10
189	10
