Mass Spectrum: Benzenemethanol, 2,6-dichloro-.alpha.-methyl-
Formula: C8 H8 Cl2 O
CAS: 53066-19-6
Molecular weight: 190
Origin: NIST Mass Spectrometry Data Center
m/z	RELATIVE INTENSITY
12	30
13	30
14	30
15	751
17	20
18	20
19	100
25	20
26	170
27	380
29	931
30	30
31	30
35	50
36	100
37	300
38	430
39	440
40	10
41	40
42	150
43	1912
44	210
45	761
46	30
47	40
49	270
50	1251
51	1011
52	170
53	80
55	120
56	80
57	30
59	90
60	90
61	330
62	370
63	520
64	70
65	210
66	30
68	140
69	80
70	40
71	20
72	100
73	530
74	1491
75	3503
76	520
77	380
78	70
83	20
84	320
85	360
86	280
87	851
89	601
90	80
91	320
92	30
94	40
95	30
96	30
97	90
98	90
99	220
100	70
101	410
102	370
103	110
104	10
107	20
108	80
109	420
111	4084
112	510
113	1271
114	130
118	20
119	20
121	20
123	50
125	120
126	30
127	110
129	20
135	40
136	60
137	150
139	961
140	110
141	320
142	30
145	210
146	280
147	561
148	200
149	290
150	40
151	50
155	30
171	30
173	540
175	9999
177	6206
178	561
179	1031
180	70
188	20
190	811
191	90
192	520
193	50
194	80
