Mass Spectrum: Naphthalene, 1,7-dimethoxy-
Formula: C12 H12 O2
CAS: 5309-18-2
Molecular weight: 188
m/z	RELATIVE INTENSITY
50	500
51	601
63	801
75	701
76	601
94	801
102	2602
114	701
115	3203
127	500
130	1001
145	2903
158	601
173	8708
174	1201
188	9999
189	1301
