Mass Spectrum: [1,1'-Biphenyl]-4,4'-diamine, N,N'-diphenyl-
Formula: C24 H20 N2
CAS: 531-91-9
Molecular weight: 336
Origin: RADIAN CORP
m/z	RELATIVE INTENSITY
15	30
16	80
26	10
27	220
28	300
29	270
30	50
31	60
38	50
39	690
40	140
41	510
42	300
43	2030
44	1550
45	160
46	10
48	70
50	160
51	1050
52	210
53	80
54	80
55	660
56	340
57	270
58	60
59	10
60	70
61	200
62	30
63	270
64	310
65	1080
66	710
67	130
68	60
69	300
70	800
71	200
72	40
73	400
74	110
75	150
76	170
77	2260
78	450
79	90
81	100
82	70
83	120
84	60
85	80
86	50
87	200
88	100
89	220
90	130
91	190
92	500
93	210
94	40
95	80
96	40
97	90
98	60
99	50
100	30
101	140
102	250
103	130
104	110
105	30
107	30
108	10
109	90
110	50
111	60
112	70
113	170
114	190
115	620
116	90
117	120
121	170
122	10
123	20
125	80
126	180
127	390
128	430
129	170
130	110
135	20
137	60
138	100
139	1010
140	650
141	380
142	100
143	110
146	50
147	10
149	300
150	160
151	300
152	840
153	340
154	130
156	30
160	30
163	70
164	160
165	350
166	1170
167	2670
168	4940
170	30
176	90
177	110
178	130
179	60
180	110
181	70
182	60
188	10
189	170
190	180
191	300
192	150
193	130
198	20
200	10
201	60
202	220
203	180
204	380
205	120
206	90
213	70
214	100
215	250
216	220
217	330
218	100
226	10
227	100
228	240
229	150
230	350
231	150
232	490
233	110
239	10
240	200
241	730
242	760
243	1110
244	310
245	70
255	120
256	130
257	310
258	130
259	700
260	140
266	30
267	50
268	130
269	220
270	150
271	30
333	10
334	140
335	150
336	9999
337	2600
338	340
