Mass Spectrum: 2H-1-Benzopyran-2-one, 7-methoxy-
Formula: C10 H8 O3
CAS: 531-59-9
Molecular weight: 176
Origin: Japan AIST/NIMC Database- Spectrum MS-NW-7447
m/z	RELATIVE INTENSITY
14	20
15	149
16	10
18	20
26	90
27	109
28	219
29	70
30	10
31	10
32	10
37	149
38	289
39	459
40	20
41	70
42	30
43	70
44	229
45	99
46	20
48	10
49	99
50	549
51	1489
52	99
53	149
54	30
55	40
56	20
58	20
59	99
60	20
61	229
62	519
63	969
64	209
65	129
66	60
67	20
68	20
69	439
70	10
72	10
73	50
74	429
75	109
76	339
77	1519
78	159
79	199
80	10
82	10
83	10
84	10
85	90
86	80
87	129
88	189
89	629
90	329
91	339
92	90
93	10
94	30
95	10
96	10
97	10
98	20
99	10
101	20
102	10
103	20
104	80
105	969
106	90
107	60
110	10
111	10
116	50
117	90
118	149
119	159
120	259
121	30
122	20
124	10
125	10
126	10
127	10
128	10
129	10
131	30
132	40
133	6219
134	679
135	70
139	10
144	10
145	99
146	30
147	70
148	6679
149	689
150	60
152	10
160	20
161	20
173	10
174	10
175	40
176	9999
177	1179
178	169
179	10
