Mass Spectrum: 1-Pentene, 2-methoxy-
Formula: C6 H12 O
CAS: 53119-70-3
Molecular weight: 100
Origin: D.HENNEBERG, MAX-PLANCK INSTITUTE, MULHEIM, WEST GERMANY
m/z	RELATIVE INTENSITY
37	100
38	300
39	3000
40	1000
41	5500
42	6100
43	9999
44	800
45	1500
50	100
51	200
53	1000
54	300
55	7400
56	500
57	800
58	500
59	4100
60	100
65	160
66	50
67	1110
68	200
69	600
70	400
71	400
72	8700
73	500
83	100
85	6800
86	800
87	200
99	310
100	3600
101	200
