Mass Spectrum: Borazine, 2,4,6-trimethyl-
Formula: C3 H12 B3 N3
CAS: 5314-85-2
Molecular weight: 123
Origin: CCC 0023
m/z	RELATIVE INTENSITY
2	30
10	30
11	120
12	120
13	360
14	50
15	571
16	10
21	10
22	10
23	10
24	10
25	20
26	90
27	260
28	130
29	20
30	10
31	10
32	10
33	10
34	10
35	20
36	180
37	891
38	1611
39	300
40	901
41	70
42	80
43	10
44	30
45	20
46	10
47	20
48	40
49	100
50	280
51	731
52	1031
53	500
54	861
55	20
56	10
57	10
58	20
59	110
60	400
61	210
62	340
63	390
64	220
65	430
66	130
67	160
68	10
69	10
70	10
71	10
72	10
73	10
74	40
75	110
76	190
77	180
78	290
79	530
80	1061
81	2072
82	70
83	10
84	10
85	10
86	10
87	10
88	20
89	40
90	50
91	60
92	140
93	160
94	60
95	20
96	10
97	10
98	10
99	10
100	10
101	10
102	10
103	10
104	50
105	160
106	230
107	70
108	70
109	10
110	10
112	10
113	10
115	10
116	10
117	20
118	70
119	350
120	2012
121	6846
122	9999
123	2823
124	110
