Mass Spectrum: Acetaldehyde, di-sec-butyl acetal
Formula: C10 H22 O2
CAS: 5314-41-0
Molecular weight: 174
Origin: J.Little, Eastman Chem. Comp.,Kingsport
m/z	RELATIVE INTENSITY
14	30
15	140
27	881
28	1481
29	2682
31	180
32	140
39	450
41	2382
43	1081
44	571
45	9999
46	180
55	410
56	1101
57	8127
58	300
59	741
61	320
72	270
73	230
83	811
89	120
100	100
101	8708
102	571
103	721
145	160
159	390
160	30
