Mass Spectrum: Silane, ethyltrimethoxy-
Formula: C5 H14 O3 Si
CAS: 5314-55-6
Molecular weight: 150
Origin: RADIAN CORP
m/z	RELATIVE INTENSITY
15	160
26	90
27	520
29	480
30	40
33	30
39	10
45	780
46	120
47	350
55	30
58	110
59	1890
60	450
61	1910
62	160
74	30
75	30
76	100
77	80
85	20
87	50
88	70
89	280
91	5770
92	420
93	90
119	550
121	9999
122	880
123	330
