Mass Spectrum: 1-Hydroxypyrene
Formula: C16 H10 O
CAS: 5315-79-7
Molecular weight: 218
Origin: Pu Leung, NIH, Bethseda, MD
m/z	RELATIVE INTENSITY
41	187
42	86
43	185
44	70
45	54
47	296
48	148
49	146
50	269
51	64
52	34
53	65
55	156
56	69
57	120
61	60
62	236
63	466
64	54
65	32
67	76
68	125
69	138
70	56
71	61
72	55
73	87
74	300
75	180
76	72
77	75
81	1013
83	97
84	91
85	107
86	80
87	396
88	171
89	78
94	2014
95	5075
97	69
98	214
99	225
100	218
108	21
109	1328
111	177
112	56
113	87
115	19
121	15
122	96
123	59
128	15
134	55
135	70
137	91
139	68
149	17
150	73
161	173
162	189
163	447
164	148
185	156
186	302
187	1594
188	1026
189	6971
190	1488
191	151
198	39
199	37
200	67
216	35
217	901
218	9999
219	1769
220	170
