Mass Spectrum: Benzene, (1-methyl-1-butenyl)-
Formula: C11 H14
CAS: 53172-84-2
Molecular weight: 146
Origin: NIST Mass Spectrometry Data Center, 1990.
m/z	RELATIVE INTENSITY
14	38
15	248
18	7
26	162
27	1020
28	178
29	227
37	54
38	214
39	1664
40	229
41	798
42	58
50	727
51	1825
52	404
53	827
54	49
55	28
57	120
61	82
62	310
63	909
64	485
65	894
66	111
67	248
68	108
69	50
70	65
71	65
73	26
74	303
75	330
76	425
77	1795
78	739
79	331
85	25
86	79
87	119
88	71
89	422
90	25
91	5561
92	432
98	45
101	108
102	499
103	902
104	264
105	577
106	45
113	51
115	2354
116	1815
117	921
118	254
119	33
126	82
127	466
128	1041
129	1543
130	33
131	9999
132	1075
133	50
145	986
146	3029
147	329
