Mass Spectrum: 1,3,4-Thiadiazol-2-amine, 5-(methylthio)-
Formula: C3 H5 N3 S2
CAS: 5319-77-7
Molecular weight: 147
m/z	RELATIVE INTENSITY
43	2002
45	1201
59	1001
60	2502
73	2803
75	1101
88	901
91	1902
92	200
114	6906
115	200
116	400
147	9999
148	400
149	801
