Mass Spectrum: Benzoyl isothiocyanate
Formula: C8 H5 N O S
CAS: 532-55-8
Molecular weight: 163
Origin: NIST Mass Spectrometry Data Center, 1994
m/z	RELATIVE INTENSITY
12	19
25	33
26	176
27	333
28	59
29	32
32	439
33	14
34	24
36	44
37	330
38	417
39	353
40	14
44	183
45	32
46	26
49	315
50	2301
51	4289
52	222
53	105
54	30
58	1116
59	133
60	76
61	102
62	124
63	111
64	49
65	15
69	31
70	44
73	207
74	731
75	427
76	15
77	7668
78	518
79	13
86	132
87	20
90	14
103	44
105	9999
106	749
107	46
