Mass Spectrum: Butopyronoxyl
Formula: C12 H18 O4
CAS: 532-34-3
Molecular weight: 226
Origin: NIST Mass Spectrometry Data Center, 1998.
m/z	RELATIVE INTENSITY
14	10
15	40
26	50
27	710
28	310
29	1710
30	50
31	50
37	10
38	50
39	1030
40	230
41	3840
42	360
43	560
44	50
45	50
50	40
51	70
52	40
53	430
54	110
55	1000
56	5079
57	6939
58	320
59	90
63	10
65	20
66	20
67	160
68	10
69	9999
70	440
71	130
72	10
73	110
74	10
75	10
77	30
78	10
79	80
80	40
81	60
82	70
83	350
84	50
85	20
86	10
87	230
88	10
95	80
96	750
97	340
98	60
99	20
100	10
101	20
107	30
108	10
109	20
110	10
111	90
112	20
113	10
114	10
115	5619
116	260
117	50
123	100
125	6899
126	560
127	60
128	20
139	10
141	20
142	20
143	10
152	80
153	160
154	20
155	50
169	110
170	40
171	1080
172	100
173	10
180	10
181	10
198	20
208	10
211	290
212	40
226	1220
227	220
228	30
