Mass Spectrum: Benzeneacetonitrile, .alpha.-hydroxy-
Formula: C8 H7 N O
CAS: 532-28-5
Molecular weight: 133
Origin: Japan AIST/NIMC Database- Spectrum MS-NW-4805
m/z	RELATIVE INTENSITY
12	50
13	20
14	20
18	10
25	30
26	549
27	3829
28	129
29	309
30	10
31	10
36	50
37	329
38	389
39	759
40	40
41	10
43	60
44	20
48	30
49	209
50	1729
51	3809
52	1079
53	119
54	139
55	10
56	20
60	40
61	129
62	189
63	339
64	70
65	40
66	20
72	10
73	159
74	579
75	309
76	449
77	9409
78	2019
79	939
80	60
84	10
85	40
86	40
87	40
88	60
89	269
90	70
91	20
92	20
102	10
103	20
104	369
105	9999
106	8869
107	849
108	60
114	50
115	889
116	699
117	70
131	20
132	1119
133	1729
134	159
135	10
