Mass Spectrum: 1-Propanol, 3-[(2-hydroxyethyl)thio]-
Formula: C5 H12 O2 S
CAS: 5323-60-4
Molecular weight: 136
Origin: VERIFINN
m/z	RELATIVE INTENSITY
27	1331
29	1401
31	3883
39	310
41	1101
43	540
45	2342
46	801
47	1431
48	440
49	330
57	1972
58	1932
59	1401
60	1231
61	9999
62	871
72	190
73	350
74	571
75	400
79	200
85	280
87	400
88	230
89	120
90	360
91	350
100	70
105	500
106	240
118	2022
119	130
120	100
136	641
