Mass Spectrum: 3-Ethoxy-2-cyclohexen-1-one
Formula: C8 H12 O2
CAS: 5323-87-5
Molecular weight: 140
Origin: NIST Mass Spectrometry Data Center
m/z	RELATIVE INTENSITY
13	50
14	240
15	581
16	40
26	1161
27	5565
28	1211
29	3493
30	130
31	110
32	10
36	20
37	220
38	711
39	3863
40	2182
41	2602
42	2572
43	4394
44	160
45	250
46	10
49	50
50	250
51	340
52	150
53	430
55	2302
56	881
57	70
58	10
61	30
62	90
63	140
64	50
65	290
66	320
68	5895
69	7577
70	410
71	200
77	10
79	10
81	80
82	140
84	9999
85	611
86	50
93	10
94	30
95	200
97	260
98	10
109	10
112	4254
113	290
114	20
123	10
125	10
138	10
140	4514
141	380
142	30
