Mass Spectrum: 2-Naphthylthioacetonitrile
Formula: C12 H9 N S
CAS: 5324-69-6
Molecular weight: 199
Origin: NIST Mass Spectrometry Data Center, 1994
m/z	RELATIVE INTENSITY
12	48
13	151
18	12
37	69
38	325
39	829
40	1024
46	92
47	35
50	560
51	710
52	100
53	40
57	83
58	89
61	154
62	541
63	1072
64	160
65	439
66	132
69	545
70	92
71	85
72	31
75	653
76	334
77	438
78	31
79	899
81	108
82	186
83	35
84	36
85	119
86	297
87	334
88	309
89	1018
90	81
91	24
92	24
93	303
94	44
95	46
97	24
98	187
100	306
101	187
102	77
105	42
106	83
107	20
108	52
109	21
111	23
113	466
114	962
115	9999
116	1007
117	108
119	44
120	21
121	28
122	28
125	64
126	472
127	470
128	274
129	67
132	57
139	32
153	74
154	66
156	25
159	7943
160	1013
161	451
162	49
166	31
171	169
172	36
196	23
199	4014
200	563
201	229
202	27
