Mass Spectrum: 4-Bromo-3-nitrotoluene
Formula: C7 H6 Br N O2
CAS: 5326-34-1
Molecular weight: 215
Origin: NIST Mass Spectrometry Data Center, 1994
m/z	RELATIVE INTENSITY
15	63
26	148
27	419
28	312
29	63
30	1904
32	5
37	441
38	783
39	2629
40	312
41	126
43	215
44	117
46	468
49	247
50	1532
51	1545
52	454
53	365
61	665
62	1791
63	5052
64	1298
65	579
66	59
73	153
74	633
75	516
76	230
77	2180
78	5030
79	496
80	89
81	149
82	58
84	67
85	250
86	459
87	430
88	58
89	8091
90	9999
91	775
92	112
93	52
104	48
105	296
106	1055
107	133
108	123
116	53
117	277
118	58
119	228
136	252
141	68
143	230
145	165
157	1243
159	1277
160	85
169	1680
170	225
171	1508
172	112
185	651
187	608
188	52
199	66
201	53
215	4419
216	478
217	4343
218	341
