Mass Spectrum: 6-Chloronicotinic acid
Formula: C6 H4 Cl N O2
CAS: 5326-23-8
Molecular weight: 157
Origin: NIST Mass Spectrometry Data Center, 1992
m/z	RELATIVE INTENSITY
17	55
18	89
25	204
26	374
28	120
29	219
30	170
35	159
36	171
37	516
38	626
39	521
40	77
41	57
42	101
44	203
45	1326
46	98
47	135
48	158
49	929
50	3466
51	2341
52	751
53	572
56	166
57	92
60	227
61	198
62	384
63	236
64	174
65	182
66	319
67	189
70	114
71	108
72	69
73	242
74	442
75	1200
76	2605
77	708
78	1228
79	155
83	89
84	276
85	1363
86	208
87	524
88	140
90	74
91	123
94	424
95	147
99	267
100	159
101	160
102	44
104	74
105	138
109	73
111	1123
112	4100
113	533
114	1143
115	96
122	519
125	72
126	87
127	102
128	167
129	264
130	70
135	117
139	6862
140	5873
141	2739
142	1993
143	148
150	119
151	165
152	316
153	169
155	61
157	9999
158	854
159	2991
160	267
