Mass Spectrum: n-Butyro-morpholine
Formula: C8 H15 N O2
CAS: 5327-51-5
Molecular weight: 157
Origin: Zaikin V.G., TIPS RAS, Moscow, Russia
m/z	RELATIVE INTENSITY
26	260
27	1902
28	420
29	1051
30	821
31	150
36	110
38	60
39	731
40	180
41	2352
42	2622
43	7237
44	1001
45	310
52	30
53	40
54	360
55	1351
56	5315
57	9999
58	891
59	230
60	60
67	30
68	120
69	550
70	2522
71	4164
72	1161
73	80
83	40
84	190
85	460
86	8518
87	4184
88	1261
89	50
98	490
99	891
100	410
101	180
110	30
112	891
113	90
114	1892
115	190
126	190
127	100
128	360
129	6536
130	450
131	30
142	1832
143	140
156	160
157	6576
158	641
159	40
