Mass Spectrum: Hydrazine, (2,4,6-trichlorophenyl)-
Formula: C6 H5 Cl3 N2
CAS: 5329-12-4
Molecular weight: 210
Origin: Japan AIST/NIMC Database- Spectrum MS-IW-3891
m/z	RELATIVE INTENSITY
16	50
25	10
26	20
27	30
28	259
29	459
30	129
31	409
35	50
36	259
37	409
38	189
39	40
40	30
41	10
42	10
43	40
44	50
47	159
48	119
49	239
50	409
51	249
52	399
53	30
54	40
55	90
56	50
57	50
58	10
60	179
61	639
62	639
63	169
64	99
65	30
66	30
67	20
69	119
70	70
71	119
72	329
73	649
74	1359
75	1009
76	379
77	70
78	90
79	139
80	99
81	10
82	10
83	269
84	419
85	399
86	279
87	359
88	539
89	99
90	20
94	10
95	70
96	209
97	719
98	329
99	259
100	80
101	60
103	90
104	10
105	229
106	239
107	539
108	369
109	1509
110	669
111	749
112	429
113	139
114	90
115	10
117	10
118	30
119	60
120	40
121	80
122	119
123	109
124	319
125	60
126	90
127	10
130	10
131	179
132	109
133	369
134	90
135	179
136	30
137	70
138	10
139	99
140	20
141	30
142	10
143	169
144	219
145	879
146	399
147	549
148	299
149	109
150	109
151	10
152	10
158	999
159	759
160	699
161	499
162	149
163	80
167	3339
168	189
169	3209
170	169
171	999
172	50
173	179
174	20
175	179
176	20
177	90
178	10
179	90
180	249
181	129
182	259
183	80
184	80
185	20
186	10
193	179
194	9999
195	1589
196	9649
197	1389
198	3119
199	429
200	349
201	50
207	10
208	10
209	169
210	8359
211	759
212	7929
213	639
214	2559
215	189
216	279
217	10
