Mass Spectrum: 2-Hexanamine
Formula: C6 H15 N
CAS: 5329-79-3
Molecular weight: 101
Origin: CARL DJERASSI DEPT OF CHEM STANFORD UNIV STANFORD CALIF 94305
m/z	RELATIVE INTENSITY
15	100
17	100
27	300
28	300
29	200
30	800
31	100
41	600
42	400
43	300
44	9999
45	300
55	100
56	200
57	100
58	700
59	100
69	100
70	100
71	100
72	100
83	100
84	100
86	500
87	100
98	100
100	100
101	100
