Mass Spectrum: Hexadecanoic acid, 9,10,16-trihydroxy-, (R*,S*)-(.+/-.)-
Formula: C16 H32 O5
CAS: 533-87-9
Molecular weight: 304
Origin: RADIAN CORP
m/z	RELATIVE INTENSITY
27	50
28	30
29	120
30	10
31	240
39	170
40	80
41	1150
42	330
43	930
44	440
45	470
46	10
47	20
51	20
53	250
54	290
55	2340
56	520
57	2140
58	240
59	270
60	540
61	70
62	20
64	10
65	80
66	20
67	1550
68	930
69	1850
70	430
71	600
72	150
73	710
74	90
75	20
77	80
78	50
79	340
80	210
81	1080
82	500
83	870
84	560
85	460
86	110
87	170
88	40
89	10
91	140
93	490
94	20
95	4400
96	770
97	570
98	280
99	160
100	90
101	160
102	30
105	60
106	10
107	200
109	1310
110	390
111	370
112	370
113	1290
114	190
115	80
116	20
117	20
119	110
120	120
121	120
122	50
123	110
124	70
125	180
126	110
127	130
128	30
129	60
131	3490
132	480
133	100
135	70
136	80
137	160
138	360
139	160
140	50
141	40
142	20
143	130
144	100
145	20
147	10
149	60
155	9999
156	1250
157	250
158	40
159	20
161	20
167	60
168	50
169	20
171	80
173	830
174	290
175	90
181	40
182	20
183	30
185	210
186	40
