Mass Spectrum: 1,2,4-Benzenetriol
Formula: C6 H6 O3
CAS: 533-73-3
Molecular weight: 126
Origin: Japan AIST/NIMC Database- Spectrum MS-NW-1556
m/z	RELATIVE INTENSITY
13	10
14	70
15	90
17	20
18	70
25	70
26	359
27	399
28	129
29	419
30	20
31	50
32	10
34	30
36	30
37	179
38	259
39	689
40	129
41	399
42	579
43	399
44	30
45	30
48	60
49	139
50	489
51	1199
52	4129
53	959
54	389
55	709
56	129
57	50
58	10
60	20
61	70
62	99
63	529
64	10
65	20
66	80
67	60
68	159
69	569
70	159
71	179
72	10
77	60
78	30
79	539
80	2899
81	229
82	60
83	10
84	40
85	10
95	30
96	50
97	1049
98	90
107	179
108	389
109	30
124	60
125	609
126	9999
127	649
128	80
