Mass Spectrum: Butane, 1,2-dibromo-
Formula: C4 H8 Br2
CAS: 533-98-2
Molecular weight: 214
Origin: Japan AIST/NIMC Database- Spectrum MS-NW-4359
m/z	RELATIVE INTENSITY
14	20
15	80
25	40
26	409
27	2129
28	299
29	2609
30	60
36	20
37	109
38	219
39	1809
40	149
41	1439
42	60
49	70
50	219
51	269
52	99
53	779
54	159
55	9999
56	699
57	20
79	119
80	109
81	119
82	119
83	10
91	10
92	10
93	209
94	10
95	189
104	20
105	159
106	169
107	579
108	179
109	409
110	10
117	40
119	159
120	10
121	139
122	10
123	10
127	10
128	20
133	60
134	30
135	6719
136	339
137	6519
138	329
139	10
160	10
173	10
185	30
186	10
187	50
189	30
213	20
214	30
215	50
216	60
217	30
218	30
