Mass Spectrum: Acetic acid, (2,4-dichlorophenoxy)-, ethyl ester
Formula: C10 H10 Cl2 O3
CAS: 533-23-3
Molecular weight: 248
Origin: J.E. WILKINSON S-CUBED, SAN DIEGO, CA.
m/z	RELATIVE INTENSITY
45	872
46	11
47	65
48	7
49	264
50	1263
51	605
52	36
53	181
54	2
55	180
56	52
57	74
59	6920
60	280
61	580
62	1171
63	3311
64	164
65	161
66	8
69	17
70	11
71	42
72	395
73	1853
74	2771
75	3803
76	327
77	633
78	23
79	23
83	350
84	625
85	792
86	290
87	2600
88	360
89	54
90	2
91	88
92	3
93	22
94	11
95	8
96	38
97	550
98	802
99	464
100	241
101	70
102	10
103	65
104	2
105	32
106	13
107	293
108	105
109	4346
110	1164
111	5633
112	1324
113	1583
114	285
115	95
117	2
119	40
120	2
121	20
123	2
125	6
126	417
127	113
128	298
129	45
130	23
131	3
132	7
133	1879
134	113
135	1185
136	33
137	142
138	3
139	290
140	82
141	471
142	30
143	238
144	96
145	4961
146	519
147	4327
148	351
149	1247
150	65
151	76
154	6
155	60
156	33
157	42
158	6
159	101
160	15
161	1788
162	3900
163	1350
164	2429
165	296
166	349
167	13
169	39
171	5
173	82
174	21
175	9999
176	969
177	6261
178	531
179	994
180	42
184	138
185	6202
186	566
187	2015
188	129
189	8
190	6
191	1
192	1
205	8
207	2
212	49
213	2079
214	213
215	644
216	28
220	51
222	21
248	4987
249	539
250	3172
251	306
252	487
253	19
