Mass Spectrum: 1,3-Benzodioxol-5-ol
Formula: C7 H6 O3
CAS: 533-31-3
Molecular weight: 138
Origin: Japan AIST/NIMC Database- Spectrum MS-NW-7658
m/z	RELATIVE INTENSITY
18	40
25	30
26	239
27	239
28	329
29	259
30	50
31	40
32	20
34	60
37	80
38	189
39	329
40	70
41	119
42	189
43	60
44	20
45	10
48	10
49	50
50	509
51	1079
52	2309
53	1079
54	279
55	329
56	30
61	60
62	229
63	159
64	40
65	129
66	60
67	40
68	239
69	1049
70	60
71	10
77	50
78	40
79	519
80	1269
81	509
82	269
83	20
84	30
91	20
92	80
93	30
94	20
95	40
96	70
97	40
107	439
108	289
109	129
110	50
120	10
121	20
123	10
135	10
136	40
137	6799
138	9999
139	839
140	99
141	10
