Mass Spectrum: 5H-1-Pyrindine, 6,7-dihydro-
Formula: C8 H9 N
CAS: 533-37-9
Molecular weight: 119
Origin: Japan AIST/NIMC Database- Spectrum MS-NW-8384
m/z	RELATIVE INTENSITY
15	20
26	90
27	289
28	179
29	10
37	109
38	309
39	1199
40	189
41	199
42	30
43	30
44	10
45	30
46	40
49	20
50	269
51	569
52	339
53	139
54	90
57	20
58	509
59	109
61	90
62	239
63	779
64	519
65	679
66	239
67	50
73	10
74	50
75	60
76	70
77	279
78	209
79	129
80	30
85	10
86	20
87	30
88	30
89	359
90	369
91	1619
92	389
93	249
94	10
102	10
103	10
104	199
105	40
116	109
117	1539
118	9999
119	7129
120	669
121	30
