Mass Spectrum: 2,4,6-Cycloheptatrien-1-one, 2-hydroxy-
Formula: C7 H6 O2
CAS: 533-75-5
Molecular weight: 122
Origin: CARL DJERASSI DEPT OF CHEM STANFORD UNIV STANFORD CALIF 94305
m/z	RELATIVE INTENSITY
49	100
50	500
51	600
52	200
53	300
55	500
61	400
62	200
63	500
64	200
65	1200
66	1400
67	100
68	200
74	100
75	100
76	100
77	100
79	100
93	100
94	2200
95	200
122	9999
123	900
124	100
