Mass Spectrum: Butanoic acid, 2-bromo-, ethyl ester
Formula: C6 H11 Br O2
CAS: 533-68-6
Molecular weight: 194
Origin: RADIAN CORP
m/z	RELATIVE INTENSITY
13	10
14	70
16	10
28	16
31	80
32	10
36	90
37	110
38	100
39	950
40	170
41	5210
42	610
43	1590
44	160
45	680
46	10
47	350
48	160
55	1870
56	90
57	120
59	220
68	150
69	1350
70	370
71	250
73	710
77	50
80	40
82	100
87	2810
88	580
92	20
93	360
94	90
95	280
99	140
101	180
105	100
106	70
107	290
108	20
109	180
111	30
115	5750
116	390
117	10
119	180
120	1530
121	9997
122	2130
123	9999
124	510
125	10
133	110
135	240
137	30
138	1790
139	70
140	1680
141	10
148	80
149	1750
150	140
151	1770
152	140
153	60
166	8640
167	630
168	8650
169	600
170	10
179	150
181	40
194	260
195	17
196	255
197	17
