Mass Spectrum: 1-Undecanethiol
Formula: C11 H24 S
CAS: 5332-52-5
Molecular weight: 188
Origin: Japan AIST/NIMC Database- Spectrum MS-IW-7202
m/z	RELATIVE INTENSITY
14	10
15	30
26	80
27	1799
28	459
29	3549
30	80
31	30
32	80
33	60
34	169
35	259
36	10
37	20
38	30
39	1419
40	269
41	8009
42	3309
43	9019
44	379
45	489
46	199
47	2399
48	99
49	109
50	30
51	70
52	40
53	579
54	1069
55	9999
56	9449
57	7689
58	339
59	219
60	549
61	1789
62	129
63	90
64	10
65	99
66	139
67	1549
68	3889
69	9979
70	9769
71	2999
72	149
73	139
74	80
75	119
76	50
77	60
78	10
79	119
80	30
81	499
82	3779
83	9449
84	7619
85	1709
86	90
87	279
88	369
89	2569
90	149
91	139
92	20
93	20
94	10
95	119
96	1869
97	7549
98	3679
99	379
100	20
101	99
102	20
103	309
104	20
105	20
109	30
110	449
111	3039
112	1659
113	169
114	10
115	30
117	40
123	10
124	269
125	1739
126	2559
127	259
128	10
129	10
131	10
135	10
137	10
139	30
143	10
145	10
146	10
152	10
154	3979
155	489
156	30
159	10
186	20
187	409
188	4849
189	709
190	259
191	30
