Mass Spectrum: Quinoline, 6-bromo-
Formula: C9 H6 Br N
CAS: 5332-25-2
Molecular weight: 207
Origin: Japan AIST/NIMC Database- Spectrum MS-NW-6112
m/z	RELATIVE INTENSITY
25	10
26	129
27	149
28	139
29	10
36	30
37	249
38	379
39	279
40	40
41	40
42	10
43	20
44	40
45	40
46	10
48	20
49	249
50	1819
51	1329
52	269
53	50
54	60
55	10
56	10
57	10
58	10
60	40
61	259
62	499
63	529
64	1499
65	219
66	20
69	10
72	20
73	199
74	1229
75	1849
76	539
77	1219
78	189
79	50
80	70
81	50
82	70
84	30
85	60
86	109
87	129
88	99
89	40
90	439
91	459
92	159
93	10
96	10
97	60
98	269
99	469
100	709
101	2499
102	1019
103	479
104	479
105	50
106	10
107	10
110	10
112	10
113	20
114	20
115	10
116	10
117	30
118	10
119	30
123	30
124	20
125	10
126	90
127	739
128	7799
129	859
130	50
131	10
141	10
142	50
143	99
144	10
145	10
153	10
154	40
155	20
156	40
157	10
158	10
167	30
169	10
171	259
172	20
173	249
174	20
179	50
180	159
181	109
182	159
183	50
184	10
206	149
207	9999
208	1139
209	9819
210	1009
211	50
