Mass Spectrum: Quinoline, 3-bromo-
Formula: C9 H6 Br N
CAS: 5332-24-1
Molecular weight: 207
Origin: RADIAN CORP
m/z	RELATIVE INTENSITY
26	40
27	50
36	10
37	170
38	250
39	200
40	20
49	260
50	1120
51	960
52	210
53	20
60	60
61	380
62	620
63	600
64	700
73	330
74	1540
75	2450
76	700
77	590
78	110
79	100
80	30
81	90
82	30
84	20
85	70
86	140
87	180
88	110
89	80
90	640
91	640
93	10
97	90
98	370
99	540
100	940
101	4590
102	670
103	270
104	230
106	40
117	40
118	10
119	30
123	40
127	1070
128	9050
129	910
130	90
131	30
141	40
142	10
143	40
152	20
153	20
154	20
155	20
179	20
180	10
181	20
207	9999
208	1430
209	9620
210	1080
211	20
