Mass Spectrum: Ethyl .alpha.-bromoheptanoate
Formula: C9 H17 Br O2
CAS: 5333-88-0
Molecular weight: 236
Origin: NIST Mass Spectrometry Data Center, 1994
m/z	RELATIVE INTENSITY
14	80
15	440
19	32
26	695
27	5349
28	1383
29	9999
30	302
31	186
37	36
39	2546
40	628
41	5387
42	854
43	3268
44	165
45	604
50	107
51	196
52	121
53	710
54	36
55	7802
56	1107
57	988
58	78
59	78
60	109
61	44
63	28
65	66
66	53
67	284
68	447
69	753
70	161
71	295
72	28
73	2566
74	114
77	46
79	150
80	74
81	389
82	46
83	2731
84	341
85	198
86	120
87	268
88	126
93	53
94	28
95	99
97	41
99	337
101	828
102	91
106	299
107	183
108	303
109	191
110	28
111	415
112	51
113	67
114	41
115	506
116	50
119	69
120	131
121	281
122	132
123	244
127	70
129	1933
130	153
133	53
135	102
138	1214
140	1131
141	45
151	80
153	64
157	2088
158	236
159	24
166	2498
168	2482
169	111
179	85
181	75
191	112
193	108
221	29
236	26
