Mass Spectrum: 2,5-Cyclohexadiene-1,4-dione, 2,5-bis(4-methoxyphenyl)-
Formula: C20 H16 O4
CAS: 5333-03-9
Molecular weight: 320
m/z	RELATIVE INTENSITY
39	400
43	500
45	600
51	400
60	500
62	400
63	1200
74	200
75	400
76	300
77	200
88	300
89	3700
90	300
94	200
101	300
102	500
103	200
116	300
117	2700
118	300
132	9999
133	900
135	300
138	200
146	300
160	500
161	200
178	300
188	200
189	400
205	200
206	200
213	200
218	300
221	400
233	200
234	200
249	1100
250	200
258	200
261	1400
262	400
263	200
264	700
277	1700
278	400
289	4100
290	900
291	900
292	1200
293	200
305	800
320	9599
321	2200
322	1600
323	300
