Mass Spectrum: 3-Isopropyl-4-methyl-1-pentyn-3-ol
Formula: C9 H16 O
CAS: 5333-87-9
Molecular weight: 140
Origin: NIST Mass Spectrometry Data Center, 1994
m/z	RELATIVE INTENSITY
12	10
14	27
15	339
17	6
18	25
19	12
24	3
25	31
26	199
27	2201
28	267
29	435
30	20
36	2
37	55
38	186
39	1826
40	275
41	4018
42	2
43	9999
44	331
45	56
46	3
47	3
50	156
51	415
52	155
53	1191
54	235
55	1149
56	123
57	142
58	13
61	16
62	80
63	160
64	67
65	185
66	66
67	270
68	58
69	765
70	128
71	248
72	37
75	10
77	424
78	78
79	517
80	84
81	434
82	115
83	384
84	33
85	23
86	18
87	2
89	4
91	148
92	22
93	38
94	12
95	80
96	452
97	3517
98	250
99	19
100	2
103	4
105	32
107	106
108	12
109	18
110	8
111	27
112	3
114	6
118	1
121	4
122	9
123	5
125	83
126	8
140	2
