Mass Spectrum: 4-Amino-1-phenylpyrazolo(3,4-e)pyrimidine
Formula: C11 H9 N5
CAS: 5334-30-5
Molecular weight: 211
Origin: NIST Mass Spectrometry Data Center, 1994
m/z	RELATIVE INTENSITY
17	96
38	370
39	579
40	85
50	455
51	1436
52	653
53	201
63	274
64	338
65	325
66	544
76	75
77	1839
78	357
91	356
92	135
103	245
104	396
115	88
118	95
119	84
129	476
142	188
155	109
156	891
157	937
158	118
183	1751
184	1262
185	80
195	541
210	1286
211	9999
212	1462
