Mass Spectrum: Allopurinol di-methyl derivative
Formula: C7 H8 N4 O
CAS: 5334-54-3
Molecular weight: 164
Origin: Association of Official Racing Chemists
m/z	RELATIVE INTENSITY
48	645
50	589
51	1284
52	1631
53	943
55	90
67	1136
68	1050
69	982
80	1028
81	1262
82	1115
109	1481
122	978
136	1925
163	4346
164	9999
165	1335
