Mass Spectrum: [1,1'-Biphenyl]-2-ol, 3,5-dichloro-
Formula: C12 H8 Cl2 O
CAS: 5335-24-0
Molecular weight: 238
Origin: EP-1373
m/z	RELATIVE INTENSITY
61	100
62	300
63	400
107	90
109	90
110	100
111	130
112	90
113	350
114	210
115	150
137	250
138	400
139	3280
140	650
141	100
147	100
149	380
150	100
151	150
166	120
167	1080
168	120
170	337
183	120
185	90
186	80
201	100
202	1510
203	550
204	700
205	200
206	90
236	140
237	1110
238	9999
239	2030
240	6400
241	1000
242	1090
243	150
