Mass Spectrum: Disulfide, bis(4-methoxyphenyl)
Formula: C14 H14 O2 S2
CAS: 5335-87-5
Molecular weight: 278
Origin: MUS28 A. Mujsce, AT&T Bell Labs., Murray Hill, N.J., USA
m/z	RELATIVE INTENSITY
27	39
28	109
29	33
32	52
38	80
39	145
40	34
41	153
45	371
47	45
50	87
51	150
52	144
53	114
55	78
57	40
58	76
62	83
63	259
65	296
67	197
68	30
69	572
70	767
71	131
77	374
78	124
82	130
85	85
92	95
95	1431
96	1453
97	188
98	256
99	35
108	117
109	187
110	51
111	139
122	27
123	90
124	964
125	191
137	54
139	9999
140	935
141	532
153	85
278	5942
279	1033
280	635
281	92
