Mass Spectrum: D-(+)-Ribonic acid .gamma.-lactone
Formula: C5 H8 O5
CAS: 5336-08-3
Molecular weight: 148
Origin: Japan AIST/NIMC Database- Spectrum MS-NW-6900
m/z	RELATIVE INTENSITY
12	20
13	50
14	329
15	1719
16	30
17	109
18	469
19	259
25	50
26	389
27	1569
28	829
29	3729
30	1319
31	4039
32	249
33	50
36	10
37	60
38	99
39	589
40	679
41	379
42	2589
43	5489
44	1519
45	1529
46	60
47	399
48	10
49	50
50	30
51	30
52	10
53	109
54	239
55	2689
56	1309
57	4919
58	3739
59	349
60	6259
61	6119
62	219
63	40
65	10
66	10
67	20
68	629
69	189
70	40
71	1279
72	679
73	9999
74	789
75	90
76	1129
77	80
78	10
79	10
81	10
82	10
83	30
84	149
85	249
86	1099
87	149
88	149
89	839
90	60
91	1299
92	50
93	10
94	10
95	20
96	40
97	20
99	10
100	109
101	50
102	129
103	40
105	70
110	10
111	10
112	40
113	20
117	80
118	50
119	60
120	10
128	10
129	20
130	119
131	10
148	40
149	40
