Mass Spectrum: N,N,2,2-Tetramethyl-1,3-propanediamine
Formula: C7 H18 N2
CAS: 53369-71-4
Molecular weight: 130
Origin: Japan AIST/NIMC Database- Spectrum MS-IW- 974
m/z	RELATIVE INTENSITY
15	50
27	50
28	129
29	109
30	619
31	10
39	50
40	10
41	119
42	339
43	109
44	359
45	139
46	209
53	10
54	10
55	90
56	129
57	99
58	9999
59	449
60	30
68	20
69	10
70	209
71	80
72	20
73	20
74	10
82	10
84	70
85	339
86	119
98	50
99	20
100	70
113	149
114	10
126	10
127	10
130	299
131	30
