Mass Spectrum: Cyclopentane, (2-methylbutyl)-
Formula: C10 H20
CAS: 53366-38-4
Molecular weight: 140
Origin: D.HENNEBERG, MAX-PLANCK INSTITUTE, MULHEIM, WEST GERMANY
m/z	RELATIVE INTENSITY
27	1500
28	700
29	3000
39	1500
40	300
41	7000
42	1040
43	2220
44	200
53	500
54	500
55	7000
56	4200
57	3300
58	120
66	210
67	1900
68	2200
69	9999
70	3800
71	1200
72	20
81	200
82	2100
83	4000
84	600
97	200
98	100
110	400
111	4400
112	400
125	100
140	200
