Mass Spectrum: Cyclopentene, 1-(2-methylbutyl)-
Formula: C10 H18
CAS: 53366-53-3
Molecular weight: 138
Origin: D.HENNEBERG, MAX-PLANCK INSTITUTE, MULHEIM, WEST GERMANY
m/z	RELATIVE INTENSITY
27	1200
28	900
29	2800
39	1400
40	210
41	3900
42	300
43	500
51	200
52	100
53	900
54	400
55	1100
56	1200
57	3100
65	300
66	500
67	9999
68	800
69	100
70	300
71	300
77	500
79	1100
80	700
81	2900
82	5200
83	2300
109	1100
138	1500
