Mass Spectrum: Cyclopentane, (2-methylpropylidene)-
Formula: C9 H16
CAS: 53366-58-8
Molecular weight: 124
Origin: D.HENNEBERG, MAX-PLANCK INSTITUTE, MULHEIM, WEST GERMANY
m/z	RELATIVE INTENSITY
26	100
27	2300
29	1100
37	100
38	200
39	2860
40	600
41	4860
42	300
43	1400
44	100
50	200
51	800
52	300
53	1400
54	400
55	3100
56	900
57	1150
58	100
62	100
63	250
64	50
65	600
66	840
67	9999
68	2450
69	600
70	100
77	900
78	200
79	1150
80	600
81	3700
82	1550
83	200
91	330
92	100
93	300
94	100
95	1900
96	270
105	100
107	140
108	50
109	4160
110	320
111	50
123	30
124	1790
125	200
