Mass Spectrum: Boric acid, trihexyl ester
Formula: C18 H39 B O3
CAS: 5337-36-0
Molecular weight: 314
Origin: RADIAN CORP
m/z	RELATIVE INTENSITY
26	20
27	240
29	870
39	200
40	40
41	1810
42	610
43	5790
44	270
45	260
52	10
53	130
54	130
55	2640
56	2020
57	1380
58	120
59	140
63	10
65	30
67	300
68	90
69	1070
70	90
71	170
72	50
73	40
74	20
75	60
76	20
77	120
79	30
81	90
82	220
83	3400
84	1660
85	9999
86	820
87	750
88	50
89	90
90	10
91	20
95	30
97	90
98	70
99	120
100	70
101	230
102	30
103	60
111	110
112	30
113	80
114	30
115	110
116	20
117	40
127	30
128	220
129	790
130	50
131	40
140	20
141	20
143	30
144	80
145	300
146	290
147	1030
148	70
158	60
159	250
160	30
161	50
168	20
169	60
171	20
173	20
175	10
185	60
199	20
212	70
213	280
214	40
215	20
228	50
229	220
230	130
231	370
232	50
242	20
243	110
257	50
285	40
313	20
