Mass Spectrum: Cyclohexanol, 2,6-dimethyl-
Formula: C8 H16 O
CAS: 5337-72-4
Molecular weight: 128
Origin: Japan AIST/NIMC Database- Spectrum MS-NW-8950
m/z	RELATIVE INTENSITY
15	30
18	30
26	20
27	649
28	269
29	1079
30	159
31	359
32	10
38	10
39	759
40	169
41	2399
42	569
43	2129
44	209
45	519
46	10
50	10
51	50
52	30
53	419
54	449
55	3239
56	1139
57	2829
58	3549
59	219
60	10
65	90
66	50
67	1079
68	5809
69	1069
70	249
71	9999
72	1039
73	129
77	80
78	10
79	159
80	70
81	2279
82	389
83	179
84	80
85	999
86	849
87	50
91	40
93	70
94	20
95	3949
96	359
97	619
98	90
99	229
100	30
109	249
110	2189
111	469
112	30
113	70
127	40
128	3369
129	299
130	10
