Mass Spectrum: Hexanoic acid, 2-hexenyl ester, (E)-
Formula: C12 H22 O2
CAS: 53398-86-0
Molecular weight: 198
Origin: Japan AIST/NIMC Database- Spectrum MS-NW-3472
m/z	RELATIVE INTENSITY
14	20
15	90
17	20
18	139
25	10
26	139
27	1549
28	359
29	1599
30	50
31	119
32	40
36	10
37	40
38	99
39	1299
40	249
41	3719
42	829
43	5409
44	229
45	199
46	10
47	10
49	10
50	70
51	139
52	90
53	499
54	929
55	3779
56	849
57	1039
58	99
59	70
60	1209
61	209
62	30
63	30
64	10
65	119
66	70
67	2599
68	249
69	719
70	259
71	4449
72	299
73	699
74	119
75	50
76	10
77	60
78	30
79	129
80	80
81	469
82	2369
83	1849
84	399
85	199
86	40
87	269
88	30
89	90
90	10
91	30
92	20
94	10
95	40
96	70
97	469
98	299
99	9999
100	939
101	109
102	20
103	10
105	10
107	10
109	30
110	20
111	20
112	10
113	40
114	159
115	109
116	99
117	589
118	50
119	10
121	10
123	20
124	10
125	10
126	10
127	99
128	30
129	20
137	10
138	20
139	10
141	30
142	70
143	20
144	10
150	20
151	10
154	10
155	119
156	60
157	20
159	10
169	209
170	40
171	30
172	10
173	10
183	20
197	10
198	169
199	30
