Mass Spectrum: 2-Hexenoic acid, 3-hexenyl ester, (E,Z)-
Formula: C12 H20 O2
CAS: 53398-87-1
Molecular weight: 196
m/z	RELATIVE INTENSITY
26	120
27	731
29	691
39	891
40	260
41	2542
42	340
43	260
44	220
52	500
53	470
54	4824
55	260
56	190
67	6836
68	781
69	571
73	240
79	180
81	500
82	9999
83	721
97	4094
115	701
