Mass Spectrum: Benzeneethanol, 2-amino-
Formula: C8 H11 N O
CAS: 5339-85-5
Molecular weight: 137
Origin: RADIAN CORP
m/z	RELATIVE INTENSITY
18	20
26	30
27	110
29	100
30	170
31	170
37	40
38	100
39	350
40	20
41	80
42	40
43	30
50	190
51	330
52	300
53	220
54	90
59	80
61	50
62	120
63	310
64	110
65	350
66	140
67	40
74	60
75	60
76	70
77	1640
78	490
79	1120
80	170
87	20
88	20
89	440
90	410
91	450
92	90
93	160
94	10
102	20
103	20
104	210
105	50
106	9999
107	1260
108	70
116	70
117	810
118	620
119	240
120	40
130	20
137	2950
138	260
