Mass Spectrum: 1,2-Benzenediamine, N-phenyl-
Formula: C12 H12 N2
CAS: 534-85-0
Molecular weight: 184
Origin: Japan AIST/NIMC Database- Spectrum MS-NW-6882
m/z	RELATIVE INTENSITY
26	20
27	159
28	209
29	10
30	20
37	20
38	99
39	439
40	50
41	90
42	40
50	189
51	609
52	369
53	349
54	109
61	20
62	50
63	189
64	149
65	559
66	259
67	30
69	10
70	30
74	50
75	50
76	80
77	549
78	269
79	259
80	909
81	159
82	10
83	259
84	80
88	10
89	40
90	99
91	699
92	569
93	169
94	10
101	20
102	30
103	40
104	90
105	109
106	90
107	569
108	50
113	10
114	20
115	60
116	20
117	149
118	409
119	179
120	10
127	70
128	99
129	90
130	70
131	30
132	70
139	90
140	80
141	30
142	10
143	60
144	10
145	20
153	10
154	119
155	60
156	259
157	149
158	159
159	20
164	10
165	10
166	319
167	319
168	269
169	2429
170	319
171	20
179	10
180	20
181	539
182	1129
183	3229
184	9999
185	1389
186	80
