Mass Spectrum: Thiourea, N,N'-dimethyl-
Formula: C3 H8 N2 S
CAS: 534-13-4
Molecular weight: 104
Origin: NIST Mass Spectrometry Data Center, 2011
m/z	RELATIVE INTENSITY
15	170
27	80
28	891
29	150
30	2552
31	170
32	180
33	50
34	20
38	50
39	50
40	150
41	180
42	1281
43	80
44	520
45	601
46	200
47	681
48	40
49	30
51	70
52	20
53	80
55	390
56	110
57	1311
58	80
59	691
60	1531
61	100
62	340
63	10
64	10
67	10
70	190
71	2242
72	621
73	470
74	4034
75	440
76	220
87	10
89	20
104	9999
105	480
106	470
107	10
