Mass Spectrum: 2,2-Dimethyl-3-octanone
Formula: C10 H20 O
CAS: 5340-64-7
Molecular weight: 156
Origin: NIST Mass Spectrometry Data Center, 1990.
m/z	RELATIVE INTENSITY
15	150
26	148
27	1741
28	1120
29	3343
39	1869
41	5674
42	1511
43	6749
44	275
53	258
55	1041
56	1099
57	9999
58	456
67	139
69	245
71	5331
72	331
81	144
83	125
85	773
98	1093
99	7834
100	736
156	244
