Mass Spectrum: Pentane, 2,2,4-trimethyl-4-nitro-
Formula: C8 H17 N O2
CAS: 5342-78-9
Molecular weight: 159
Origin: CARL DJERASSI DEPT OF CHEM STANFORD UNIV STANFORD CALIF 94305
m/z	RELATIVE INTENSITY
15	303
16	101
17	505
18	222
26	101
27	1515
28	3434
29	2727
30	4646
32	1818
38	101
39	2020
40	404
41	5656
42	404
43	606
44	141
50	101
51	202
52	101
53	606
54	202
55	3838
56	2020
57	9999
58	404
59	101
65	202
66	101
67	303
68	101
69	1212
70	202
75	101
77	202
78	101
79	101
81	303
82	101
83	101
95	101
96	101
97	2727
98	202
112	1313
113	202
