Mass Spectrum: 2-Butanol, 3-methyl-, acetate
Formula: C7 H14 O2
CAS: 5343-96-4
Molecular weight: 130
Origin: NIST Mass Spectrometry Data Center
m/z	RELATIVE INTENSITY
14	80
15	581
16	20
17	10
19	10
26	80
27	831
28	200
29	520
30	10
31	40
37	20
38	50
39	711
40	100
41	1001
42	571
43	9999
44	310
45	370
46	10
50	40
51	50
52	20
53	140
54	50
55	1011
56	80
57	30
58	10
59	10
60	10
61	70
62	10
63	10
65	10
67	20
68	10
69	110
70	1231
71	540
72	50
73	170
74	10
86	601
87	2622
88	120
89	10
115	220
116	10
130	10
