Mass Spectrum: 2-Furanmethanamine, tetrahydro-N-[(tetrahydro-2-furanyl)methyl]-
Formula: C10 H19 N O2
CAS: 5343-16-8
Molecular weight: 185
Origin: V.G.Zaikin, TIPS, Russian Acad. Sci.
m/z	RELATIVE INTENSITY
36	170
37	60
38	170
39	1181
40	330
41	3533
42	2472
43	6045
44	1771
45	1040
46	80
50	60
51	120
52	60
53	310
54	290
55	1551
56	890
57	1131
58	860
59	150
66	730
67	530
69	450
70	4654
71	2021
72	340
79	110
80	110
81	220
82	220
83	750
84	1351
85	1090
86	270
87	110
88	60
89	150
94	110
95	130
96	360
97	170
98	630
99	150
100	140
101	520
102	110
109	110
110	60
111	110
112	260
113	280
114	9999
115	1060
116	80
140	70
141	20
142	290
143	20
155	100
156	90
157	10
184	50
185	210
186	30
