Mass Spectrum: .alpha.-D-Cellobiose octaacetate
Formula: C28 H38 O19
CAS: 5346-90-7
Molecular weight: 678
Origin: Japan AIST/NIMC Database- Spectrum MS-NW-9210
m/z	RELATIVE INTENSITY
14	30
15	129
16	10
17	10
18	30
26	10
27	30
28	109
29	50
31	10
39	30
40	10
41	70
42	139
43	9999
44	279
45	199
51	10
52	20
53	60
54	40
55	80
56	20
57	60
58	10
60	199
61	119
62	10
65	10
66	10
67	10
68	50
69	529
70	339
71	119
72	10
73	249
74	20
79	10
80	139
81	1909
82	239
83	90
84	50
85	399
86	129
87	40
89	20
94	20
95	20
96	50
97	849
98	979
99	329
100	30
101	80
102	299
103	649
104	30
108	10
109	3239
110	399
111	159
112	919
113	179
114	90
115	879
116	119
117	20
122	10
123	30
124	10
125	99
126	209
127	1209
128	159
129	60
130	10
131	40
135	10
138	10
139	599
140	709
141	549
142	99
143	129
144	249
145	819
146	60
147	10
151	30
152	139
153	99
154	10
155	129
156	30
157	719
158	189
159	30
161	10
167	30
168	149
169	6559
170	629
171	149
172	10
173	20
175	10
181	10
182	129
183	40
184	40
185	50
186	30
187	169
188	20
193	10
197	70
198	10
199	199
200	499
201	90
202	10
203	40
210	30
211	489
212	70
213	50
214	10
215	60
216	10
217	20
221	10
227	20
228	60
229	279
230	30
231	10
241	10
242	509
243	439
244	60
245	99
246	20
247	10
253	10
257	20
259	30
270	20
271	409
272	60
273	10
287	60
288	20
289	50
290	10
294	10
295	10
302	20
312	10
317	349
318	50
319	10
330	30
331	2749
332	439
333	80
334	10
343	10
347	30
354	40
355	10
359	10
372	10
383	20
396	10
397	30
401	20
414	30
415	10
443	30
456	80
457	50
458	10
610	20
611	50
612	10
614	10
615	90
619	80
