Mass Spectrum: .alpha.-D-Glucopyranoside, 1,3,4,6-tetra-O-methyl-.beta.-D-fructofuranosyl 2,3,4,6-tetra-O-methyl-
Formula: C20 H38 O11
CAS: 5346-73-6
Molecular weight: 454
m/z	RELATIVE INTENSITY
45	8499
59	2400
71	2300
75	1900
88	1300
99	550
101	7499
111	2000
115	900
127	750
129	200
131	350
143	350
145	550
155	850
159	500
187	9999
205	350
219	7499
235	850
249	100
275	110
279	30
305	80
307	170
377	200
409	350
