Mass Spectrum: Tricyclo[6.4.0.0(2,7)]dodecane
Formula: C12 H20
CAS: 53485-49-7
Molecular weight: 164
Origin: A.A.Kutin, Moscow, Russia
m/z	RELATIVE INTENSITY
33	489
38	86
39	2374
40	1236
41	5010
42	385
43	575
44	213
50	46
51	333
52	333
53	1603
54	1437
55	4994
56	241
65	690
66	862
67	6792
68	1431
69	437
77	1862
79	5309
80	3006
81	6229
82	9999
83	4690
84	132
91	1431
92	345
93	2293
94	1011
95	1207
96	1178
97	1046
105	161
106	46
107	1190
108	764
109	580
121	1391
122	787
123	109
135	937
136	75
149	207
164	4615
165	598
