Mass Spectrum: Benzenemethanol, .alpha.-ethyl-4-methoxy-
Formula: C10 H14 O2
CAS: 5349-60-0
Molecular weight: 166
m/z	RELATIVE INTENSITY
14	10
15	50
17	50
18	250
26	30
27	270
28	100
29	450
30	20
31	210
32	20
37	10
38	70
39	390
40	90
41	350
42	40
43	230
44	20
45	130
46	10
49	10
50	140
51	300
52	90
53	170
54	120
55	270
56	30
57	440
58	290
59	320
60	10
61	30
62	50
63	200
64	160
65	350
66	360
67	591
68	90
69	40
70	10
71	400
72	50
73	30
74	60
75	50
76	60
77	1461
78	280
79	330
80	80
81	500
82	440
83	130
84	50
85	60
86	20
87	20
88	10
89	60
90	20
91	310
92	230
93	340
94	1341
95	130
96	30
97	60
98	20
99	10
100	10
101	10
102	30
103	80
104	40
105	150
106	50
107	240
108	100
109	2132
110	180
111	480
112	70
113	60
114	280
115	140
116	40
117	140
118	30
119	60
120	10
121	310
122	310
123	90
124	10
125	240
126	30
128	10
129	10
131	30
132	30
133	160
134	90
135	851
136	140
137	9999
138	921
139	90
140	50
141	20
142	10
143	90
147	240
148	510
149	781
150	100
151	20
152	30
153	10
154	60
155	10
163	10
164	80
165	40
166	1111
167	120
168	10
170	10
172	10
176	10
