Mass Spectrum: Benzene, 1-methyl-3-(1-methylethyl)-
Formula: C10 H14
CAS: 535-77-3
Molecular weight: 134
Origin: Japan AIST/NIMC Database- Spectrum MS-IW-3007
m/z	RELATIVE INTENSITY
15	20
26	10
27	129
29	10
38	30
39	379
40	40
41	409
42	20
43	139
50	90
51	259
52	80
53	90
55	10
57	139
58	179
59	99
60	10
61	10
62	60
63	209
64	99
65	459
66	109
67	20
74	40
75	40
76	30
77	509
78	169
79	189
80	10
86	20
87	20
89	129
90	40
91	1519
92	209
93	239
94	10
101	10
102	80
103	329
104	229
105	349
106	30
107	10
114	10
115	429
116	119
117	809
118	169
119	9999
120	999
121	40
127	10
128	20
129	10
131	20
132	60
133	189
134	2559
135	349
136	20
