Mass Spectrum: Trigonelline
Formula: C7 H7 N O2
CAS: 535-83-1
Molecular weight: 137
Origin: W.T.RAINEY OAK RIDGE NATIONAL LABORATORY,OAK RIDGE,TN.USA
m/z	RELATIVE INTENSITY
42	1014
44	4347
45	470
50	1956
51	3695
52	941
53	507
58	760
59	434
77	905
78	7825
79	1050
92	579
93	854
94	941
105	869
106	9999
107	920
120	507
136	1956
137	6231
138	905
