Mass Spectrum: .alpha.,.alpha.,.alpha.,6-Tetrafluoro-m-toluidine
Formula: C7 H5 F4 N
CAS: 535-52-4
Molecular weight: 179
Origin: Chuck Anderson, Aldrich Chemical Co.
m/z	RELATIVE INTENSITY
26	14
27	25
28	225
31	218
32	3
33	43
36	28
37	103
38	177
39	157
40	41
41	108
42	4
44	40
45	22
46	53
49	24
50	141
51	162
52	248
53	31
54	86
55	26
56	154
57	590
58	46
59	49
60	24
61	159
62	235
63	711
64	209
65	204
66	56
68	68
69	306
70	119
71	18
72	51
73	10
74	72
75	297
76	80
77	27
78	16
80	469
81	482
82	327
83	775
84	103
85	34
86	12
87	57
88	201
90	866
91	35
92	30
93	87
94	84
95	54
96	10
98	4
99	96
100	52
101	874
102	162
103	10
106	65
107	33
108	151
109	409
110	109
111	22
112	104
113	266
114	59
117	20
119	24
120	142
125	8
126	8
128	40
129	1603
130	117
131	87
132	2396
133	201
134	8
138	182
139	167
140	594
141	43
143	239
144	16
150	50
151	491
152	76
157	29
158	590
159	340
160	3378
161	268
163	331
164	16
178	784
179	9999
180	715
181	22
