Mass Spectrum: 2-Bromobenzothiophene sulfone
Formula: C8 H5 Br O2 S
CAS: 5350-05-0
Molecular weight: 244
Origin: B.F. PLUMMER, TRINITY UNIV., SAN ANTONIO, TEXAS,X
m/z	RELATIVE INTENSITY
50	2810
51	3205
52	201
54	246
57	148
60	159
61	691
62	1526
63	1636
64	269
65	2601
66	227
68	220
69	1097
70	117
71	113
73	603
74	3501
75	4906
76	626
77	911
78	132
79	163
80	117
81	288
82	345
83	155
85	186
86	231
87	227
88	235
89	3228
90	375
91	129
93	345
94	106
95	106
97	148
98	668
99	436
100	562
101	3759
102	315
106	125
107	113
108	854
109	8233
110	619
111	368
120	167
121	634
133	121
136	505
137	9999
138	865
139	489
165	945
196	267
198	260
244	2140
245	241
246	2045
247	205
