Mass Spectrum: 2-Mercapto-4,5-dimethylthiazole
Formula: C5 H7 N S2
CAS: 5351-51-9
Molecular weight: 145
Origin: Div. of Experiment Therapeutics WRAIR, WRAMC, Washington DC 20307
m/z	RELATIVE INTENSITY
41	1262
42	2080
43	135
44	157
45	1953
46	172
47	375
49	203
50	331
51	559
52	455
53	1426
54	709
55	101
56	32
57	284
58	937
59	3564
60	585
61	186
62	21
64	215
65	10
66	32
67	9
68	260
69	538
70	364
71	3457
72	1111
74	15
76	257
77	128
78	95
80	51
81	69
82	44
83	69
84	213
85	1777
86	2195
87	318
88	132
91	8
98	9
100	190
102	57
103	283
104	273
105	46
106	22
110	32
111	42
112	958
113	75
114	49
117	166
118	8
119	8
130	24
144	394
145	9999
146	1157
147	926
148	92
149	34
