Mass Spectrum: Butanoic acid, 3-hydroxy-, methyl ester, (S)-
Formula: C5 H10 O3
CAS: 53562-86-0
Molecular weight: 118
Origin: Japan AIST/NIMC Database- Spectrum MS-NW-5422
m/z	RELATIVE INTENSITY
12	40
13	90
14	799
15	2179
16	80
18	10
24	20
25	70
26	149
27	649
28	349
29	1759
30	119
31	1469
32	489
33	689
34	10
36	10
37	50
38	90
39	559
40	119
41	779
42	2689
43	9999
44	1229
45	5519
46	139
47	20
53	20
54	10
55	60
56	30
57	149
58	379
59	1069
60	99
61	1219
62	30
68	60
69	619
70	50
71	2689
72	109
73	30
74	5049
75	299
76	30
77	10
85	499
86	70
87	1599
88	90
89	10
99	60
100	389
101	70
102	10
103	1609
104	90
105	10
117	90
118	10
119	10
