Mass Spectrum: p-Mentha-1,8-dien-7-ol
Formula: C10 H16 O
CAS: 536-59-4
Molecular weight: 152
m/z	RELATIVE INTENSITY
15	70
17	60
26	90
27	1712
28	470
29	1371
30	60
31	811
32	70
38	130
39	2692
40	881
41	4164
42	741
43	1441
44	170
45	60
50	200
51	771
52	430
53	2492
54	440
55	4074
56	1211
57	591
58	50
59	80
61	50
62	70
63	240
64	90
65	841
66	1241
67	5335
68	9999
69	1812
70	871
71	360
72	70
75	130
77	2022
78	801
79	7327
80	1241
81	2112
82	540
83	1842
84	671
85	150
89	100
90	70
91	3103
92	1391
93	5665
94	1141
95	1051
96	350
97	200
103	230
104	110
105	1541
106	1541
107	801
108	1661
109	1792
110	450
111	130
115	150
116	60
117	220
118	80
119	2262
120	280
121	4624
122	601
123	310
124	180
132	50
133	150
134	1041
135	180
137	160
150	80
152	1241
153	120
