Mass Spectrum: Ethionamide
Formula: C8 H10 N2 S
CAS: 536-33-4
Molecular weight: 166
Origin: NIST Mass Spectrometry Data Center, 1998.
m/z	RELATIVE INTENSITY
14	10
15	20
26	120
27	350
28	230
29	100
32	90
33	70
34	200
36	40
37	130
38	230
39	650
40	100
41	130
42	60
44	30
45	130
49	90
50	850
51	1420
52	950
53	370
54	230
55	30
56	100
57	40
58	60
59	60
60	1000
61	130
62	280
63	610
64	550
65	300
66	330
67	90
68	20
69	180
70	50
71	40
72	10
73	30
75	390
76	910
77	1980
78	960
79	470
80	150
81	50
82	60
83	70
84	70
85	40
86	20
87	40
88	50
89	60
90	350
91	130
92	70
93	170
94	90
95	60
96	40
97	50
99	30
100	20
101	20
102	90
103	810
104	2280
105	2020
106	1110
107	180
108	40
109	20
110	180
111	280
112	70
113	10
116	40
117	260
118	120
119	40
120	40
121	60
122	70
123	50
124	30
129	120
131	9999
132	4420
133	1660
134	210
135	30
136	70
137	180
138	1930
139	320
140	90
148	50
149	250
150	160
151	80
165	5059
166	7239
167	930
168	350
169	30
