Mass Spectrum: 4-Chlorobenzoic acid hydrazide
Formula: C7 H7 Cl N2 O
CAS: 536-40-3
Molecular weight: 170
Origin: NIST Mass Spectrometry Data Center, 1994
m/z	RELATIVE INTENSITY
15	18
16	96
17	32
18	25
26	50
27	92
28	139
29	355
30	162
31	697
32	52
36	54
37	202
38	264
39	109
43	40
44	48
47	19
48	23
49	178
50	1479
51	705
52	72
53	81
55	42
60	36
61	199
62	92
63	171
64	52
65	18
69	20
72	47
73	279
74	979
75	3223
76	866
77	230
78	29
84	134
85	337
86	70
87	126
88	18
90	45
99	39
101	25
102	36
104	95
111	6510
112	527
113	2020
114	161
137	46
139	9999
140	900
141	3058
142	245
143	21
155	37
157	29
170	1960
171	175
172	618
173	61
