Mass Spectrum: Benzenamine, 3-methoxy-
Formula: C7 H9 N O
CAS: 536-90-3
Molecular weight: 123
Origin: NIST Mass Spectrometry Data Center, 1990.
m/z	RELATIVE INTENSITY
15	459
17	35
18	79
26	177
27	561
29	252
30	194
37	297
38	789
39	1712
40	495
41	1087
42	224
43	53
44	79
46	141
47	160
49	67
50	518
51	856
52	1764
53	2946
54	648
55	59
61	212
62	396
63	842
64	629
65	1768
66	3085
67	443
68	284
74	114
75	95
76	126
77	659
78	429
79	735
80	3948
81	300
90	61
91	203
92	1067
93	5646
94	7504
95	1212
96	61
104	147
105	280
106	239
107	367
108	105
122	1389
123	9999
124	801
125	59
