Mass Spectrum: Pyridine, 3-ethyl-
Formula: C7 H9 N
CAS: 536-78-7
Molecular weight: 107
Origin: NIST Mass Spectrometry Data Center, 1990.
m/z	RELATIVE INTENSITY
14	29
15	141
26	263
27	721
28	642
32	78
37	235
38	624
39	2215
40	259
41	187
44	17
49	204
50	1322
51	1955
52	1139
53	586
54	163
61	139
62	287
63	819
64	499
65	4305
66	427
67	96
74	231
75	214
76	205
77	1315
78	1127
79	2093
80	518
92	9999
93	699
104	245
106	5628
107	8708
108	701
