Mass Spectrum: Butanoic acid, 3-hydroxy-, butyl ester
Formula: C8 H16 O3
CAS: 53605-94-0
Molecular weight: 160
Origin: FOOD RESEARCH REPORT 120, K.E. MURRAY & COLLEAGUES, DIV. OF FOOD RESEARCH, CSIRO, AUSTRALIA
m/z	RELATIVE INTENSITY
25	100
26	500
27	3200
29	5400
30	200
31	2300
33	200
37	100
38	200
39	2600
40	600
41	7100
42	3200
43	9999
45	5800
46	100
51	100
53	200
54	100
55	1300
56	6900
57	3700
58	600
59	100
60	2700
61	1000
68	300
69	5700
70	400
71	1100
72	200
73	600
75	100
85	600
86	800
87	8800
88	400
89	2100
99	100
101	100
103	200
104	200
105	300
127	100
145	400
