Mass Spectrum: Cyclohexane, 1-propenyl-
Formula: C9 H16
CAS: 5364-83-0
Molecular weight: 124
Origin: A. J. HORNG
m/z	RELATIVE INTENSITY
13	26
14	98
15	1020
16	22
18	22
25	24
26	615
27	5730
28	1334
29	2973
30	72
31	64
37	152
38	456
39	6411
40	1130
41	9551
42	932
43	726
44	88
45	41
46	36
47	28
49	39
50	374
51	894
52	487
53	2651
54	3444
55	8971
56	742
57	344
58	51
61	38
62	98
63	247
64	69
65	614
66	792
67	9999
68	4192
69	1199
70	204
71	36
73	20
74	41
75	50
77	670
78	227
79	1128
80	865
81	8532
82	9117
83	4739
84	306
85	25
89	23
90	18
91	206
92	47
93	170
94	136
95	3042
96	1212
97	95
105	21
107	43
108	20
109	1456
110	133
117	37
119	35
123	53
124	3277
125	327
126	18
