Mass Spectrum: 3-Decenoic acid, (E)-
Formula: C10 H18 O2
CAS: 53678-20-9
Molecular weight: 170
Origin: NIST Mass Spectrometry Data Center
m/z	RELATIVE INTENSITY
17	110
18	310
20	100
26	230
27	3293
29	4224
30	130
31	160
32	10
36	220
38	240
39	3753
40	500
41	8207
42	3323
43	9999
44	741
45	1762
50	180
51	480
52	290
53	2032
54	3683
55	8518
56	4124
57	2582
58	781
59	350
60	1341
61	150
63	100
65	470
66	320
67	2772
68	2903
69	4764
70	2172
71	1822
72	160
73	1321
74	180
77	450
78	100
79	651
80	250
81	3083
82	1922
83	1952
84	3153
85	661
86	250
87	1071
88	160
91	150
93	140
94	260
95	1401
96	1822
97	1211
98	611
99	751
100	1581
101	961
102	160
105	220
108	771
109	751
110	3403
111	971
112	110
113	400
114	771
115	190
119	140
122	120
123	1361
124	460
127	320
128	100
134	390
137	170
141	110
152	1962
153	240
170	100
