Mass Spectrum: 2-Decanol, TMS derivative
Formula: C13 H30 O Si
CAS: 53690-77-0
Molecular weight: 230
Origin: NIST Mass Spectrometry Data Center
m/z	RELATIVE INTENSITY
15	10
26	10
27	110
28	30
29	250
30	10
31	10
39	110
40	30
41	530
42	110
43	520
44	70
45	340
46	30
47	200
48	10
49	10
51	10
53	50
54	30
55	360
56	100
57	110
58	90
59	210
60	60
61	340
62	20
63	10
65	10
67	50
68	20
69	230
70	70
71	40
72	70
73	3853
74	420
75	3363
76	260
77	130
79	10
81	30
82	20
83	160
84	30
85	50
86	30
87	80
88	20
89	50
90	10
91	50
93	10
95	20
96	10
97	80
98	20
99	110
100	20
101	260
102	60
103	240
104	20
105	10
109	10
111	40
112	20
113	90
114	20
115	140
117	9999
118	1581
119	591
120	30
125	10
127	20
128	10
129	140
130	20
131	10
139	10
140	20
141	10
143	100
144	10
145	10
157	90
158	10
159	10
171	10
199	10
215	1441
216	270
217	70
218	10
229	60
230	10
