Mass Spectrum: Aniline, m-phenethyl-
Formula: C14 H15 N
CAS: 5369-22-2
Molecular weight: 197
m/z	RELATIVE INTENSITY
39	611
40	60
41	190
42	70
50	100
51	430
52	220
53	200
54	120
63	290
64	90
65	921
66	180
67	60
76	90
77	1151
78	390
79	671
80	210
89	210
90	100
91	2672
92	240
93	390
94	60
104	160
105	40
106	9999
107	851
180	140
181	70
182	70
196	90
197	3964
198	601
