Mass Spectrum: Acetamide, N-(3-methylphenyl)-
Formula: C9 H11 N O
CAS: 537-92-8
Molecular weight: 149
Origin: Japan AIST/NIMC Database- Spectrum MS-NW-3592
m/z	RELATIVE INTENSITY
15	239
18	10
26	30
27	169
28	20
29	20
30	40
37	40
38	119
39	459
40	80
41	119
42	99
43	1849
44	50
49	10
50	159
51	349
52	229
53	189
54	50
61	30
62	70
63	179
64	99
65	299
66	80
67	40
68	10
74	40
75	30
76	50
77	819
78	299
79	549
80	199
81	40
86	10
87	10
89	99
90	129
91	349
92	60
93	10
102	10
103	10
104	139
105	99
106	3899
107	9999
108	849
109	30
118	10
120	70
121	30
131	30
132	40
133	30
134	30
147	10
148	30
149	3289
150	359
151	30
