Mass Spectrum: p-Decyloxybenzylidene p-toluidine
Formula: C24 H33 N O
CAS: 53764-62-8
Molecular weight: 351
Origin: NIST Mass Spectrometry Data Center, 1994
m/z	RELATIVE INTENSITY
27	708
28	239
29	1773
39	527
41	3007
42	359
43	3340
44	164
50	111
51	251
52	76
53	135
54	59
55	1149
56	119
57	1206
58	74
62	49
63	162
65	1511
66	172
67	68
69	247
71	261
76	85
77	267
78	117
79	118
83	93
85	179
89	219
91	2261
92	220
93	245
94	136
96	65
97	42
103	45
104	48
105	72
107	100
112	53
115	84
116	60
117	124
118	745
119	95
120	44
139	74
140	55
152	156
153	87
154	43
155	46
165	143
167	994
168	143
179	68
180	261
181	222
182	408
183	120
191	57
192	104
193	438
194	183
195	139
196	345
197	68
208	96
210	5725
211	9999
212	1858
213	182
222	332
223	448
224	1459
225	380
236	184
237	72
238	102
252	76
264	51
265	72
266	221
267	68
278	65
279	84
280	428
281	89
293	69
294	307
295	61
308	277
309	66
322	186
323	83
336	183
351	4805
352	1337
353	182
