Mass Spectrum: 2-Butanol, 1-methoxy-
Formula: C5 H12 O2
CAS: 53778-73-7
Molecular weight: 104
Origin: DOW CHEMICAL COMPANY / ASTM E14-UNCERTIFIED SPECTRUM; 370
m/z	RELATIVE INTENSITY
15	613
16	16
17	10
18	30
26	85
27	617
28	256
29	1087
30	99
31	4117
32	73
33	229
37	12
38	31
39	260
40	43
41	1635
42	196
43	1391
44	170
45	3465
46	244
47	1565
48	37
50	25
51	23
53	65
54	19
55	313
56	60
57	608
58	2826
59	9999
60	359
61	65
69	9
71	221
72	33
73	134
74	58
75	1652
76	67
77	9
87	69
89	62
103	24
104	84
105	19
