Mass Spectrum: Cyclopentane, 1-methyl-3-(1-methylethyl)-
Formula: C9 H18
CAS: 53771-88-3
Molecular weight: 126
Origin: D.HENNEBERG, MAX-PLANCK INSTITUTE, MULHEIM, WEST GERMANY
m/z	RELATIVE INTENSITY
22	5
23	4
25	23
26	53
27	1558
28	97
29	1215
30	32
34	4
35	15
36	18
37	84
38	48
39	1490
40	252
41	5265
42	1012
43	2142
44	37
45	11
46	18
47	11
49	5
50	39
51	143
52	68
53	494
54	249
55	9999
56	2441
57	872
58	32
62	3
63	36
64	8
65	121
66	100
67	4439
68	495
69	3452
70	2126
71	335
72	12
75	5
76	10
77	88
78	19
79	113
80	42
81	352
82	4802
83	6596
84	545
85	27
91	15
95	14
96	3
97	71
98	121
109	7
110	40
111	1432
112	126
125	7
126	143
127	8
