Mass Spectrum: Hexanenitrile, 3-methyl-
Formula: C7 H13 N
CAS: 53783-89-4
Molecular weight: 111
m/z	RELATIVE INTENSITY
15	100
26	200
27	1900
28	1500
29	3200
39	1600
40	400
41	5099
42	1100
43	900
53	300
54	2300
55	9999
56	700
57	4900
68	4700
69	1600
70	200
71	40
82	800
83	1300
84	100
85	50
96	2100
97	200
98	10
110	900
111	100
112	300
