Mass Spectrum: 1H-Tetrazole, 1-phenyl-
Formula: C7 H6 N4
CAS: 5378-52-9
Molecular weight: 146
Origin: A.KONNECKE KARL-MARX UNIV., LEIPZIG 701, GERMANY, G.D.R.
m/z	RELATIVE INTENSITY
37	1410
38	2300
39	3180
40	590
41	1760
42	120
43	350
49	290
50	2240
51	4710
52	1060
53	180
55	290
57	230
61	350
62	590
63	2410
64	5760
65	1530
66	230
73	180
74	460
75	230
76	350
77	5590
78	590
90	230
91	9999
92	710
118	6470
119	500
146	160
