Mass Spectrum: Acetamide, N-[2,4-dimethyl-5-[[(trifluoromethyl)sulfonyl]amino]phenyl]-
Formula: C11 H13 F3 N2 O3 S
CAS: 53780-34-0
Molecular weight: 310
Origin: NIST Mass Spectrometry Data Center, 1998.
m/z	RELATIVE INTENSITY
14	10
15	120
27	60
28	90
29	20
30	30
31	10
37	10
38	30
39	320
40	150
41	260
42	250
43	2460
44	70
45	20
48	60
50	80
51	170
52	170
53	160
54	90
55	30
56	20
62	20
63	100
64	120
65	390
66	230
67	270
68	70
69	410
70	10
74	10
75	20
76	40
77	400
78	150
79	400
80	180
81	90
82	20
88	10
89	90
90	80
91	410
92	190
93	460
94	110
95	40
96	10
101	10
102	40
103	20
104	110
105	60
106	680
107	880
108	1010
109	80
115	10
116	140
117	160
118	280
119	300
120	180
121	40
122	10
123	10
130	10
131	80
132	80
133	510
134	900
135	9999
136	1230
137	70
144	10
145	20
146	10
147	40
148	40
149	20
150	10
151	10
159	30
160	10
161	160
162	30
163	10
164	10
165	30
166	10
169	10
175	120
176	90
177	790
178	100
179	10
181	10
183	10
185	20
187	20
192	10
207	50
208	10
226	20
227	20
249	10
267	170
268	2950
269	350
270	160
271	10
281	10
295	20
310	1590
311	200
312	90
313	10
