Mass Spectrum: Bicyclo[2.2.1]hept-2-en-7-ol
Formula: C7 H10 O
CAS: 53783-87-2
Molecular weight: 110
Origin: TAT 0971
m/z	RELATIVE INTENSITY
26	801
27	3503
28	400
29	1501
31	801
32	100
40	801
41	4604
42	801
43	3103
44	300
50	1201
51	1902
52	801
53	3103
54	2302
55	2702
56	200
63	801
64	100
65	1501
66	1201
67	3803
68	1201
69	801
77	4604
78	2702
79	1501
80	2302
81	9999
82	4204
83	801
91	4604
92	4204
93	801
95	5005
96	400
109	1501
110	7307
111	801
112	100
