Mass Spectrum: Benzene, 1-ethenyl-3,5-dimethyl-
Formula: C10 H12
CAS: 5379-20-4
Molecular weight: 132
m/z	RELATIVE INTENSITY
15	10
26	20
27	280
29	20
30	10
37	20
38	80
39	671
40	70
41	140
42	10
43	10
44	10
49	10
50	240
51	741
52	190
53	300
54	20
55	10
56	10
57	40
58	80
59	10
60	10
61	40
62	140
63	500
64	751
65	811
66	210
67	20
72	10
73	10
74	120
75	120
76	90
77	701
78	290
79	230
80	20
81	10
84	10
85	20
86	40
87	50
88	20
89	240
90	40
91	1692
92	200
93	20
94	10
97	10
98	20
99	10
100	10
101	40
102	170
103	300
104	160
105	641
106	120
107	10
108	10
109	10
110	10
111	10
113	20
114	30
115	2512
116	1061
117	7347
118	731
119	60
120	10
126	30
127	230
128	500
129	420
130	100
131	2342
132	9999
133	1091
134	60
135	10
