Mass Spectrum: Benzenamine, N-(phenylmethylene)-
Formula: C13 H11 N
CAS: 538-51-2
Molecular weight: 181
Origin: Japan AIST/NIMC Database- Spectrum MS-NW-5563
m/z	RELATIVE INTENSITY
26	30
27	169
28	129
37	40
38	109
39	379
40	40
41	10
44	20
49	20
50	439
51	2029
52	299
53	20
60	10
61	30
62	109
63	319
64	179
65	50
66	10
73	10
74	129
75	139
76	489
77	5859
78	1379
79	80
85	10
86	20
87	30
88	20
89	399
90	329
91	70
93	30
98	10
99	10
100	10
101	20
102	40
103	109
104	1449
105	129
106	10
113	10
114	10
115	30
116	30
125	10
126	30
127	70
128	40
129	10
139	10
140	20
141	10
150	30
151	109
152	319
153	139
154	80
155	10
166	10
177	30
178	80
179	149
180	9519
181	9999
182	1369
183	99
