Mass Spectrum: Dicyclohexylcarbodiimide
Formula: C13 H22 N2
CAS: 538-75-0
Molecular weight: 206
Origin: W. KELLY UNILEVER RESEARCH COLWORTH/WELWYN, BEDFORD U.K.
m/z	RELATIVE INTENSITY
27	1400
29	1750
39	1920
40	340
41	6930
42	670
43	6530
44	170
51	230
52	190
53	1160
54	1640
55	9999
56	1270
57	220
65	200
66	220
67	2350
68	1010
69	710
70	270
77	250
78	110
79	560
80	270
81	5400
82	3210
83	7430
84	520
94	110
95	1090
96	1340
97	450
98	190
107	70
108	90
109	670
110	150
121	50
122	60
123	770
124	4230
125	2890
126	190
135	60
136	170
137	200
138	130
149	430
150	290
151	880
152	570
163	4440
164	2480
165	540
177	1600
178	600
191	730
192	100
205	790
206	2340
207	370
