Mass Spectrum: Benzene, (2-methylpropyl)-
Formula: C10 H14
CAS: 538-93-2
Molecular weight: 134
Origin: Japan AIST/NIMC Database- Spectrum MS-NW- 147
m/z	RELATIVE INTENSITY
15	30
26	20
27	409
28	109
29	69
38	60
39	749
40	70
41	759
42	40
43	1359
44	50
50	149
51	449
52	129
53	70
55	90
56	149
57	129
58	109
59	10
61	10
62	80
63	299
64	99
65	1159
66	80
69	30
74	40
75	50
76	50
77	299
78	279
79	90
86	10
87	20
89	239
90	99
91	9999
92	6229
93	429
94	10
102	50
103	99
104	60
105	99
106	20
115	229
116	60
117	159
118	40
119	139
133	30
134	2689
135	289
136	10
