Mass Spectrum: Dodecanoic acid, 1,2,3-propanetriyl ester
Formula: C39 H74 O6
CAS: 538-24-9
Molecular weight: 638
Origin: Japan AIST/NIMC Database- Spectrum MS-NW-8268
m/z	RELATIVE INTENSITY
14	10
15	30
17	20
18	70
26	60
27	569
28	109
29	1219
30	40
36	40
37	10
38	20
39	369
40	80
41	2499
42	679
43	4629
44	199
45	189
50	10
51	20
52	10
53	139
54	289
55	4039
56	929
57	5899
58	329
59	119
60	1879
61	369
62	10
65	30
66	30
67	649
68	349
69	1809
70	639
71	2879
72	179
73	2099
74	279
75	50
77	30
78	20
79	169
80	80
81	849
82	339
83	1819
84	1669
85	2299
86	179
87	419
88	90
89	20
91	40
92	10
93	149
94	80
95	1429
96	339
97	1319
98	2399
99	689
100	229
101	339
102	80
103	20
105	20
106	10
107	129
108	40
109	969
110	199
111	609
112	809
113	339
114	60
115	399
116	719
117	289
118	20
119	20
120	10
121	149
122	30
123	309
124	70
125	179
126	349
127	99
128	30
129	1099
130	109
131	20
133	10
134	20
135	109
136	40
137	50
138	179
139	149
140	209
141	90
142	30
143	229
144	30
145	10
147	10
149	30
150	10
151	20
152	30
153	80
154	90
155	90
156	20
157	529
158	709
159	90
160	10
161	10
162	10
163	129
164	60
165	139
166	30
167	30
168	20
169	30
170	30
171	979
172	149
173	30
176	20
177	10
178	10
179	10
180	70
181	159
182	529
183	9999
184	1329
185	399
186	80
187	20
195	10
196	30
197	60
198	30
199	189
200	339
201	129
202	10
206	20
209	20
210	10
211	60
212	20
213	319
214	80
215	20
223	10
224	169
225	90
226	30
227	509
228	99
229	30
237	10
238	90
239	50
240	40
241	169
242	50
243	359
244	50
245	10
252	50
253	30
254	40
255	649
256	399
257	3309
258	549
259	70
260	10
265	10
266	10
267	20
268	10
269	169
270	40
271	10
273	10
275	239
276	40
277	10
280	10
281	20
282	10
283	109
284	20
285	30
294	10
295	10
297	30
298	1389
299	769
300	129
301	30
309	30
310	10
311	3409
312	699
313	99
314	10
316	20
317	70
318	10
323	10
324	30
325	319
326	90
327	20
336	10
337	20
338	10
339	279
340	119
341	20
351	10
353	579
354	169
355	30
358	20
364	50
365	40
366	30
367	1169
368	419
369	80
370	10
381	259
382	119
383	40
385	10
386	20
395	879
396	269
397	60
398	10
399	10
400	10
409	389
410	189
411	80
412	20
423	70
424	40
425	509
426	139
427	20
428	10
436	20
437	239
438	1829
439	5159
440	1479
441	249
442	40
456	10
457	70
458	20
466	10
467	20
480	239
481	80
482	10
483	60
484	20
494	10
498	60
499	20
508	70
509	20
522	10
550	10
564	10
565	30
566	10
620	30
621	10
