Mass Spectrum: Bis(2-chloroethyl)ethylamine
Formula: C6 H13 Cl2 N
CAS: 538-07-8
Molecular weight: 169
Origin: VERIFIN - Methodology B3-1982
m/z	RELATIVE INTENSITY
42	800
43	200
44	200
54	80
57	1401
58	200
59	300
63	1201
65	400
70	100
71	70
84	200
92	1801
94	500
106	300
120	9999
121	600
122	3302
123	200
134	500
136	100
154	400
156	200
169	400
171	200
