Mass Spectrum: Cyanamide, di-2-propenyl-
Formula: C7 H10 N2
CAS: 538-08-9
Molecular weight: 122
Origin: NIST Mass Spectrometry Data Center, 2010
m/z	RELATIVE INTENSITY
15	70
25	10
26	150
27	460
28	390
29	50
30	10
37	130
38	330
39	3443
40	460
41	9999
42	591
43	60
50	20
51	60
52	120
53	671
54	1001
55	1742
56	140
62	10
63	10
65	30
66	90
67	671
68	1281
69	170
70	20
77	40
78	30
79	160
80	400
81	1421
82	971
83	70
92	20
93	190
94	771
95	1041
96	100
106	40
107	350
119	30
121	1341
122	2883
123	250
124	10
