Mass Spectrum: 1,2-Propanediol, 3-phenoxy-
Formula: C9 H12 O3
CAS: 538-43-2
Molecular weight: 168
m/z	RELATIVE INTENSITY
18	200
19	470
26	110
27	751
28	881
29	1431
30	100
31	1351
32	150
35	70
36	711
37	90
38	420
39	1191
40	300
41	240
42	140
43	1111
44	190
45	430
47	70
50	280
51	1021
52	140
53	100
55	290
56	110
57	841
58	90
59	90
60	60
61	410
62	80
63	180
64	110
65	811
66	661
67	90
68	50
69	60
71	50
72	50
73	70
74	160
75	140
76	90
77	2032
78	621
79	400
80	40
87	50
91	330
93	200
94	9999
95	1321
96	50
101	90
107	681
108	641
109	70
117	100
119	450
120	60
121	50
131	40
133	80
136	70
137	180
150	40
168	1431
169	150
