Mass Spectrum: Benzene, 1,1'-(1,2-ethanediyl)bis[4-methyl-
Formula: C16 H18
CAS: 538-39-6
Molecular weight: 210
Origin: NIST Mass Spectrometry Data Center, 1994
m/z	RELATIVE INTENSITY
15	23
18	9
27	597
28	19
37	6
39	614
40	66
41	93
42	8
44	5
50	132
51	463
52	172
53	232
54	16
55	9
61	7
62	63
63	265
64	66
65	364
66	43
69	5
74	23
75	57
77	1494
78	485
79	1273
80	89
82	21
83	18
86	11
87	26
89	174
90	45
91	239
92	24
94	16
95	14
96	18
101	28
102	118
103	740
104	14
105	9999
106	823
107	34
113	8
115	191
116	33
117	88
118	67
119	10
126	9
127	19
128	32
129	12
139	23
141	13
150	11
151	17
152	47
153	15
163	9
164	15
165	70
166	17
167	7
176	15
178	119
179	83
180	11
181	5
189	32
190	19
191	39
192	23
193	36
194	13
207	7
208	12
210	1196
211	212
212	16
