Mass Spectrum: 2-(2-Phenylvinyl)pyridine, trans
Formula: C13 H11 N
CAS: 538-49-8
Molecular weight: 181
Origin: V.A.KOPTYUG, ATLAS OF MASS SPECTRA OF ORGANIC COMPOUNDS
m/z	RELATIVE INTENSITY
50	260
51	810
52	170
63	380
64	100
75	220
76	570
77	1130
78	690
79	580
89	640
90	1080
91	140
101	100
102	220
104	140
126	1220
127	290
128	220
151	400
152	1180
153	400
154	160
178	480
179	470
180	9999
181	3290
182	650
