Mass Spectrum: Benzyl sulfide
Formula: C14 H14 S
CAS: 538-74-9
Molecular weight: 214
Origin: NIST Mass Spectrometry Data Center, 1990.
m/z	RELATIVE INTENSITY
26	28
27	113
28	32
37	31
38	137
39	885
40	77
41	190
45	2160
46	71
47	98
50	171
51	594
52	143
53	52
58	15
61	31
62	145
63	522
64	178
65	1789
66	107
69	87
70	20
71	30
74	32
75	46
76	58
77	684
78	157
79	186
80	13
81	15
82	18
86	31
87	16
89	397
91	9999
92	1901
93	138
95	17
96	18
97	36
106	12
108	26
121	446
122	1216
123	2262
124	245
125	103
135	69
136	43
152	22
165	32
166	18
167	28
168	25
178	28
179	21
181	30
214	2350
215	373
216	138
217	17
