Mass Spectrum: Benzene, pentyl-
Formula: C11 H16
CAS: 538-68-1
Molecular weight: 148
Origin: D. LUKE UNILEVER RESEARCH LAB., PORT SUNLIGHT
m/z	RELATIVE INTENSITY
15	31
17	44
26	45
27	475
29	666
30	19
31	221
38	40
39	569
40	53
41	764
42	86
43	74
44	31
45	79
50	111
51	387
52	106
53	72
55	86
56	35
57	340
58	23
59	96
62	45
63	201
64	62
65	996
66	75
67	17
69	12
70	39
74	87
75	44
76	43
77	473
78	590
79	297
80	39
81	15
82	12
87	11
88	9
89	164
90	138
91	9999
92	6802
93	536
94	41
101	11
102	48
103	199
104	162
105	1066
106	182
107	23
115	137
116	39
117	93
118	20
119	213
120	54
127	9
128	22
129	11
133	165
134	19
147	11
148	2808
149	333
150	22
