Mass Spectrum: 1,2-Propanediol diformate
Formula: C5 H8 O4
CAS: 53818-14-7
Molecular weight: 132
Origin: Leung Pu, NIH, Bethesda, Maryland, U.S.
m/z	RELATIVE INTENSITY
41	801
42	372
43	2063
44	176
45	9999
47	611
48	91
54	21
55	79
56	9
57	720
58	1353
59	295
60	1710
61	783
62	34
63	5
69	21
70	19
71	25
73	291
74	190
75	73
76	12
77	132
78	15
81	22
82	27
83	41
86	64
87	113
88	77
89	52
102	11
103	4
117	16
131	18
132	59
133	5
