Mass Spectrum: 4-Hydroxypiperidine
Formula: C5 H11 N O
CAS: 5382-16-1
Molecular weight: 101
Origin: NIST Mass Spectrometry Data Center, 1994
m/z	RELATIVE INTENSITY
14	137
15	410
18	254
19	100
26	400
27	1826
28	4166
29	3569
30	3648
31	420
32	59
38	149
39	886
40	391
41	1212
42	6123
43	3718
44	2897
45	740
50	151
51	270
52	212
53	491
54	819
55	2564
56	9999
57	6024
58	574
59	145
60	156
65	73
67	312
68	1928
69	210
70	227
71	73
72	1725
73	298
80	297
82	3522
83	1365
84	2257
85	144
86	98
100	2536
101	5645
102	367
