Mass Spectrum: 1-Acenaphthenone, 3-nitro-
Formula: C12 H7 N O3
CAS: 5386-10-7
Molecular weight: 213
Origin: LAC, NIDDK, NIH, Bethesda, MD 20892
m/z	RELATIVE INTENSITY
41	126
42	95
43	266
44	106
46	395
47	143
49	873
50	1505
51	1478
52	304
53	92
55	224
57	421
61	529
62	1942
63	3649
64	447
65	499
67	85
70	1795
74	2211
75	1869
76	805
77	1225
78	227
84	525
85	485
86	2048
87	2153
88	953
89	1781
90	162
98	923
99	732
100	422
101	832
102	993
103	207
109	215
110	489
111	636
112	404
113	2088
114	3704
115	549
122	115
123	59
125	1292
126	3361
127	6446
128	1058
129	521
130	380
131	60
134	89
135	61
137	1889
138	2270
139	9263
140	4565
141	4193
142	752
143	86
145	61
150	63
151	230
152	143
153	886
154	1885
155	939
156	253
157	746
158	136
166	235
167	654
168	385
169	193
170	85
182	74
183	192
184	121
185	3499
186	612
187	69
196	221
197	327
198	101
199	111
213	9999
214	1323
215	149
