Mass Spectrum: 1-Pentanethiol, 4-methyl-
Formula: C6 H14 S
CAS: 53897-50-0
Molecular weight: 118
m/z	RELATIVE INTENSITY
26	160
27	2262
28	400
29	1071
30	30
32	50
33	110
34	110
35	240
36	10
37	60
38	140
39	1702
40	280
41	4014
42	1141
43	4004
44	150
45	671
46	290
47	1551
48	120
49	90
50	70
51	90
52	30
53	210
54	70
55	851
56	9999
57	661
58	140
59	190
60	150
61	831
62	70
63	60
64	10
65	40
66	20
67	120
68	40
69	1421
70	90
71	60
72	10
73	40
74	50
75	90
76	40
77	20
78	10
79	10
81	20
82	10
83	120
84	490
85	70
86	10
87	30
89	10
90	10
101	40
102	10
103	30
116	20
117	50
118	2072
119	160
120	100
121	10
