Mass Spectrum: 3,4,5,6-Tetrahydro-2,4,6-trimethyl-2H-1,3,5-thiadiazine
Formula: C6 H14 N2 S
CAS: 53897-63-5
Molecular weight: 146
Origin: T. KAWAI, SHIONO KORYO KAISHA LTD., NIITAKAKITA, OSAKA, JAPAN
m/z	RELATIVE INTENSITY
32	800
33	800
34	2200
35	200
36	200
39	300
40	600
41	1200
42	4200
43	2100
44	1000
45	1200
54	1300
55	300
56	400
57	300
58	700
59	1400
60	1700
61	500
68	600
69	1400
70	9999
71	800
103	200
129	50
146	100
