Mass Spectrum: Butane, 2-methyl-3-(methylthio)-
Formula: C6 H14 S
CAS: 53897-51-1
Molecular weight: 118
m/z	RELATIVE INTENSITY
26	250
27	2552
29	1391
35	110
39	1762
40	200
41	3003
42	480
43	4574
44	180
45	1451
46	370
47	1531
48	210
49	430
50	130
51	200
53	410
55	2442
56	180
58	210
59	681
60	340
61	761
69	220
70	701
71	1852
72	130
74	210
75	9999
76	490
77	460
103	180
118	2712
119	220
