Mass Spectrum: Butanoic acid, 2-methylpropyl ester
Formula: C8 H16 O2
CAS: 539-90-2
Molecular weight: 144
Origin: V.Zaikin,Topchiev Inst.Petrochem.Synth.,Moscow
m/z	RELATIVE INTENSITY
26	140
27	410
28	90
29	380
35	100
36	801
38	270
39	480
40	90
41	1251
42	200
43	2783
44	100
49	80
55	190
56	3433
57	1481
58	70
60	490
70	160
71	9999
72	490
73	510
75	60
87	70
88	380
89	1942
90	90
101	721
114	260
116	150
129	10
