Mass Spectrum: Hordenine
Formula: C10 H15 N O
CAS: 539-15-1
Molecular weight: 165
Origin: Japan AIST/NIMC Database- Spectrum MS-NW-9067
m/z	RELATIVE INTENSITY
15	50
27	50
28	20
29	60
30	349
38	10
39	80
40	10
41	30
42	279
43	90
44	60
50	10
51	50
52	20
53	30
55	30
56	40
57	99
58	9999
59	359
63	20
65	50
66	10
71	10
77	139
78	30
79	10
80	10
91	60
93	10
94	10
103	20
107	90
108	10
119	20
120	40
121	80
149	20
162	20
163	20
164	10
165	70
