Mass Spectrum: 4-Amino-4'-(dimethylamino)azobenzene
Formula: C14 H16 N4
CAS: 539-17-3
Molecular weight: 240
Origin: NIST Mass Spectrometry Data Center, 1994
m/z	RELATIVE INTENSITY
14	68
15	165
18	97
27	161
28	479
32	21
38	163
39	1006
40	124
41	363
42	2962
43	147
44	194
50	337
51	579
52	687
53	321
54	149
55	75
62	158
63	613
64	494
65	3085
66	598
67	118
68	202
69	67
74	55
75	108
76	353
77	2065
78	981
79	1557
80	310
81	82
90	415
91	1197
92	6025
93	805
94	188
102	61
103	316
104	1213
105	1694
106	482
107	89
108	75
113	46
117	162
118	626
120	9944
121	939
122	56
127	41
133	226
134	233
135	79
136	74
148	1076
149	115
167	136
168	133
169	90
195	68
196	139
197	72
211	157
212	56
240	9999
241	1671
242	118
