Mass Spectrum: Propanoic acid, 2-mercapto-, methyl ester
Formula: C4 H8 O2 S
CAS: 53907-46-3
Molecular weight: 120
Origin: W. KELLY UNILEVER RESEARCH COLWORTH/WELWYN, BEDFORD U.K.
m/z	RELATIVE INTENSITY
27	2200
29	400
31	240
33	140
34	110
41	130
42	40
43	220
45	1110
46	80
47	200
55	1000
56	400
57	200
58	450
59	3350
60	3900
61	9999
62	500
63	500
75	80
77	80
87	300
88	2120
89	410
90	110
105	150
118	100
119	180
120	4800
121	400
122	300
