Mass Spectrum: [1,1'-Biphenyl]-4-ol, 3,4'-dichloro-
Formula: C12 H8 Cl2 O
CAS: 53905-31-0
Molecular weight: 238
Origin: EP-1377
m/z	RELATIVE INTENSITY
61	90
62	460
63	60
111	100
113	330
114	140
115	80
136	100
137	230
138	450
139	6100
140	600
149	240
150	100
151	110
167	80
168	500
169	70
173	480
174	90
175	280
176	60
177	60
202	180
203	40
204	125
209	160
210	30
211	100
238	9999
239	1300
240	6350
241	900
242	1100
243	100
