Mass Spectrum: [1,1'-Biphenyl]-3-ol, 2',5'-dichloro-
Formula: C12 H8 Cl2 O
CAS: 53905-29-6
Molecular weight: 238
Origin: EP-1374
m/z	RELATIVE INTENSITY
49	150
50	120
61	100
62	220
63	320
64	100
65	100
110	100
111	100
113	300
114	130
115	130
137	200
138	290
139	1980
140	450
149	410
150	200
151	120
161	100
168	1900
169	280
170	100
173	420
174	110
175	700
176	100
177	200
183	180
185	120
186	100
202	405
203	170
204	395
205	100
206	100
209	320
210	100
211	200
238	9999
239	1430
240	6420
241	900
242	1150
243	150
