Mass Spectrum: Cyclopentane, 1,1,3,4-tetramethyl-, cis-
Formula: C9 H18
CAS: 53907-60-1
Molecular weight: 126
Origin: GULF R. ' D. CO., PITTSBURGH, PA, USA
m/z	RELATIVE INTENSITY
14	31
15	640
16	14
26	133
27	2537
28	55
29	1856
30	47
37	37
38	120
39	2670
40	371
41	6077
42	1200
43	2130
44	73
45	27
46	36
47	15
50	94
51	280
52	129
53	882
54	200
55	6057
56	1666
57	668
58	33
62	53
64	33
65	273
66	113
67	760
68	260
69	9999
70	7196
71	1070
72	48
77	294
78	86
79	261
80	73
81	187
82	1400
83	9827
84	2066
85	142
91	126
92	20
93	53
94	20
95	155
96	20
97	41
98	13
105	10
109	47
110	82
111	3999
112	342
113	15
125	15
126	47
