Mass Spectrum: 2-Pentene, 3-ethyl-4,4-dimethyl-
Formula: C9 H18
CAS: 53907-59-8
Molecular weight: 126
m/z	RELATIVE INTENSITY
25	10
26	140
27	3263
28	510
29	3593
30	80
37	20
38	100
39	3253
40	520
41	7797
42	681
43	2002
44	70
45	30
46	60
47	30
48	10
50	90
51	410
52	210
53	1531
54	300
55	8558
56	701
57	2883
58	120
59	10
61	10
62	20
63	90
64	30
65	330
66	150
67	1001
68	160
69	8928
70	951
71	340
72	20
73	10
74	10
75	20
76	10
77	300
78	70
79	320
80	80
81	450
82	90
83	1111
84	110
85	10
86	10
89	10
91	90
92	10
93	60
94	20
95	230
96	130
97	9999
98	801
99	30
105	10
107	10
109	40
110	60
111	3853
112	330
113	20
123	10
124	10
125	10
126	2793
127	280
128	10
