Mass Spectrum: Benzenemethanol, 4-bromo-.alpha.-methyl-
Formula: C8 H9 Br O
CAS: 5391-88-8
Molecular weight: 200
Origin: NIST Mass Spectrometry Data Center
m/z	RELATIVE INTENSITY
14	20
15	140
16	10
19	40
25	10
26	70
27	330
28	30
29	370
30	20
31	20
36	10
37	130
38	360
39	691
40	50
41	60
43	4954
44	190
45	731
46	80
47	10
48	10
49	170
50	2052
51	2542
52	601
53	711
55	70
59	80
60	150
61	150
62	340
63	611
64	90
65	300
66	50
67	10
68	10
69	10
72	10
73	210
74	1161
75	1531
76	1351
77	9999
78	4734
79	480
80	60
81	70
82	40
83	10
84	10
85	50
86	100
87	110
88	40
89	240
90	130
91	591
92	651
93	571
95	10
97	10
98	60
99	120
100	110
101	120
102	520
103	691
104	871
105	701
106	360
107	60
116	20
117	50
118	30
119	80
120	130
121	2752
122	250
123	20
128	30
129	60
130	30
131	60
141	10
143	20
145	10
152	10
155	701
156	831
157	3313
158	971
159	2592
160	170
161	10
169	30
171	30
172	10
173	10
174	10
180	10
181	20
182	110
183	571
185	7797
186	691
187	7086
188	561
189	30
198	30
199	110
200	1892
201	270
202	1802
203	150
204	10
