Mass Spectrum: 6-Nitro-5-hydroxy-1,2-dimethylindole
Formula: C10 H10 N2 O3
CAS: 53918-85-7
Molecular weight: 206
Origin: V.A. KOPTYUG, ATLAS OF MS OF ORG. CMPDS.,VOL3
m/z	RELATIVE INTENSITY
39	1950
40	160
41	1240
42	1240
43	1950
44	240
45	1050
50	310
51	780
52	330
53	720
54	250
55	1500
56	2060
57	2210
60	380
62	170
63	1340
64	550
65	640
66	600
67	550
68	280
69	2440
70	330
71	1100
74	110
75	330
76	330
77	1840
78	940
79	400
80	150
81	1050
82	320
83	780
84	160
85	550
88	140
89	1900
90	1650
91	1100
92	250
93	200
95	500
96	160
97	600
98	100
99	110
102	230
103	880
104	550
105	330
106	130
107	120
109	290
111	320
115	160
116	1160
117	1400
118	550
119	210
123	180
125	140
129	370
130	2600
131	3720
132	3700
133	660
137	150
144	110
145	4300
146	400
147	210
148	1200
149	300
150	110
159	390
160	420
161	760
173	500
176	1100
189	200
205	280
206	9999
207	1200
