Mass Spectrum: 1-Naphthalenecarboxaldehyde, 2-methoxy-
Formula: C12 H10 O2
CAS: 5392-12-1
Molecular weight: 186
Origin: Chuck Anderson, Aldrich Chemical Co.
m/z	RELATIVE INTENSITY
15	307
26	59
27	119
28	223
29	291
30	48
31	74
32	8
37	101
38	244
39	895
40	61
41	69
43	56
44	57
49	57
50	708
51	900
52	164
53	127
55	51
57	132
58	303
61	285
62	1208
63	2270
64	453
65	677
66	68
71	240
72	50
73	104
74	900
75	911
76	541
77	775
78	171
79	40
84	43
85	309
86	723
87	807
88	1046
89	1119
90	108
93	348
97	48
98	286
99	210
100	175
101	364
102	261
103	46
110	79
111	57
112	69
113	1192
114	2770
115	4166
116	484
122	55
125	226
126	5249
127	2916
128	3353
129	2228
130	326
131	40
139	201
140	1260
141	1255
142	2083
143	734
144	536
145	63
154	1562
155	671
156	108
157	682
158	343
159	49
168	1416
169	3395
170	1499
171	1458
172	191
185	5832
186	9999
187	1265
188	135
