Mass Spectrum: cis-11-Hexadecenal
Formula: C16 H30 O
CAS: 53939-28-9
Molecular weight: 238
Origin: NIST Mass Spectrometry Data Center, 1998.
m/z	RELATIVE INTENSITY
15	20
26	30
27	730
28	150
29	1350
30	30
31	50
38	20
39	1100
40	200
41	5549
42	940
43	2420
44	890
45	100
50	20
51	90
52	70
53	850
54	2130
55	9999
56	2310
57	2130
58	230
59	90
63	10
65	280
66	280
67	3920
68	1960
69	4360
70	2210
71	850
72	190
73	50
77	240
78	110
79	1260
80	890
81	3760
82	2830
83	2930
84	1670
85	570
86	170
87	40
91	150
92	50
93	1050
94	790
95	2840
96	2080
97	2160
98	2740
99	330
100	100
101	20
105	40
106	20
107	660
108	550
109	1160
110	870
111	1430
112	870
113	150
114	50
115	20
119	20
120	30
121	1330
122	450
123	400
124	480
125	450
126	160
127	60
128	30
129	10
133	10
134	10
135	720
136	280
137	190
138	330
139	160
140	80
141	30
142	30
149	280
150	100
151	100
152	120
153	90
154	60
155	20
156	30
163	120
164	50
165	40
166	60
167	60
168	40
169	10
170	10
177	60
178	30
179	20
180	10
181	50
182	30
183	10
191	30
192	30
193	10
194	60
195	60
196	30
197	10
207	10
209	30
210	20
220	340
221	60
223	10
238	80
239	10
