Mass Spectrum: 1H-Isoindole-1,3(2H)-dione, 2-(4-bromobutyl)-
Formula: C12 H12 Br N O2
CAS: 5394-18-3
Molecular weight: 281
Origin: NIST Mass Spectrometry Data Center, 1992
m/z	RELATIVE INTENSITY
14	16
15	59
18	53
25	7
26	73
27	498
28	289
29	158
37	26
38	86
39	397
40	74
41	390
42	98
43	25
44	1
45	7
50	806
51	397
52	128
53	155
54	90
55	171
56	90
57	7
58	11
59	4
61	12
62	27
63	67
64	58
65	48
66	132
68	14
69	7
70	49
71	7
72	20
74	303
75	505
76	1669
77	1274
78	120
79	15
80	13
81	22
82	8
87	15
88	11
89	49
90	71
91	28
92	23
93	54
95	37
99	5
102	312
103	180
104	1093
105	803
106	83
107	24
108	4
109	17
115	17
116	21
117	68
118	26
119	7
127	14
128	19
130	958
131	106
132	196
133	744
134	71
135	8
143	5
144	12
145	60
146	60
147	143
148	298
149	33
150	7
154	11
155	10
156	9
157	11
160	9999
161	1020
162	96
163	7
172	19
173	83
174	410
175	101
176	11
182	26
183	17
184	14
185	10
186	24
188	171
189	24
201	1410
202	3339
203	418
204	48
281	121
282	23
283	125
284	23
