Mass Spectrum: 2-Hexene, 3,4,4-trimethyl-
Formula: C9 H18
CAS: 53941-19-8
Molecular weight: 126
m/z	RELATIVE INTENSITY
25	10
26	110
27	2442
28	360
29	2192
30	50
37	10
38	50
39	1762
40	260
41	4034
42	330
43	2092
44	70
45	20
46	10
50	50
51	220
52	120
53	951
54	210
55	8117
56	530
57	1361
58	80
62	10
63	40
64	10
65	160
66	70
67	530
68	80
69	3403
70	430
71	200
72	20
73	10
75	10
76	10
77	160
78	30
79	190
80	40
81	370
82	90
83	500
84	110
85	50
86	10
91	50
92	10
93	30
94	10
95	120
96	190
97	9999
98	891
99	40
100	10
109	30
110	20
111	540
112	50
113	10
126	1581
127	160
128	10
