Mass Spectrum: Bisnortilidine
Formula: C15 H19 N O2
CAS: 53948-51-9
Molecular weight: 245
Origin: Dr. Jiri Zamecnik, DCIEM, North York, Canada, GP Library
m/z	RELATIVE INTENSITY
45	970
51	880
53	190
58	750
60	2220
61	1090
63	690
68	2290
69	9999
72	430
77	3350
78	220
79	1750
80	600
82	500
91	180
92	390
94	330
95	200
98	190
103	830
105	700
107	700
111	5550
115	900
117	840
119	720
128	910
129	480
131	370
135	340
143	870
145	450
147	60
155	2470
156	720
157	520
184	780
185	640
207	590
245	430
