Mass Spectrum: Piperidine, 1,1'-carbonylbis-
Formula: C11 H20 N2 O
CAS: 5395-04-0
Molecular weight: 196
Origin: Japan AIST/NIMC Database- Spectrum MS-NW-7898
m/z	RELATIVE INTENSITY
15	129
18	20
26	20
27	319
28	429
29	309
30	219
39	199
40	40
41	2149
42	599
43	289
44	129
51	10
52	10
53	70
54	109
55	369
56	699
57	99
58	10
65	10
67	99
68	50
69	2539
70	299
71	10
80	10
82	80
83	449
84	9999
85	1429
86	299
87	10
98	30
99	10
110	20
112	1519
113	179
114	20
127	20
128	30
139	50
140	10
141	30
153	30
154	10
167	40
195	20
196	1399
197	229
198	30
