Mass Spectrum: Benzenemethanol, 2,5-dimethyl-
Formula: C9 H12 O
CAS: 53957-33-8
Molecular weight: 136
Origin: Japan AIST/NIMC Database- Spectrum MS-IW- 588
m/z	RELATIVE INTENSITY
14	40
15	30
16	10
18	20
26	40
27	759
28	369
29	229
30	10
31	149
37	30
38	119
39	1239
40	139
41	559
42	30
43	179
44	30
45	40
46	20
49	10
50	369
51	1059
52	309
53	489
54	40
55	90
57	169
58	299
59	169
60	189
61	40
62	169
63	529
64	109
65	1099
66	169
67	239
68	10
69	10
73	10
74	129
75	129
76	109
77	2939
78	719
79	1289
80	90
81	20
85	10
86	40
87	40
88	10
89	219
90	99
91	5009
92	629
93	3499
94	279
95	20
98	20
101	20
102	179
103	1119
104	319
105	1919
106	219
107	1659
108	149
109	10
114	10
115	669
116	179
117	3469
118	9999
119	1699
120	209
121	1909
122	169
123	10
133	299
134	149
135	179
136	3439
137	339
138	20
