Mass Spectrum: 1-Propanamine, N,2-dimethyl-N-nitro-
Formula: C5 H12 N2 O2
CAS: 53951-45-4
Molecular weight: 132
Origin: T. BRYCE UNILEVER RESEARCH COLWORTH/WELWYN, BEDFORD U.K.
m/z	RELATIVE INTENSITY
29	504
30	744
38	129
39	702
40	1065
41	2443
42	4885
43	9999
44	3397
45	127
55	184
56	649
57	175
59	298
70	256
71	256
73	188
77	122
84	102
85	228
86	176
87	111
89	7595
90	267
132	863
