Mass Spectrum: 3-Octene, 4-ethyl-
Formula: C10 H20
CAS: 53966-51-1
Molecular weight: 140
m/z	RELATIVE INTENSITY
25	10
26	90
27	2682
28	320
29	2582
30	60
31	10
37	10
38	40
39	1682
40	310
41	5685
42	701
43	1571
44	60
45	10
46	10
50	40
51	180
52	120
53	951
54	350
55	9999
56	1311
57	841
58	40
62	10
63	30
64	10
65	200
66	100
67	911
68	280
69	8458
70	4284
71	320
72	20
73	10
77	180
78	40
79	200
80	40
81	400
82	150
83	1501
84	510
85	120
86	10
91	50
92	10
93	20
94	10
95	110
96	70
97	1281
98	1461
99	130
100	10
105	10
107	10
109	40
110	40
111	1001
112	130
113	20
114	10
123	10
125	10
127	10
138	10
139	10
140	1692
141	190
142	10
