Mass Spectrum: Chromium, bis(1,3-di(trifluoromethyl)benzene)-
Formula: C16 H8 Cr F12
CAS: 53966-05-5
Molecular weight: 480
Origin: K. KLABUNDE, DEP. CHEM., N. DAK. UNIV.,GRAND FORKS,N. DAK.,U
m/z	RELATIVE INTENSITY
52	9600
69	850
75	770
107	650
126	1300
127	2200
137	380
145	3100
157	960
164	620
176	8100
195	9999
214	1700
247	2000
266	2200
480	650
