Mass Spectrum: 2-Propenoic acid, 3-(3,4-dimethoxyphenyl)-, methyl ester
Formula: C12 H14 O4
CAS: 5396-64-5
Molecular weight: 222
Origin: M.G.HORNING,INST.FOR LIPID RES,BAYLOR COLL.OF MED,HOUSTON,TEX
m/z	RELATIVE INTENSITY
41	80
43	60
45	109
50	310
51	840
52	180
53	200
55	190
59	360
62	200
63	439
64	150
65	310
66	90
67	60
69	80
73	90
74	230
75	210
76	430
77	950
78	219
79	489
80	70
81	70
85	60
86	60
87	130
88	320
89	590
90	260
91	720
92	219
93	130
94	60
95	170
96	109
101	140
102	350
103	439
104	150
105	439
106	120
107	140
108	130
110	100
111	190
115	90
116	90
117	360
118	460
119	790
120	290
121	300
122	80
123	70
129	60
130	90
131	160
132	320
133	540
134	150
135	130
136	310
137	260
138	70
145	330
146	250
147	1211
148	560
149	310
150	80
151	290
160	190
161	230
162	420
163	840
164	760
165	120
175	170
176	180
177	120
178	60
179	390
180	80
181	60
189	160
190	310
191	4754
192	665
193	130
194	60
205	140
206	260
207	1660
208	250
209	70
219	70
220	270
221	650
222	9999
223	1391
224	225
225	60
