Mass Spectrum: Chloroacetic acid, propyl ester
Formula: C5 H9 Cl O2
CAS: 5396-24-7
Molecular weight: 136
Origin: V.G.Zaikin,TIPS,Russian Acad.Sci.Moscow
m/z	RELATIVE INTENSITY
27	280
28	30
29	350
35	130
36	430
38	50
39	470
40	190
41	3513
42	4984
43	9999
44	1862
45	520
47	90
48	330
49	3153
50	320
51	1872
52	591
53	70
55	190
56	250
57	1551
58	180
59	450
60	80
64	350
65	260
68	50
69	160
71	190
72	80
75	50
76	320
77	9759
78	611
79	4814
80	80
81	70
82	50
83	320
85	350
87	50
91	320
92	170
93	290
94	80
95	4054
96	450
97	1291
98	220
101	50
103	120
105	170
107	2452
108	150
109	550
110	120
