Mass Spectrum: Hydrazinecarbodithioic acid, methyl ester
Formula: C2 H6 N2 S2
CAS: 5397-03-5
Molecular weight: 122
m/z	RELATIVE INTENSITY
42	145
43	580
44	290
45	3072
46	927
47	1739
48	609
49	145
58	203
59	1333
60	406
75	1826
76	1623
77	1014
78	725
79	290
91	7391
92	290
93	783
105	638
122	9999
123	319
124	783
