Mass Spectrum: 2,6-Diiodo-4-nitroaniline
Formula: C6 H4 I2 N2 O2
CAS: 5398-27-6
Molecular weight: 390
Origin: NIST Mass Spectrometry Data Center, 1994
m/z	RELATIVE INTENSITY
28	36
30	160
32	24
37	80
38	82
39	177
40	20
44	33
46	31
49	27
50	44
51	88
52	258
53	32
60	46
61	338
62	596
63	823
64	85
65	38
73	26
74	69
75	28
76	45
77	62
78	215
79	28
86	32
87	58
88	109
89	448
90	1001
91	91
105	30
106	78
108	28
127	192
128	40
164	22
165	29
178	19
189	69
190	148
205	82
216	643
217	1467
218	100
232	45
233	339
234	33
264	24
317	20
332	315
344	1138
345	99
360	2623
361	197
374	147
390	9999
391	656
392	73
