Mass Spectrum: 4-Pyridinecarboxylic acid, 2,6-dichloro-
Formula: C6 H3 Cl2 N O2
CAS: 5398-44-7
Molecular weight: 191
Origin: Japan AIST/NIMC Database- Spectrum MS-IW-5544
m/z	RELATIVE INTENSITY
25	10
26	20
27	20
28	30
29	10
35	20
36	219
37	99
38	149
39	40
44	119
45	269
47	50
48	40
49	239
50	779
51	209
52	50
53	40
55	129
56	40
60	169
61	40
62	199
63	40
64	169
65	70
66	10
67	20
69	30
71	10
72	30
73	459
74	169
75	509
76	719
77	60
78	20
83	10
84	189
85	799
86	189
87	319
88	70
89	10
92	129
95	50
96	30
98	10
99	10
100	389
101	30
102	129
103	10
108	10
109	20
110	479
111	169
112	529
113	70
114	129
119	10
120	10
127	30
128	439
129	30
130	139
131	10
135	10
138	30
140	10
145	50
146	949
147	99
148	599
149	50
150	90
154	10
155	30
156	1569
157	119
158	509
159	30
162	40
163	10
164	30
173	119
174	1879
175	209
176	1219
177	99
178	199
179	10
190	10
191	9999
192	709
193	6459
194	469
195	1069
196	80
