Mass Spectrum: Phenacyl thiocyanate
Formula: C9 H7 N O S
CAS: 5399-30-4
Molecular weight: 177
Origin: Chuck Anderson, Aldrich Chemical Co.
m/z	RELATIVE INTENSITY
18	5
26	45
27	203
28	33
32	61
36	86
37	46
38	120
39	282
41	51
42	93
43	72
44	26
45	158
46	64
49	34
50	590
51	1616
52	111
58	91
59	77
61	50
62	113
63	223
64	49
65	468
66	9
72	98
73	60
74	337
75	190
76	250
77	6070
78	419
89	122
91	843
92	63
102	9
105	9999
106	724
107	47
120	133
121	4
