Mass Spectrum: Hydrazine, 1,2-dimethyl-
Formula: C2 H8 N2
CAS: 540-73-8
Molecular weight: 60
Origin: MASS SPECTROMETRY CENTER, UNIV. OF UTAH, ALDRICH D16180-2
m/z	RELATIVE INTENSITY
13	21
15	1245
16	785
17	692
18	397
26	244
27	1646
28	780
29	2444
30	6623
31	1024
32	98
42	669
43	706
44	324
45	9999
46	250
57	363
58	244
59	411
60	8907
61	318
