Mass Spectrum: 1,2-Dibromoethylene
Formula: C2 H2 Br2
CAS: 540-49-8
Molecular weight: 184
Origin: NIST Mass Spectrometry Data Center, 1990.
m/z	RELATIVE INTENSITY
12	197
13	270
14	49
24	438
25	2027
26	6207
27	178
28	25
79	1417
80	344
81	1394
82	263
91	498
92	500
93	841
94	469
95	25
103	372
104	1780
105	9020
106	1946
107	8430
108	170
158	68
160	118
162	59
182	58
184	5348
186	9999
188	5121
189	103
