Mass Spectrum: Butanoic acid, pentyl ester
Formula: C9 H18 O2
CAS: 540-18-1
Molecular weight: 158
Origin: Japan AIST/NIMC Database- Spectrum MS-NW-8457
m/z	RELATIVE INTENSITY
14	10
15	119
17	10
18	60
19	10
26	99
27	1999
28	459
29	1519
30	40
31	149
32	10
37	10
38	40
39	949
40	199
41	3149
42	3359
43	9999
44	389
45	179
47	20
51	20
53	99
54	70
55	2439
56	159
57	179
58	50
59	10
60	769
61	209
67	30
68	30
69	649
70	4919
71	9109
72	409
73	579
74	20
85	109
86	139
87	109
88	459
89	4549
90	199
91	20
97	10
100	10
101	299
102	40
115	129
116	10
128	10
129	30
130	60
159	20
