Mass Spectrum: Aminoacetonitrile
Formula: C2 H4 N2
CAS: 540-61-4
Molecular weight: 56
Origin: NIST Mass Spectrometry Data Center
m/z	RELATIVE INTENSITY
16	20
24	20
25	30
26	120
27	540
28	1842
29	1812
30	1481
31	40
38	330
39	360
40	651
41	110
45	20
52	180
53	1421
54	290
55	9999
56	5505
57	150
