Mass Spectrum: 9-Heptadecanone
Formula: C17 H34 O
CAS: 540-08-9
Molecular weight: 254
Origin: NIST Mass Spectrometry Data Center, 1990.
m/z	RELATIVE INTENSITY
27	1835
28	1128
29	3718
30	122
39	1008
41	6697
42	1747
43	8501
44	409
53	427
55	4970
56	1137
57	8140
58	6326
59	2131
67	1296
68	458
69	1143
70	427
71	9999
72	1003
73	167
77	92
79	208
81	1738
82	1204
83	992
84	357
85	1143
86	234
95	813
96	3327
97	751
98	1155
99	385
100	992
101	94
109	415
110	129
111	111
112	94
113	1339
114	690
123	457
127	1000
128	235
138	418
139	101
141	7837
142	894
156	1815
157	1484
158	148
169	1028
170	164
183	317
211	168
225	155
254	159
