Mass Spectrum: 1,2-Ethanedithiol
Formula: C2 H6 S2
CAS: 540-63-6
Molecular weight: 94
Origin: Japan AIST/NIMC Database- Spectrum MS-IW-5648
m/z	RELATIVE INTENSITY
12	10
13	10
14	20
15	40
24	10
25	60
26	439
27	3079
28	579
29	40
32	549
33	679
34	1249
35	2269
36	80
37	99
38	10
41	10
44	299
45	3839
46	1889
47	8969
48	1059
49	619
50	50
51	10
55	10
56	109
57	729
58	1739
59	4239
60	9999
61	5159
62	609
63	219
64	349
65	269
66	199
67	40
68	10
76	229
77	30
78	40
79	40
88	50
89	20
90	30
91	90
92	109
93	30
94	9259
95	359
96	849
97	30
98	20
