Mass Spectrum: Hexanoic acid, pentyl ester
Formula: C11 H22 O2
CAS: 540-07-8
Molecular weight: 186
Origin: Japan AIST/NIMC Database- Spectrum MS-NW-5154
m/z	RELATIVE INTENSITY
14	10
15	90
17	10
18	70
26	80
27	1649
28	439
29	2389
30	60
31	129
32	40
37	10
38	30
39	899
40	199
41	3139
42	3049
43	9469
44	319
45	249
50	10
51	40
52	20
53	179
54	119
55	2989
56	369
57	439
58	99
59	119
60	1919
61	1259
62	40
63	10
65	20
66	10
67	80
68	99
69	1099
70	9999
71	4289
72	239
73	1599
74	229
75	209
76	10
79	10
80	40
81	80
82	20
83	159
84	50
85	149
86	60
87	979
88	80
89	489
90	20
95	10
96	10
97	149
98	129
99	7499
100	569
101	159
102	159
103	30
111	10
112	40
113	279
114	70
115	279
116	469
117	6999
118	479
119	40
125	10
127	90
128	20
129	99
130	359
131	329
132	30
141	50
142	10
143	109
144	30
145	109
146	10
156	10
157	60
158	20
159	70
160	10
186	10
187	10
