Mass Spectrum: 12-Tricosanone
Formula: C23 H46 O
CAS: 540-09-0
Molecular weight: 338
Origin: Japan AIST/NIMC Database- Spectrum MS-NW-5910
m/z	RELATIVE INTENSITY
15	20
18	10
26	30
27	669
28	209
29	1959
30	50
31	10
33	10
36	10
37	10
38	10
39	449
40	90
41	3579
42	779
43	6429
44	239
45	50
50	10
51	20
52	10
53	259
54	299
55	3069
56	869
57	5929
58	3919
59	1629
60	60
61	10
63	10
65	40
66	40
67	839
68	419
69	1509
70	469
71	3669
72	379
73	40
77	50
78	10
79	149
80	80
81	1009
82	1339
83	1339
84	399
85	1969
86	209
87	50
91	30
93	80
94	60
95	1469
96	1869
97	939
98	409
99	409
100	669
101	99
102	10
103	10
105	20
107	50
108	30
109	909
110	639
111	379
112	139
113	429
114	419
115	90
119	10
121	40
122	10
123	369
124	389
125	119
126	30
127	669
128	119
129	20
135	20
136	10
137	119
138	1919
139	259
140	789
141	289
142	229
143	40
145	10
149	20
151	90
152	60
153	40
154	50
155	419
156	249
157	50
160	10
163	10
165	149
166	80
167	30
168	20
169	169
170	99
171	20
174	10
177	10
178	10
179	20
180	619
181	109
182	149
183	9999
184	1429
185	119
186	10
192	10
193	10
194	40
195	10
196	30
197	20
198	3269
199	3069
200	459
201	40
208	30
209	30
210	10
211	1209
212	219
213	30
221	10
222	70
223	30
225	359
226	90
227	30
235	20
236	50
237	20
238	10
239	109
240	179
241	20
249	10
250	10
251	10
253	80
254	70
255	20
265	10
267	149
268	40
281	20
282	40
283	20
295	90
296	60
297	10
309	70
310	30
319	10
320	90
321	30
322	10
323	40
324	10
337	99
338	749
339	229
340	40
