Mass Spectrum: N,1-Dimethylhexylamine
Formula: C8 H19 N
CAS: 540-43-2
Molecular weight: 129
Origin: V.G.Zaikin, TIPS, Russian Acad. Sci., Moscow
m/z	RELATIVE INTENSITY
29	750
30	810
39	330
41	780
42	590
43	490
44	680
55	240
56	380
57	310
58	9999
59	430
67	10
68	10
69	40
70	120
71	70
72	20
84	10
114	30
129	10
