Mass Spectrum: 1,2-Dichloroethylene
Formula: C2 H2 Cl2
CAS: 540-59-0
Molecular weight: 96
Origin: NIST Mass Spectrometry Data Center
m/z	RELATIVE INTENSITY
12	10
13	20
24	90
25	480
26	1081
27	20
35	731
36	120
37	250
38	40
47	460
48	470
49	300
50	130
51	20
59	230
60	2222
61	9999
62	901
63	3303
64	60
70	80
72	50
94	50
95	160
96	6916
97	250
98	4434
99	110
100	721
101	10
