Mass Spectrum: Ethane, methoxy-
Formula: C3 H8 O
CAS: 540-67-0
Molecular weight: 60
m/z	RELATIVE INTENSITY
12	100
13	240
14	681
15	2502
16	90
17	60
18	10
19	10
24	20
25	110
26	801
27	2042
28	791
29	4904
30	340
31	1992
32	210
33	190
34	10
37	10
38	10
39	20
40	10
41	80
42	170
43	691
44	80
45	9999
46	230
47	20
55	10
56	10
57	20
58	50
59	1081
60	2582
61	90
62	10
