Mass Spectrum: Acetic acid, 1,1-dimethylethyl ester
Formula: C6 H12 O2
CAS: 540-88-5
Molecular weight: 116
Origin: Chuck Anderson, Aldrich Chemical Co.
m/z	RELATIVE INTENSITY
13	5
14	65
15	666
16	11
18	2
26	44
27	464
28	189
29	1549
30	35
31	329
32	3
36	3
37	25
38	80
39	1053
40	192
41	3759
42	387
43	9999
44	218
45	72
50	35
51	43
52	6
53	55
54	14
55	255
56	3036
57	4297
58	202
59	3140
60	103
61	196
73	14
101	2045
102	103
103	10
