Mass Spectrum: Pentanamide, N-ethyl-
Formula: C7 H15 N O
CAS: 54007-33-9
Molecular weight: 129
Origin: CARL DJERASSI DEPT OF CHEM STANFORD UNIV STANFORD CALIF 94305
m/z	RELATIVE INTENSITY
29	5100
30	4100
39	300
41	1800
42	500
43	700
44	5100
45	500
46	700
55	1200
56	400
57	3000
58	200
59	400
72	7800
73	300
85	1100
86	300
87	9999
88	400
100	1600
101	200
129	100
