Mass Spectrum: 4-t-Butylcyclohexylamine
Formula: C10 H21 N
CAS: 5400-88-4
Molecular weight: 155
Origin: NIST Mass Spectrometry Data Center
m/z	RELATIVE INTENSITY
17	10
18	120
27	190
28	591
29	140
30	701
38	50
39	601
41	1341
42	681
43	1862
44	120
51	100
52	60
53	270
54	150
56	9999
57	931
58	50
65	80
67	550
68	120
69	320
70	100
77	120
78	50
79	210
80	140
81	751
82	250
83	100
84	450
93	40
94	70
95	270
96	160
98	270
99	40
109	110
110	70
123	400
124	40
138	110
140	50
154	70
155	400
156	50
