Mass Spectrum: Hydrazine, 2-butyl-1,1-dimethyl-
Formula: C6 H16 N2
CAS: 54007-23-7
Molecular weight: 116
Origin: ATLAS OF MASS SPECTRA OF ORGANIC COMPOUNDS, V. A. KOPTYUG, ED.
m/z	RELATIVE INTENSITY
28	440
29	400
30	650
32	170
39	120
40	30
41	350
42	710
43	470
44	810
45	650
46	320
55	30
56	40
57	210
58	70
59	9999
60	290
71	70
72	70
73	1800
74	90
101	100
116	1800
117	190
