Mass Spectrum: 2-Pentanol, propanoate
Formula: C8 H16 O2
CAS: 54004-43-2
Molecular weight: 144
m/z	RELATIVE INTENSITY
14	30
15	90
16	30
17	210
18	1061
26	180
27	1261
28	1732
29	4114
30	110
31	110
32	180
39	711
40	120
41	1281
42	1521
43	3373
44	250
45	591
53	180
54	90
55	2482
56	290
57	9999
58	330
67	60
69	130
70	2492
71	1301
72	120
73	80
74	210
75	731
87	180
100	180
101	1221
102	80
115	120
116	50
129	150
144	50
