Mass Spectrum: Hydrazine, 1,1-dimethyl-2-(1-methylpropyl)-
Formula: C6 H16 N2
CAS: 54007-24-8
Molecular weight: 116
Origin: ATLAS OF MASS SPECTRA OF ORGANIC COMPOUNDS, V. A. KOPTYUG, ED.
m/z	RELATIVE INTENSITY
27	400
28	460
29	540
30	370
31	50
39	130
41	380
42	850
43	570
44	2100
45	1500
46	230
55	100
56	100
57	280
58	370
59	9999
60	1000
70	60
71	80
72	160
85	50
86	40
87	1700
88	100
101	300
116	2900
117	310
