Mass Spectrum: 1-Pentanol, 4-methyl-2-propyl-
Formula: C9 H20 O
CAS: 54004-41-0
Molecular weight: 144
Origin: M.C. HAMMING CONTINENTAL OIL CO., PONCA CITY, OKLA, USA
m/z	RELATIVE INTENSITY
13	12
14	62
15	455
16	24
17	24
18	74
19	49
24	6
25	12
26	156
27	2921
28	374
29	2958
30	118
31	1629
32	18
33	24
37	43
38	99
39	1878
40	362
41	5761
42	1235
43	6941
44	343
45	287
46	12
50	49
51	131
52	62
53	449
54	168
55	3445
56	4756
57	9999
58	480
59	162
60	6
61	6
62	12
63	31
64	12
65	81
66	49
67	274
68	330
69	3283
70	1535
71	5761
72	337
73	87
74	12
77	49
78	12
79	49
80	12
81	68
82	156
83	1978
84	948
85	174
86	62
87	31
91	12
93	6
95	12
96	12
97	156
98	262
99	37
100	12
101	6
111	337
112	174
113	230
114	18
126	162
127	18
129	18
