Mass Spectrum: 2-Butenoic acid, 3-methyl-, butyl ester
Formula: C9 H16 O2
CAS: 54056-51-8
Molecular weight: 156
Origin: V.G.Zaikin, TIPS RAS, Moscow, Russia
m/z	RELATIVE INTENSITY
25	30
26	681
27	3984
28	971
29	4714
30	180
31	140
35	30
36	110
37	180
38	561
39	3984
40	681
41	2712
42	520
43	711
44	320
45	190
46	10
48	10
49	70
50	410
51	470
52	280
53	1311
54	651
55	3883
56	821
57	911
58	90
59	290
60	20
66	30
67	260
68	60
69	120
70	30
71	70
72	90
73	30
77	30
79	60
81	60
82	1922
83	9999
84	591
85	1051
86	70
91	10
93	10
99	70
100	4254
101	1571
102	80
113	70
141	30
156	681
157	30
