Mass Spectrum: 6-Methyl-3-heptyne
Formula: C8 H14
CAS: 54050-92-9
Molecular weight: 110
Origin: NIST Mass Spectrometry Data Center, 1994
m/z	RELATIVE INTENSITY
14	79
15	817
16	31
17	17
18	53
26	363
27	3859
28	444
29	676
37	194
38	587
39	5349
40	1577
41	7373
42	1021
43	6295
44	221
46	30
49	53
50	697
51	1391
52	764
53	2971
54	352
55	1771
56	504
57	55
61	98
62	264
63	537
64	151
65	1208
66	785
67	9999
68	2066
69	331
70	64
75	48
77	820
78	197
79	892
80	279
81	1941
82	446
83	40
91	324
93	479
95	2666
96	213
110	3710
111	313
