Mass Spectrum: 1,1'-Binaphthalene, 3,3',4,4'-tetrahydro-
Formula: C20 H18
CAS: 5405-96-9
Molecular weight: 258
Origin: CONTINENTAL OIL CO., PONCA CITY, OKLA., USA
m/z	RELATIVE INTENSITY
13	25
14	62
15	128
16	12
25	6
26	45
27	642
28	99
29	107
30	8
37	12
38	62
39	635
40	51
41	134
42	17
43	62
44	12
49	9
50	190
51	582
52	130
53	87
54	10
55	31
56	12
57	39
58	6
61	15
62	109
63	466
64	101
65	236
66	33
67	16
69	17
70	20
71	14
73	43
74	127
75	279
76	209
77	597
78	194
79	83
81	32
83	45
84	38
85	30
86	67
87	154
88	209
89	298
90	76
91	406
92	76
93	23
94	71
95	72
96	19
97	12
98	87
99	105
100	204
101	640
102	452
103	231
104	194
105	139
106	83
107	165
108	297
109	57
110	44
111	70
112	169
113	687
114	724
115	485
116	342
117	433
118	112
119	214
120	500
121	211
122	52
123	30
124	62
125	287
126	667
127	675
128	3657
129	4000
130	555
131	176
132	17
134	11
135	17
136	8
137	30
138	30
139	267
140	67
141	338
142	388
143	289
144	36
145	6
146	15
147	6
149	30
150	125
151	203
152	556
153	311
154	151
155	42
156	6
157	10
161	20
162	37
163	194
164	117
165	612
166	206
167	485
168	72
169	9
173	6
174	48
175	54
176	165
177	72
178	199
179	157
180	48
181	45
182	21
185	16
186	27
187	113
188	74
189	321
190	85
191	80
192	30
193	16
198	25
199	42
200	176
201	154
202	846
203	357
204	149
205	96
206	8
210	7
211	74
212	80
213	303
214	191
215	1966
216	732
217	639
218	134
219	43
222	36
223	48
224	138
225	152
226	630
227	537
228	617
229	2227
230	1941
231	522
232	114
235	30
236	53
237	126
238	125
239	346
240	468
241	692
242	513
243	631
244	342
245	56
248	54
249	57
250	190
251	112
252	453
253	343
254	170
255	433
256	732
257	3060
258	9999
259	2574
260	289
