Mass Spectrum: 4-Chloro-2,4-dimethylhexane
Formula: C8 H17 Cl
CAS: 54059-76-6
Molecular weight: 148
Origin: NIST Mass Spectrometry Data Center, 1990.
m/z	RELATIVE INTENSITY
15	206
27	1631
28	61
29	1114
32	5
35	312
36	739
38	553
39	2919
40	805
41	6841
42	1431
43	3676
44	172
50	268
51	513
52	257
53	1420
54	172
55	9999
56	1859
57	2279
58	121
63	383
65	451
66	142
67	1067
68	661
69	4120
70	6953
71	1649
76	210
77	584
78	129
79	432
80	129
81	330
82	129
83	7067
84	841
90	541
91	925
92	219
93	298
97	1123
112	2374
113	627
119	143
121	50
