Mass Spectrum: 1-Butanone, 1,4-diphenyl-
Formula: C16 H16 O
CAS: 5407-91-0
Molecular weight: 224
Origin: D.HENNEBERG, MAX-PLANCK INSTITUTE, MULHEIM, WEST GERMANY
m/z	RELATIVE INTENSITY
27	64
28	288
29	12
30	17
31	3
32	24
34	4
36	5
38	3
39	82
40	9
41	112
42	18
43	43
44	73
46	3
48	4
49	5
50	33
51	320
52	42
53	15
54	5
55	182
56	11
57	12
58	8
59	17
62	3
63	19
64	12
65	325
66	23
67	5
68	4
69	8
70	4
71	5
73	21
74	6
75	14
76	71
77	3074
78	1307
79	718
80	42
81	1
82	4
89	44
90	38
91	1341
92	259
93	15
94	7
95	6
96	3
97	4
99	4
100	4
101	6
102	36
103	211
104	2890
105	4183
106	341
107	1139
108	82
109	5
110	3
112	30
113	3
114	6
115	39
116	2
118	13
119	28
120	9999
121	887
122	54
123	8
127	3
132	10
133	89
134	6
141	4
144	1
145	7
146	10
147	11
151	2
152	1
153	7
154	6
166	1
167	9
176	3
192	3
194	3
196	6
201	3
202	7
203	7
204	12
205	11
206	12
209	17
210	9
220	4
221	10
222	5
223	6
224	1734
225	273
226	64
227	8
