Mass Spectrum: Butane, 2,3-dibromo-
Formula: C4 H8 Br2
CAS: 5408-86-6
Molecular weight: 214
m/z	RELATIVE INTENSITY
15	60
18	90
25	40
26	430
27	3163
28	581
29	2542
30	60
36	20
37	90
38	210
39	1892
40	160
41	991
42	40
43	50
49	80
50	330
51	350
52	130
53	761
54	160
55	9208
56	901
57	70
79	80
80	50
81	80
82	50
91	40
93	130
95	110
104	10
105	60
106	130
107	1371
108	140
109	1301
110	30
119	150
121	160
133	20
134	20
135	9999
136	490
137	9859
138	450
139	10
214	190
215	20
216	370
217	20
218	180
219	10
