Mass Spectrum: Dibenzofuran, 2,8-dichloro-
Formula: C12 H6 Cl2 O
CAS: 5409-83-6
Molecular weight: 236
Origin: J.E. WILKINSON S-CUBED, SAN DIEGO, CA.
m/z	RELATIVE INTENSITY
47	39
49	142
50	767
51	236
52	3
53	115
54	9
55	36
56	6
60	91
61	306
62	521
63	536
67	9
68	76
69	33
72	100
73	673
74	945
75	339
76	6
77	3
84	48
85	209
86	809
87	782
88	58
96	9
97	133
98	385
99	218
100	21
108	15
109	76
110	194
111	239
112	27
113	9
118	109
119	58
120	15
121	21
122	21
123	79
124	3
125	6
133	6
134	15
135	9
136	9
137	791
138	809
139	33
145	3
147	115
148	6
149	21
171	9
172	30
173	2969
174	161
175	688
176	30
200	15
201	79
202	9
203	12
207	39
209	12
235	6
236	9999
237	936
238	6302
239	451
240	658
241	18
