Mass Spectrum: Benzene, 1,3-dichloro-
Formula: C6 H4 Cl2
CAS: 541-73-1
Molecular weight: 146
Origin: NIST Mass Spectrometry Data Center, 1998.
m/z	RELATIVE INTENSITY
25	20
26	40
27	20
35	80
36	80
37	390
38	310
39	80
47	110
48	70
49	450
50	1870
51	560
52	30
55	380
56	120
59	10
60	180
61	280
62	170
63	160
64	10
71	30
72	160
73	960
74	1890
75	3110
76	450
77	20
82	10
83	20
84	400
85	440
86	200
87	140
88	20
95	10
96	30
97	80
98	20
99	30
106	10
107	50
108	80
109	240
110	350
111	4510
112	400
113	1450
114	90
118	10
119	10
120	30
121	10
122	20
131	10
133	10
146	9999
147	700
148	6349
149	430
150	1030
151	70
