Mass Spectrum: Butane, 1-iodo-3-methyl-
Formula: C5 H11 I
CAS: 541-28-6
Molecular weight: 198
m/z	RELATIVE INTENSITY
15	60
26	120
27	1702
28	270
29	1311
30	30
37	30
38	90
39	961
40	140
41	2572
42	410
43	9999
44	350
45	20
50	60
51	80
52	30
53	200
54	50
55	1832
56	180
57	80
58	10
59	10
67	20
68	10
69	140
70	120
71	7347
72	410
91	40
92	40
102	10
111	10
127	420
128	110
129	20
139	10
140	10
141	170
142	30
152	10
153	20
154	70
155	671
156	30
168	70
183	80
184	30
185	10
198	3773
199	210
