Mass Spectrum: Lewisite
Formula: C2 H2 As Cl3
CAS: 541-25-3
Molecular weight: 206
Origin: VERIFINN
m/z	RELATIVE INTENSITY
26	320
35	150
36	150
37	60
43	110
60	100
61	2923
62	80
63	981
75	2152
76	100
88	140
99	470
100	1551
101	280
110	8638
112	2993
134	250
135	500
136	270
137	140
145	9999
147	6176
149	1041
171	3663
172	50
173	2432
175	400
180	4244
182	4194
184	1271
186	160
206	7517
208	7216
210	2442
212	190
