Mass Spectrum: Thiazole, 2,4-dimethyl-
Formula: C5 H7 N S
CAS: 541-58-2
Molecular weight: 113
m/z	RELATIVE INTENSITY
37	300
38	600
39	1900
40	400
41	600
42	1200
44	400
45	2800
46	400
47	200
52	200
57	400
58	400
59	500
68	300
69	900
70	400
71	7799
72	9699
73	800
74	600
76	200
78	400
112	200
113	9999
114	800
115	600
