Mass Spectrum: Acetic acid, chloro-, anhydride
Formula: C4 H4 Cl2 O3
CAS: 541-88-8
Molecular weight: 170
Origin: RADIAN CORP
m/z	RELATIVE INTENSITY
13	30
14	90
16	10
26	10
27	10
29	130
31	10
35	90
36	20
37	30
38	10
39	10
40	30
41	150
42	720
43	20
44	80
45	70
47	210
48	320
49	2940
50	250
51	1010
52	50
63	30
64	20
65	40
76	250
77	9999
78	310
79	3350
80	70
81	10
92	30
93	40
94	20
95	20
105	10
107	20
120	140
121	150
123	30
133	10
148	30
149	70
