Mass Spectrum: Butanamide
Formula: C4 H9 N O
CAS: 541-35-5
Molecular weight: 87
Origin: Japan AIST/NIMC Database- Spectrum MS-NW-5048
m/z	RELATIVE INTENSITY
12	10
13	20
14	70
15	259
16	109
17	179
18	149
25	30
26	369
27	2659
28	409
29	2609
30	179
31	50
36	20
37	199
38	279
39	1159
40	309
41	5339
42	749
43	3219
44	6629
45	319
46	169
49	10
50	20
51	70
52	139
53	40
54	99
55	699
56	30
58	20
59	9999
60	299
61	20
62	10
63	20
64	60
65	10
66	50
67	30
68	60
69	179
70	99
71	799
72	1919
73	80
86	299
87	289
88	50
