Mass Spectrum: Butane, 1,1-dichloro-
Formula: C4 H8 Cl2
CAS: 541-33-3
Molecular weight: 126
m/z	RELATIVE INTENSITY
2	40
12	50
13	80
14	170
15	701
16	20
24	20
25	120
26	1221
27	5845
28	741
29	2102
30	50
31	10
32	10
35	200
36	220
37	310
38	430
39	2172
40	220
41	3293
42	380
43	7717
44	280
45	20
46	10
47	120
48	130
49	631
50	330
51	490
52	80
53	651
54	1471
55	9999
56	450
57	20
58	10
59	10
60	90
61	510
62	2042
63	651
64	651
65	160
66	10
69	10
70	10
71	10
72	20
73	90
74	10
75	881
76	90
77	400
78	40
79	40
80	10
82	10
83	330
84	20
85	220
86	10
87	50
88	10
89	110
90	530
91	851
92	200
93	260
94	10
95	10
96	50
97	80
98	40
99	50
100	10
101	10
110	10
111	20
112	10
113	10
124	10
125	10
126	10
127	10
128	10
