Mass Spectrum: Cyclotrisiloxane, hexamethyl-
Formula: C6 H18 O3 Si3
CAS: 541-05-9
Molecular weight: 222
Origin: NIST Mass Spectrometry Data Center, 1994
m/z	RELATIVE INTENSITY
14	37
15	215
26	18
27	96
28	88
29	115
32	9
43	44
45	122
47	35
58	19
59	91
61	118
66	12
71	16
72	22
73	157
74	59
75	192
76	17
77	17
81	101
82	85
83	16
85	17
87	157
88	78
89	197
90	19
91	15
96	1493
101	12
102	51
103	269
104	59
105	76
115	195
116	29
117	94
119	275
120	41
121	31
131	40
133	829
134	111
135	84
147	200
148	51
149	87
150	12
161	124
162	45
163	252
164	45
165	117
166	22
175	23
176	83
177	367
178	83
179	68
189	42
191	960
192	194
193	281
194	49
195	24
203	13
207	9999
208	2073
209	1189
210	174
211	42
