Mass Spectrum: Carbonochloridic acid, ethyl ester
Formula: C3 H5 Cl O2
CAS: 541-41-3
Molecular weight: 108
Origin: NIST Mass Spectrometry Data Center, 1990.
m/z	RELATIVE INTENSITY
12	45
13	68
14	251
15	470
16	44
17	13
18	26
19	26
24	25
25	137
26	885
27	3188
28	2811
29	9999
30	503
31	17
35	445
36	53
37	168
38	23
40	8
41	42
42	116
43	377
44	704
45	892
46	41
47	41
48	12
49	33
51	25
58	35
63	3171
64	182
65	1061
66	55
73	20
81	41
83	14
93	452
94	16
95	144
107	33
109	13
