Mass Spectrum: Benzoic acid, p-chloro-, p-methoxyphenyl ester
Formula: C14 H11 Cl O3
CAS: 5410-99-1
Molecular weight: 262
Origin: Zaikin V.G., TIPS RAS, Moscow, Russia
m/z	RELATIVE INTENSITY
28	20
41	50
50	40
51	30
52	30
75	270
76	100
95	110
104	70
109	30
111	1501
112	100
113	480
123	180
124	30
139	9999
140	791
141	3393
142	240
262	2012
263	320
264	691
265	100
