Mass Spectrum: (2-Methylbutyl)cyclohexane
Formula: C11 H22
CAS: 54105-77-0
Molecular weight: 154
Origin: NIST Mass Spectrometry Data Center, 1990.
m/z	RELATIVE INTENSITY
14	166
27	1348
28	1132
29	2446
32	316
39	2336
41	5958
42	941
43	1151
51	238
52	174
53	1151
54	1451
55	9999
56	1804
57	2200
58	119
65	321
67	2856
68	725
69	5049
70	1507
71	579
77	371
79	414
80	128
81	961
82	3549
83	8338
84	629
91	116
95	127
96	735
97	1779
98	163
124	805
125	3757
126	444
154	1024
155	131
