Mass Spectrum: 1,3-Diphenyl-2,3-epoxy-1-propanone
Formula: C15 H12 O2
CAS: 5411-12-1
Molecular weight: 224
Origin: Japan AIST/NIMC Database- Spectrum MS-IW-4889
m/z	RELATIVE INTENSITY
18	20
27	70
28	30
29	20
37	10
38	70
39	359
40	50
41	40
49	10
50	349
51	1289
52	119
53	20
61	20
62	129
63	499
64	239
65	379
66	20
69	90
73	10
74	109
75	129
76	219
77	5479
78	409
79	40
82	20
83	30
84	10
86	20
87	30
88	30
89	1669
90	1829
91	1309
92	99
97	10
98	20
101	10
102	90
103	90
104	30
105	9999
106	979
107	70
112	20
115	20
118	159
119	90
120	10
128	10
131	20
139	10
146	50
147	80
151	10
152	109
153	10
165	149
166	70
167	249
168	30
176	10
177	50
178	80
179	60
180	10
181	10
194	40
195	269
196	80
197	10
205	20
206	20
207	99
208	90
209	10
223	319
224	3989
225	679
226	60
