Mass Spectrum: 4,7-Methano-1H-inden-6-ol, 3a,4,5,6,7,7a-hexahydro-, acetate
Formula: C12 H16 O2
CAS: 5413-60-5
Molecular weight: 192
Origin: W.Jennings, T.Shibamoto
m/z	RELATIVE INTENSITY
29	10
41	190
43	4994
44	70
54	280
55	190
65	70
66	9999
67	4314
68	190
77	190
78	591
79	591
80	280
81	70
82	1191
83	1291
84	190
91	1121
92	190
93	190
103	70
104	1121
105	911
106	190
107	70
109	70
117	1792
118	70
119	70
121	70
124	991
125	390
126	390
131	390
132	3143
133	390
150	190
192	390
