Mass Spectrum: Cyclopentyl acetylene
Formula: C7 H10
CAS: 54140-30-6
Molecular weight: 94
Origin: NIST Mass Spectrometry Data Center, 1990.
m/z	RELATIVE INTENSITY
12	11
13	15
14	22
15	131
17	21
18	133
24	13
25	41
26	354
27	1255
28	425
29	202
30	9
32	48
36	27
37	263
38	637
39	3069
40	1066
41	1114
42	657
43	69
45	45
48	13
49	95
50	746
51	1093
52	1659
53	818
54	281
55	255
56	11
60	28
61	133
62	319
63	539
64	162
65	1453
66	1245
67	498
68	649
69	41
73	20
74	60
75	30
76	20
77	2236
78	20
79	9999
80	664
81	23
84	8
85	21
86	23
87	16
89	40
91	1142
92	149
93	1231
94	562
95	45
