Mass Spectrum: Bicyclo[5.1.0]octane, 8-(1-methylethylidene)-
Formula: C11 H18
CAS: 54166-47-1
Molecular weight: 150
Origin: THE OHIO STATE UNIVERSITY, DEPT OF CHEM., COLUMBUS, OHIO, USA
m/z	RELATIVE INTENSITY
15	702
26	526
27	5439
28	2456
29	4386
31	1930
32	147
39	7368
40	1404
41	9999
42	2281
43	4386
45	1930
50	702
51	2456
52	1228
53	4035
54	1579
55	4561
56	877
57	1053
59	1404
63	1053
65	1930
66	1404
67	8421
68	2632
69	2281
77	3860
78	1228
79	8947
80	2105
81	4561
82	2456
91	4386
92	877
93	6491
94	2281
95	2105
96	877
105	1754
106	877
107	8421
108	1930
109	1228
121	1754
122	1053
135	3860
136	702
150	2982
151	526
