Mass Spectrum: 2-Hydroxy-5-nitropyridine
Formula: C5 H4 N2 O3
CAS: 5418-51-9
Molecular weight: 140
Origin: Japan AIST/NIMC Database- Spectrum MS-NW-6541
m/z	RELATIVE INTENSITY
12	10
13	10
14	30
15	10
16	10
18	20
24	20
25	70
26	289
27	259
28	1969
29	239
30	579
32	40
36	80
37	719
38	1639
39	5919
40	419
41	70
42	119
43	30
44	90
45	60
46	80
48	20
49	119
50	639
51	449
52	519
53	229
54	449
55	689
56	60
57	10
62	50
63	119
64	319
65	609
66	2609
67	899
68	339
69	80
70	20
71	10
74	10
75	70
76	70
77	30
78	30
79	149
80	619
81	60
82	589
83	40
92	60
93	999
94	929
95	109
96	159
97	10
109	20
110	929
111	60
112	349
113	20
122	50
123	119
124	269
125	20
140	9999
141	659
142	80
