Mass Spectrum: Boric acid (H3BO3), tris(1-methylethyl) ester
Formula: C9 H21 B O3
CAS: 5419-55-6
Molecular weight: 188
Origin: Japan AIST/NIMC Database- Spectrum MS-NW-3802
m/z	RELATIVE INTENSITY
15	289
18	30
26	70
27	1159
28	259
29	189
31	279
32	70
37	30
38	60
39	619
40	169
41	1729
42	659
43	5849
44	1049
45	6009
46	90
47	20
51	10
53	10
54	10
55	80
56	20
57	60
58	129
59	2439
60	90
62	20
63	70
67	20
68	10
69	209
70	80
71	369
72	259
73	549
74	20
75	20
77	20
78	30
79	10
83	40
84	50
85	129
86	2469
87	9999
88	549
89	839
90	60
91	179
92	20
93	30
97	10
98	10
99	40
100	20
101	70
102	269
103	999
104	60
105	80
106	20
111	10
112	20
113	70
114	309
115	1209
116	90
117	70
118	10
128	969
129	3939
130	939
131	2749
132	209
133	179
143	10
144	109
145	409
146	70
147	10
156	20
157	90
158	40
159	50
171	10
172	1589
173	6479
174	599
175	80
186	50
187	209
188	20
