Mass Spectrum: 2-Chloroethyl methyl sulfide
Formula: C3 H7 Cl S
CAS: 542-81-4
Molecular weight: 110
Origin: Japan AIST/NIMC Database- Spectrum MS-NW-4006
m/z	RELATIVE INTENSITY
13	10
14	40
15	129
25	30
26	279
27	1929
28	209
29	80
32	60
33	30
34	30
35	959
36	70
37	50
38	20
39	60
41	649
42	20
43	50
44	80
45	1269
46	639
47	1579
48	969
49	559
50	99
51	50
52	10
56	10
57	119
58	309
59	619
60	209
61	9999
62	369
63	1049
64	40
65	189
69	10
73	90
74	129
75	799
76	50
77	40
79	30
80	10
81	30
82	90
83	20
84	30
91	60
92	40
93	50
94	50
95	40
96	10
97	10
108	10
109	60
110	2949
111	149
112	1109
113	40
114	40
