Mass Spectrum: Formic acid, 2-methylpropyl ester
Formula: C5 H10 O2
CAS: 542-55-2
Molecular weight: 102
Origin: Chuck Anderson, Aldrich Chemical Co.
m/z	RELATIVE INTENSITY
13	3
14	33
15	321
16	9
17	3
18	3
19	40
25	5
26	187
27	2595
28	636
29	3244
30	174
31	5672
32	751
33	205
36	15
37	115
38	319
39	2908
40	516
41	8652
42	2283
43	9999
44	380
45	175
46	4
47	95
49	8
50	60
51	65
52	15
53	132
54	42
55	817
56	9902
57	997
58	49
59	715
60	4951
61	1376
62	43
71	10
72	9
73	115
87	36
101	5
102	18
103	3
