Mass Spectrum: 1,1-Ethanediol, diacetate
Formula: C6 H10 O4
CAS: 542-10-9
Molecular weight: 146
Origin: Japan AIST/NIMC Database- Spectrum MS-NW-3073
m/z	RELATIVE INTENSITY
13	10
14	119
15	489
16	10
18	10
26	30
27	50
28	99
29	199
41	30
42	309
43	9999
44	319
45	209
57	10
60	30
61	80
86	30
87	1829
88	80
89	20
103	169
