Mass Spectrum: 1-Propene, 1,3-dichloro-
Formula: C3 H4 Cl2
CAS: 542-75-6
Molecular weight: 110
Origin: Japan AIST/NIMC Database- Spectrum MS-NW-4375
m/z	RELATIVE INTENSITY
12	30
13	30
14	40
15	70
24	20
25	80
26	289
27	1019
28	50
29	60
31	30
32	10
35	159
36	249
37	589
38	889
39	4979
40	369
41	909
42	119
43	99
44	10
45	10
47	209
48	219
49	1939
50	90
51	629
52	10
53	60
54	40
55	149
56	70
57	90
59	10
60	70
61	309
62	969
63	1469
64	279
65	459
66	10
67	179
68	10
69	109
71	20
72	70
73	409
74	99
75	9999
76	689
77	3399
78	219
79	169
80	30
81	139
82	50
83	209
84	20
85	139
87	20
95	10
109	279
110	2059
111	249
112	1359
113	90
114	269
115	10
116	10
