Mass Spectrum: Carbonic acid, dibutyl ester
Formula: C9 H18 O3
CAS: 542-52-9
Molecular weight: 174
Origin: Zaikin V.G., TIPS RAS, Moscow, Russia
m/z	RELATIVE INTENSITY
26	150
27	811
28	891
29	2232
30	140
31	150
38	20
39	581
40	130
41	3443
42	230
43	410
44	220
45	140
51	20
53	80
54	80
55	1301
56	3643
57	9999
58	410
59	50
63	2462
64	20
71	20
72	20
73	1081
74	60
76	30
89	270
90	30
103	50
117	30
118	771
119	450
120	20
175	110
