Mass Spectrum: 1,2-Ethanediol, monoacetate
Formula: C4 H8 O3
CAS: 542-59-6
Molecular weight: 104
Origin: NIST Mass Spectrometry Data Center, 1998.
m/z	RELATIVE INTENSITY
13	10
14	40
15	220
16	10
19	40
25	10
26	50
27	210
28	10
29	440
30	70
31	660
32	30
33	10
41	50
42	470
43	9999
44	720
45	520
46	10
58	10
59	10
60	10
61	700
62	20
73	1120
74	1680
75	60
76	10
86	100
87	10
