Mass Spectrum: Butane, 1-iodo-
Formula: C4 H9 I
CAS: 542-69-8
Molecular weight: 184
Origin: Japan AIST/NIMC Database- Spectrum MS-NW-8348
m/z	RELATIVE INTENSITY
14	10
15	60
26	199
27	1819
28	679
29	6169
30	139
37	30
38	70
39	869
40	90
41	5039
42	219
43	159
49	10
50	60
51	60
52	20
53	99
54	30
55	459
56	139
57	9999
58	459
70	10
71	50
85	30
127	369
128	99
129	10
141	70
154	10
155	209
184	1509
185	60
