Mass Spectrum: 9-Cycloheptadecen-1-one, (Z)-
Formula: C17 H30 O
CAS: 542-46-1
Molecular weight: 250
m/z	RELATIVE INTENSITY
14	10
15	30
26	70
27	1021
28	591
29	1972
30	30
31	60
32	20
37	10
38	10
39	1471
40	310
41	8958
42	1191
43	2983
44	50
45	60
47	10
48	10
49	10
50	40
51	80
52	80
53	110
54	3193
55	9999
56	991
57	1091
58	1521
59	480
60	20
61	10
62	20
63	30
64	20
65	290
66	460
67	2903
68	2492
69	3593
70	981
71	2252
72	240
73	140
74	30
75	20
76	20
77	400
78	300
79	2182
80	4424
81	5945
82	3563
83	2913
84	1661
85	540
86	90
87	20
89	10
90	10
91	510
92	621
93	1792
94	1692
95	4014
96	3493
97	2302
98	1832
99	350
100	50
101	20
103	10
104	20
105	260
106	250
107	971
108	1161
109	1902
110	811
111	1341
112	460
113	170
114	30
115	20
116	10
117	20
118	20
119	440
120	260
121	1271
122	671
123	661
124	520
125	661
126	160
127	80
128	30
129	10
131	20
132	10
133	410
134	290
135	861
136	500
137	571
138	290
139	230
140	70
141	50
142	10
143	10
145	10
146	10
147	340
148	170
149	390
150	240
151	330
152	290
153	140
154	110
155	80
156	10
158	10
159	10
160	10
161	240
162	761
163	170
164	100
165	200
166	90
167	70
168	60
169	60
170	10
175	200
176	70
177	60
178	70
179	90
180	30
181	50
182	30
183	10
184	10
189	160
190	60
191	50
192	100
193	90
194	40
195	130
196	20
197	10
203	80
204	40
205	10
206	10
207	130
208	40
209	80
210	20
215	10
217	20
220	10
222	110
223	50
224	10
231	10
232	10
233	250
234	50
235	20
236	60
237	10
248	20
249	30
250	4734
251	751
252	110
253	20
