Mass Spectrum: 1,3-Cyclopentadiene
Formula: C5 H6
CAS: 542-92-7
Molecular weight: 66
m/z	RELATIVE INTENSITY
12	10
13	10
14	10
15	20
24	10
25	30
26	130
27	270
28	170
29	10
31	490
32	220
33	210
36	50
37	440
38	821
39	3163
40	2732
41	110
42	20
43	30
48	20
49	80
50	170
51	250
52	20
53	50
58	10
60	100
61	450
62	581
63	821
64	180
65	4734
66	9999
67	631
68	60
69	10
