Mass Spectrum: Isoamyl cyanide
Formula: C6 H11 N
CAS: 542-54-1
Molecular weight: 97
Origin: Japan AIST/NIMC Database- Spectrum MS-NW-1260
m/z	RELATIVE INTENSITY
13	10
14	30
15	229
26	239
27	2019
28	499
29	2219
30	60
31	99
32	10
37	90
38	209
39	1509
40	279
41	4749
42	689
43	4549
44	139
45	10
49	20
50	109
51	179
52	199
53	389
54	2629
55	9999
56	519
57	4229
58	189
59	10
62	10
63	20
64	50
65	20
66	70
67	70
68	619
69	269
70	50
71	20
75	10
76	10
79	10
80	60
81	119
82	1359
83	90
96	179
97	20
98	10
