Mass Spectrum: Benzeneacetic acid, hexyl ester
Formula: C14 H20 O2
CAS: 5421-17-0
Molecular weight: 220
Origin: V.Zaikin,Topchiev Inst.Petrochem.Synth.,Moscow
m/z	RELATIVE INTENSITY
27	380
28	180
29	801
30	60
31	20
36	50
37	40
38	250
39	1281
40	210
41	2472
42	601
43	7447
44	330
45	80
49	40
50	380
51	400
52	190
53	180
54	80
55	831
56	350
57	1101
58	30
61	90
62	260
63	701
64	220
65	2022
66	140
67	70
68	60
69	220
70	60
71	80
74	100
75	70
77	160
78	50
79	50
81	30
82	40
83	90
84	250
85	500
86	50
87	20
88	50
89	701
90	691
91	9999
92	2452
93	120
97	60
99	40
103	20
105	120
106	20
107	30
115	60
118	160
119	290
123	30
129	621
130	40
136	2182
137	841
138	50
149	50
192	40
220	160
