Mass Spectrum: 1-Methyl-5-nitropyrazole
Formula: C4 H5 N3 O2
CAS: 54210-33-2
Molecular weight: 127
Origin: W. LUIJTEN, GORLAEUS LAB., LEIDEN UNIV., NETHERL
m/z	RELATIVE INTENSITY
38	700
39	500
40	1100
41	600
42	400
43	1300
51	600
52	3700
53	2600
54	2800
55	500
66	700
67	200
68	1000
69	300
80	1300
81	200
96	200
97	300
98	3600
99	300
110	5600
111	1100
127	9999
128	600
