Mass Spectrum: 1-Methyl-3-nitropyrazole
Formula: C4 H5 N3 O2
CAS: 54210-32-1
Molecular weight: 127
Origin: V.A.Korolev, Moscow, Russia
m/z	RELATIVE INTENSITY
30	2651
36	25
37	1352
38	1634
39	1495
40	1474
41	1051
42	4279
43	2613
44	124
46	3448
50	221
51	1587
52	2976
53	1059
54	1993
55	603
66	104
67	57
68	59
69	147
78	40
79	441
80	310
81	31
97	6313
98	556
99	49
111	851
112	53
127	9999
128	615
129	75
