Mass Spectrum: Thiophene, 2-ethyl-5-propyl-
Formula: C9 H14 S
CAS: 54244-74-5
Molecular weight: 154
m/z	RELATIVE INTENSITY
37	40
38	120
39	791
40	80
41	390
42	30
43	30
44	10
45	851
46	40
47	130
48	10
49	20
50	170
51	360
52	110
53	240
54	20
55	40
56	10
57	70
58	200
59	250
60	30
61	60
62	80
63	190
64	40
65	300
66	190
67	110
68	30
69	270
70	100
71	280
72	30
73	90
74	40
75	40
76	30
77	370
78	110
79	230
80	20
81	130
82	60
83	40
84	100
85	140
86	20
87	30
88	10
89	50
90	30
91	1081
92	250
93	70
94	10
95	110
96	50
97	851
98	70
99	60
100	10
101	10
102	20
103	30
104	20
105	50
106	20
107	10
108	30
109	140
110	911
111	430
112	70
113	20
114	10
115	10
116	10
117	10
118	10
119	10
120	10
121	60
122	40
123	540
124	190
125	9999
126	911
127	490
128	30
133	10
134	20
135	30
136	10
137	80
138	40
139	1221
140	120
141	50
142	10
151	10
152	10
153	110
154	3333
155	320
156	130
157	10
