Mass Spectrum: Tetra-iso-amylammonium iodide
Formula: C20 H44 I N
CAS: 5424-26-0
Molecular weight: 425
Origin: K. ISA, DEP. CHEM., FAC. EDUC., FUKUI UNIV., FUKUI, JAPAN
m/z	RELATIVE INTENSITY
71	791
98	535
100	279
114	2791
127	1512
128	2326
154	105
156	174
170	9999
171	1628
198	58
226	151
227	605
228	112
254	53
298	42
424	2
425	10
