Mass Spectrum: 1,3-Cyclopentanedione, 4-butyl-
Formula: C9 H14 O2
CAS: 54244-72-3
Molecular weight: 154
Origin: M. VANDEWALLE
m/z	RELATIVE INTENSITY
41	9999
42	4800
43	4500
53	1700
55	1900
56	7800
57	600
67	800
68	700
69	2200
71	700
83	1200
84	1600
95	500
96	400
97	1400
99	400
112	600
125	200
126	200
139	50
154	700
155	50
