Mass Spectrum: Formaldehyde, dipropylhydrazone
Formula: C7 H16 N2
CAS: 54253-56-4
Molecular weight: 128
Origin: ATLAS OF MASS SPECTRA OF ORGANIC COMPOUNDS, V. A. KOPTYUG, ED.
m/z	RELATIVE INTENSITY
28	1070
29	690
30	250
31	690
39	400
40	60
41	1340
42	990
43	2800
44	150
54	70
55	80
56	330
57	8000
58	360
70	390
71	370
85	120
86	240
99	9999
100	650
128	2530
129	280
