Mass Spectrum: N,N'-Bis(diethylaminoethyl)aniline
Formula: C18 H33 N3
CAS: 5427-46-3
Molecular weight: 291
Origin: NIST Mass Spectrometry Data Center, 1994
m/z	RELATIVE INTENSITY
4	3
13	9
15	104
17	11
18	178
26	18
27	286
28	863
29	1101
30	2689
37	5
38	10
39	42
40	22
41	148
42	952
43	188
44	1067
50	15
51	106
52	21
53	16
54	80
55	60
56	799
57	247
58	1377
59	4
63	14
65	53
66	11
67	8
68	30
69	24
70	216
71	139
72	448
73	35
76	16
77	354
78	52
79	35
82	13
83	7
84	167
85	7
86	9999
87	586
88	17
89	10
91	266
92	37
93	12
95	10
96	21
98	95
100	3155
101	237
102	11
104	254
105	143
106	60
107	11
115	7
117	40
118	49
119	54
120	143
121	12
130	20
131	22
132	185
133	12
134	2023
135	209
136	14
144	24
145	27
146	27
147	81
148	35
159	9
160	7
161	19
173	13
175	51
176	12
189	28
190	13
192	626
193	101
203	33
205	441
206	69
218	108
219	28
289	7
