Mass Spectrum: 2-Amino-5-chloropyrimidine
Formula: C4 H4 Cl N3
CAS: 5428-89-7
Molecular weight: 129
Origin: N.Klyuev, Institute of Ecology & Evolution, RAS, Moscow
m/z	RELATIVE INTENSITY
26	300
27	561
38	691
39	721
40	791
42	1601
43	951
47	611
51	1071
52	1091
53	591
60	1601
62	530
66	490
67	4194
73	360
74	1181
75	2092
76	530
77	761
94	2242
101	510
102	3233
104	1121
129	9999
130	621
131	3303
132	200
