Mass Spectrum: 2-Methyl-5-nitrophenol
Formula: C7 H7 N O3
CAS: 5428-54-6
Molecular weight: 153
Origin: Japan AIST/NIMC Database- Spectrum MS-NW-3199
m/z	RELATIVE INTENSITY
14	10
15	20
16	10
17	10
18	30
25	10
26	99
27	649
28	229
29	109
30	399
31	30
36	20
37	149
38	369
39	1699
40	159
41	399
42	40
43	269
44	99
46	80
49	80
50	719
51	1579
52	909
53	1379
54	90
55	509
56	20
57	50
60	10
61	90
62	239
63	599
64	109
65	189
66	189
67	559
68	70
69	169
73	50
74	219
75	159
76	149
77	7209
78	1249
79	2339
80	179
81	80
82	10
83	70
84	10
85	20
86	40
87	40
88	20
89	99
90	20
91	20
92	20
93	20
94	149
95	969
96	70
104	10
105	629
106	339
107	3479
108	299
109	20
111	10
121	10
122	80
123	469
124	40
135	10
136	50
137	159
138	10
150	20
151	10
152	20
153	9999
154	849
155	90
