Mass Spectrum: Carbamothioic acid, S-[2-oxo-2-(phenylamino)ethyl] ester
Formula: C9 H10 N2 O2 S
CAS: 5428-95-5
Molecular weight: 210
Origin: J. Little, Eastman chemical company.
m/z	RELATIVE INTENSITY
29	831
39	1141
42	1021
43	3593
44	1181
47	1702
51	851
62	240
63	641
64	631
65	1882
66	1141
67	200
76	170
77	2102
78	330
79	260
91	701
92	1812
93	9999
94	1171
97	170
104	160
106	540
107	150
119	1561
120	1201
121	200
123	140
124	520
134	400
135	490
167	5745
168	811
169	380
