Mass Spectrum: Nitric acid, 2-methylpropyl ester
Formula: C4 H9 N O3
CAS: 543-29-3
Molecular weight: 119
Origin: MINISTRY OF TECH., E.R.D.E., WALTHAM ABBEY, UK
m/z	RELATIVE INTENSITY
12	30
13	20
14	40
15	320
25	30
26	190
27	3010
28	920
29	2090
30	1010
31	320
37	80
38	120
39	1190
40	210
41	4120
42	390
43	9999
44	410
45	40
46	3520
55	110
56	210
57	1590
58	130
76	920
77	10
90	10
104	10
