Mass Spectrum: Propyl nitrite
Formula: C3 H7 N O2
CAS: 543-67-9
Molecular weight: 89
Origin: Leung Pu, NIH, Bethesda, Maryland, U.S.
m/z	RELATIVE INTENSITY
41	2877
42	851
43	9999
44	475
45	941
46	636
47	596
48	40
52	15
53	47
54	44
55	192
56	95
57	710
58	488
59	575
60	228
61	300
62	35
63	31
67	25
68	22
69	69
70	54
71	135
72	56
73	445
74	176
87	372
88	199
89	1629
90	112
91	86
