Mass Spectrum: Pentane, 1-chloro-
Formula: C5 H11 Cl
CAS: 543-59-9
Molecular weight: 106
Origin: Chuck Anderson, Aldrich Chemical Co.
m/z	RELATIVE INTENSITY
13	2
14	9
15	110
16	2
24	2
25	19
26	541
27	5214
28	1291
29	6075
30	133
31	46
32	40
33	20
34	8
35	25
36	39
37	171
38	397
39	3301
40	648
41	8515
42	9185
43	3109
44	103
45	4
47	19
48	28
49	621
50	154
51	391
52	58
53	412
54	203
55	9999
56	642
57	1770
58	79
59	3
60	16
61	111
62	176
63	508
64	59
65	182
66	13
67	62
68	20
69	281
70	8898
71	475
72	16
73	28
74	5
75	88
76	90
77	110
78	34
79	28
80	2
84	2
85	2
86	2
87	4
88	3
89	7
90	2
91	379
92	17
93	124
94	5
104	5
106	168
107	10
108	59
109	3
