Mass Spectrum: Octodrine
Formula: C8 H19 N
CAS: 543-82-8
Molecular weight: 129
Origin: CARL DJERASSI DEPT OF CHEM STANFORD UNIV STANFORD CALIF 94305
m/z	RELATIVE INTENSITY
27	300
28	200
29	200
30	400
39	200
40	100
41	400
42	200
43	300
44	9999
45	300
55	500
56	100
57	100
58	100
69	200
70	100
114	300
128	100
129	100
