Mass Spectrum: 3-Methylnon-1-yn-3-ol
Formula: C10 H18 O
CAS: 5430-01-3
Molecular weight: 154
Origin: A.N.KARAVANOV, INST. PETROCHEM. SYNTH., ACAD. SCI. USSR, USSR
m/z	RELATIVE INTENSITY
41	1400
43	2700
55	600
68	500
69	9999
70	700
84	1200
97	410
139	440
