Mass Spectrum: Ethanone, 1-(3,5-dimethylpyrazinyl)-
Formula: C8 H10 N2 O
CAS: 54300-08-2
Molecular weight: 150
Origin: Philip Morris R&D
m/z	RELATIVE INTENSITY
36	53
37	330
38	917
39	3928
40	1406
41	518
42	5220
43	5418
44	165
49	16
50	126
51	190
52	352
53	432
54	388
55	223
56	31
61	2
62	16
63	112
64	416
65	312
66	3788
67	1605
68	97
69	22
70	7
75	19
76	29
77	38
78	48
79	55
80	429
81	593
82	310
83	8
89	7
90	6
91	6
92	20
93	225
94	24
95	13
96	10
104	1
105	17
106	34
107	8334
108	7049
109	599
110	8
119	1
121	171
122	1740
123	173
131	141
132	19
133	89
134	17
135	1054
136	107
149	355
150	9999
151	993
152	38
153	2
