Mass Spectrum: 2,6-Pyridinedicarboxaldehyde
Formula: C7 H5 N O2
CAS: 5431-44-7
Molecular weight: 135
Origin: Japan AIST/NIMC Database- Spectrum MS-NW-9883
m/z	RELATIVE INTENSITY
24	10
25	40
26	319
27	539
28	459
29	909
30	10
31	70
36	30
37	229
38	269
39	339
40	40
41	20
43	10
45	20
48	30
49	249
50	1279
51	3579
52	5059
53	689
54	40
55	30
59	30
60	20
61	99
62	129
63	129
64	60
65	10
66	20
74	40
75	269
76	369
77	259
78	3659
79	3039
80	199
81	10
86	10
87	20
88	10
89	30
104	10
105	20
106	1269
107	9999
108	709
109	40
134	30
135	2249
136	299
137	30
