Mass Spectrum: Propanoic acid, 2-methyl-, 1-methylbutyl ester
Formula: C9 H18 O2
CAS: 54340-93-1
Molecular weight: 158
m/z	RELATIVE INTENSITY
27	661
29	460
32	300
39	460
40	40
41	1521
42	681
43	7827
44	290
45	731
53	110
55	981
56	90
57	60
69	110
70	1862
71	9999
72	480
73	230
87	240
88	180
89	1651
115	1141
143	130
158	40
