Mass Spectrum: 1H-Indene, 2,3-dihydro-1,5,7-trimethyl-
Formula: C12 H16
CAS: 54340-88-4
Molecular weight: 160
m/z	RELATIVE INTENSITY
13	10
14	20
15	300
16	10
17	10
18	20
26	120
27	751
28	190
29	180
30	10
37	30
38	100
39	741
40	70
41	260
42	10
43	20
44	10
49	10
50	180
51	480
52	120
53	230
54	10
55	20
56	10
57	30
58	50
61	20
62	100
63	340
64	220
65	310
66	20
67	40
68	10
69	20
70	70
71	180
72	40
73	20
74	80
75	100
76	90
77	430
78	140
79	150
80	40
81	10
85	10
86	30
87	50
88	20
89	110
90	20
91	440
92	10
93	20
96	10
98	20
99	10
100	10
101	30
102	110
103	150
104	40
105	360
106	10
107	10
109	10
110	10
111	10
113	20
114	30
115	911
116	130
117	240
118	30
119	80
120	10
125	10
126	40
127	340
128	1051
129	901
130	891
131	120
132	10
133	10
139	50
140	20
141	250
142	100
143	260
144	200
145	9999
147	10
151	10
152	20
153	10
154	10
155	10
156	10
157	20
158	40
159	180
160	1922
162	10
