Mass Spectrum: Propane, 1,3-dibromo-2,2-dimethyl-
Formula: C5 H10 Br2
CAS: 5434-27-5
Molecular weight: 228
Origin: RADIAN CORP
m/z	RELATIVE INTENSITY
15	70
26	110
27	1290
28	330
29	1270
32	60
37	90
38	300
39	2600
40	340
41	3670
42	190
43	500
44	50
49	20
50	410
51	550
52	160
53	2600
54	220
55	9999
56	3070
57	110
65	110
67	260
69	6310
70	330
79	370
80	280
81	440
82	280
83	10
91	60
92	70
93	1490
94	100
95	1380
105	90
107	1530
109	1480
117	40
119	150
121	150
133	1270
134	400
135	9070
136	720
137	7620
138	330
149	6250
150	360
151	6320
152	330
184	60
215	130
216	90
217	30
228	730
230	1510
231	20
232	720
