Mass Spectrum: Benzene, 1,2,4-trimethyl-5-(1-methylethenyl)-
Formula: C12 H16
CAS: 54340-84-0
Molecular weight: 160
m/z	RELATIVE INTENSITY
26	881
27	1171
28	3163
29	611
30	40
31	110
38	170
39	1732
40	170
41	1041
42	90
43	360
44	240
45	110
50	290
51	1081
52	290
53	611
54	50
55	90
57	130
58	130
62	160
63	631
64	500
65	821
66	140
67	130
69	80
70	130
71	260
74	130
75	180
76	160
77	1211
78	530
79	741
80	40
81	40
82	30
83	30
86	40
87	80
88	30
89	180
90	30
91	1371
92	130
93	70
95	70
102	220
103	410
104	250
105	2092
106	180
107	50
115	1661
116	330
117	741
118	100
119	1481
120	991
121	110
127	611
128	1872
129	1581
130	2132
131	380
132	30
133	80
135	40
141	400
142	130
143	510
144	370
145	9128
146	941
147	160
159	821
160	9999
161	1051
162	30
