Mass Spectrum: Propanoic acid, 2,2-dimethyl-, hexyl ester
Formula: C11 H22 O2
CAS: 5434-57-1
Molecular weight: 186
Origin: V.G. Zaikin, TIPS RAS, Moscow, Russia
m/z	RELATIVE INTENSITY
26	180
27	1471
28	420
29	2322
30	110
31	80
37	60
38	60
39	1672
40	250
41	4184
42	1151
43	3283
44	390
45	80
50	170
51	280
52	360
53	130
54	170
55	1221
56	1712
57	9999
58	530
59	561
67	80
69	470
70	250
71	150
73	30
83	70
84	1081
85	1842
86	110
87	250
103	2452
104	130
143	70
