Mass Spectrum: 4-Heptenoic acid, ethyl ester, (E)-
Formula: C9 H16 O2
CAS: 54340-70-4
Molecular weight: 156
Origin: R.J.C.KLEIPOOL CENTRAL INST. FOR NUTRITION, ZEIST, NETHERLANDS
m/z	RELATIVE INTENSITY
39	3700
40	760
41	9999
42	1800
43	3100
44	170
45	1600
51	230
52	170
53	1700
54	1050
55	7100
56	870
57	90
60	5000
61	3500
67	5300
68	8700
69	7100
70	3200
71	1100
72	20
73	810
74	110
79	350
80	50
81	3600
82	4800
83	4200
84	290
85	2300
86	100
87	110
88	7000
89	220
95	110
99	700
100	60
101	230
109	700
110	4600
111	250
112	110
113	110
114	50
115	60
127	460
128	110
141	50
156	1900
157	200
