Mass Spectrum: Hexanal, 3,5,5-trimethyl-
Formula: C9 H18 O
CAS: 5435-64-3
Molecular weight: 142
Origin: KONINKLIJKE SHELL LABORATORIUM AMSTERDAM
m/z	RELATIVE INTENSITY
12	24
13	24
14	145
15	977
16	38
17	42
18	141
24	2
25	6
26	139
27	2889
28	700
29	4494
30	97
31	70
32	19
33	2
36	4
37	42
38	120
39	2452
40	404
41	6275
42	595
43	2708
44	663
45	137
46	10
47	8
48	10
49	8
50	67
51	154
52	59
53	430
54	91
55	1900
56	2290
57	9999
58	828
59	51
60	2
61	3
62	10
63	26
64	6
65	59
66	45
67	400
68	120
69	430
70	146
71	611
72	129
73	9
74	4
75	5
76	3
77	42
78	12
79	41
80	12
81	123
82	71
83	5500
84	511
85	1009
86	136
87	70
88	5
89	1
90	1
91	13
92	4
93	16
94	15
95	18
96	17
97	37
98	2488
99	286
100	1129
101	79
102	6
103	2
104	3
105	3
106	3
107	13
108	10
109	1867
110	166
111	28
112	5
113	3
114	27
115	3
123	5
124	18
125	3
126	1
127	50
128	4
142	57
143	7
