Mass Spectrum: p-(2-Chloroethoxy)benzaldehyde
Formula: C9 H9 Cl O2
CAS: 54373-15-8
Molecular weight: 184
Origin: NIST Mass Spectrometry Data Center, 1994
m/z	RELATIVE INTENSITY
12	44
13	35
14	162
15	139
16	24
18	35
25	92
26	885
27	6855
28	644
29	1138
30	57
35	91
36	102
37	508
38	1492
39	4582
40	321
41	108
42	116
43	82
48	66
49	537
50	1672
51	2223
52	164
53	368
54	43
55	122
60	76
61	435
62	1040
63	8521
64	1394
65	6241
66	886
67	94
68	44
73	153
74	490
75	448
76	719
77	1718
78	237
79	633
80	53
89	62
90	36
91	426
92	633
93	1915
94	826
95	67
99	39
103	54
104	169
105	874
106	88
107	185
119	135
121	9999
122	3760
123	309
135	1113
136	102
147	103
149	74
183	3162
184	5480
185	1550
186	1839
187	178
