Mass Spectrum: Cyclohexanol, 4-phenyl-
Formula: C12 H16 O
CAS: 5437-46-7
Molecular weight: 176
m/z	RELATIVE INTENSITY
38	60
39	1231
40	150
41	1922
42	160
43	661
44	140
45	130
46	20
47	10
50	280
51	1001
52	320
53	510
54	520
55	1601
56	170
57	1351
58	220
59	1321
60	60
61	20
62	110
63	480
64	200
65	951
66	290
67	1902
68	270
69	440
70	200
71	90
72	100
73	30
74	500
75	140
76	200
77	1641
78	1591
79	1251
80	1571
81	1912
82	2142
83	1341
84	90
85	30
86	20
87	40
88	30
89	330
90	90
91	6376
92	911
93	170
94	160
95	180
96	390
97	410
98	130
99	40
100	10
101	60
102	350
103	1571
104	9999
105	1411
106	140
107	701
108	200
109	170
110	30
113	20
114	10
115	2222
116	701
117	5635
118	4834
119	1141
120	490
121	230
122	220
123	80
124	20
125	30
126	30
127	230
129	3513
130	4524
131	711
132	360
133	160
134	30
135	190
136	70
137	10
138	10
139	20
141	140
142	190
143	6276
144	751
145	80
146	20
147	70
148	30
149	120
150	20
151	10
152	20
153	30
154	30
155	30
156	20
157	1031
158	8207
159	1131
160	80
174	20
175	40
176	7096
177	951
178	80
