Mass Spectrum: p-Acetoacetanisidide
Formula: C11 H13 N O3
CAS: 5437-98-9
Molecular weight: 207
Origin: NIST Mass Spectrometry Data Center
m/z	RELATIVE INTENSITY
14	10
26	80
27	150
29	90
37	50
38	150
39	350
40	40
41	540
42	350
43	2973
44	120
50	170
51	400
52	1081
53	1001
54	190
55	170
58	90
61	80
62	150
63	410
64	330
65	561
66	140
67	110
69	801
76	60
77	230
78	350
79	320
80	1651
81	200
84	711
85	270
90	110
91	100
92	210
93	90
94	60
95	631
96	50
106	360
107	170
108	9999
109	811
120	80
121	340
122	1151
123	5195
124	470
134	801
135	80
136	130
149	5405
150	520
164	80
207	2522
208	310
