Mass Spectrum: Diisoamyl ether
Formula: C10 H22 O
CAS: 544-01-4
Molecular weight: 158
Origin: Japan AIST/NIMC Database- Spectrum MS-NW- 828
m/z	RELATIVE INTENSITY
15	30
18	10
26	10
27	819
28	309
29	1159
30	70
31	159
38	10
39	579
40	90
41	1849
42	859
43	9999
44	339
45	879
46	20
50	10
51	20
52	10
53	159
54	60
55	1899
56	519
57	319
58	30
59	139
60	10
65	10
67	30
68	30
69	4479
70	9469
71	8579
72	439
73	60
79	10
83	20
84	20
85	60
86	10
87	60
91	10
97	10
98	10
99	10
100	10
101	2049
102	139
103	70
115	10
129	10
