Mass Spectrum: Butyl sulfide
Formula: C8 H18 S
CAS: 544-40-1
Molecular weight: 146
m/z	RELATIVE INTENSITY
25	10
26	300
27	3763
28	721
29	5445
30	160
31	10
33	20
34	40
35	230
36	40
37	40
38	80
39	1511
40	190
41	4314
42	310
43	510
44	30
45	1181
46	801
47	2022
48	250
49	220
50	60
51	90
52	30
53	240
54	150
55	2312
56	8968
57	3103
58	300
59	380
60	460
61	9999
62	440
63	450
64	20
65	10
67	10
68	10
69	60
70	40
71	60
72	10
73	110
74	40
75	380
76	50
77	30
83	10
84	10
85	40
86	10
87	60
88	180
89	1081
90	2022
91	961
92	140
93	40
94	10
101	20
103	1311
104	150
105	80
106	20
117	530
118	40
119	30
131	40
132	10
146	2983
147	300
148	150
149	10
