Mass Spectrum: Pentanedinitrile
Formula: C5 H6 N2
CAS: 544-13-8
Molecular weight: 94
Origin: Japan AIST/NIMC Database- Spectrum MS-NW-4216
m/z	RELATIVE INTENSITY
12	40
13	50
14	90
15	149
24	20
25	70
26	679
27	1939
28	2229
29	40
36	50
37	339
38	459
39	809
40	1079
41	9999
42	349
48	10
49	30
50	70
51	409
52	989
53	199
54	9719
55	339
62	70
63	139
64	239
65	109
66	479
67	80
68	20
75	10
77	10
89	10
91	20
93	90
95	20
