Mass Spectrum: 1,3,5-Cycloheptatriene
Formula: C7 H8
CAS: 544-25-2
Molecular weight: 92
Origin: Japan AIST/NIMC Database- Spectrum MS-NW- 968
m/z	RELATIVE INTENSITY
15	10
26	90
27	349
36	10
37	179
38	399
39	1709
40	269
41	179
42	10
43	129
44	40
45	289
46	149
49	60
50	399
51	659
52	229
53	169
54	10
60	30
61	189
62	369
63	829
64	189
65	1969
66	329
67	20
73	10
74	50
75	30
76	30
77	189
78	30
79	40
84	20
85	50
86	70
87	40
89	359
90	109
91	9999
92	4749
93	349
94	50
