Mass Spectrum: 3-Hexen-1-ol
Formula: C6 H12 O
CAS: 544-12-7
Molecular weight: 100
Origin: NIST Mass Spectrometry Data Center, 1990.
m/z	RELATIVE INTENSITY
15	293
16	12
17	85
18	134
26	341
27	2416
28	447
29	1939
30	174
31	2150
37	131
38	425
39	3904
40	876
41	9999
42	2019
43	825
44	564
45	179
50	313
51	493
52	197
53	1179
54	1114
55	3437
56	504
57	1102
58	127
63	159
65	387
67	5992
68	771
69	2782
70	943
71	208
72	291
77	107
79	163
80	78
81	432
82	2828
83	215
100	167
