Mass Spectrum: Dotriacontane
Formula: C32 H66
CAS: 544-85-4
Molecular weight: 450
Origin: Japan AIST/NIMC Database- Spectrum MS-NW- 413
m/z	RELATIVE INTENSITY
26	20
27	149
28	99
29	649
30	10
39	119
40	20
41	1619
42	489
43	6109
44	199
53	60
54	229
55	2359
56	1339
57	9999
58	449
66	20
67	269
68	339
69	1799
70	1139
71	7039
72	389
77	10
79	30
80	10
81	159
82	409
83	1639
84	789
85	5139
86	349
91	10
95	90
96	259
97	1369
98	619
99	1819
100	149
105	20
109	40
110	129
111	739
112	549
113	1379
114	109
123	20
124	80
125	399
126	479
127	1109
128	109
137	10
138	70
139	199
140	449
141	929
142	90
152	50
153	129
154	379
155	799
156	90
166	40
167	99
168	359
169	719
170	90
180	30
181	70
182	319
183	629
184	90
194	20
195	50
196	289
197	579
198	90
208	20
209	40
210	269
211	549
212	80
222	20
223	30
224	249
225	509
226	90
236	20
237	30
238	209
239	479
240	80
250	10
251	20
252	199
253	439
254	90
264	10
265	20
266	179
267	409
268	80
279	10
280	169
281	409
282	90
294	159
295	409
296	80
308	139
309	369
310	90
311	10
322	139
323	339
324	90
325	10
336	119
337	349
338	80
339	10
350	119
351	329
352	90
353	10
364	99
365	299
366	80
378	80
379	279
380	90
381	10
392	70
393	239
394	80
395	10
406	40
407	149
408	50
420	20
421	90
422	30
449	20
450	819
451	329
452	60
