Mass Spectrum: Benzene, 1-methyl-2-(1-ethylpropyl)-
Formula: C12 H18
CAS: 54410-74-1
Molecular weight: 162
m/z	RELATIVE INTENSITY
50	220
51	671
52	230
53	300
54	30
55	250
56	420
57	470
58	60
59	10
61	10
62	90
63	380
64	150
65	621
66	60
67	40
68	20
69	90
70	70
71	120
72	10
73	10
74	50
75	90
76	80
77	881
78	591
79	340
80	20
81	10
82	10
83	30
84	30
85	20
86	50
87	30
88	10
89	180
90	50
91	2823
92	300
93	340
94	30
95	10
96	10
97	10
98	20
100	10
101	30
102	150
103	450
104	550
105	9999
106	851
107	40
112	10
113	10
114	20
115	681
116	260
117	520
118	110
119	1061
120	270
121	20
126	10
127	70
128	160
129	100
130	30
131	210
132	50
133	5865
134	621
135	40
139	10
141	10
142	10
143	10
145	10
146	10
147	30
148	20
152	10
160	10
161	10
162	3133
163	340
164	10
