Mass Spectrum: Cyclohexane, 1-methyl-4-(1-methylbutyl)-
Formula: C12 H24
CAS: 54411-00-6
Molecular weight: 168
m/z	RELATIVE INTENSITY
26	140
27	2933
28	440
29	3283
30	70
31	10
35	10
37	30
38	60
39	1942
40	350
41	5155
42	1041
43	3003
44	100
45	10
46	10
47	10
49	10
50	40
51	160
52	100
53	831
54	681
55	9999
56	981
57	801
58	40
62	10
63	40
64	10
65	160
66	130
67	961
68	731
69	3643
70	1952
71	510
72	30
73	10
75	10
76	10
77	190
78	60
79	210
80	80
81	1812
82	280
83	1481
84	180
85	70
86	10
89	10
91	80
92	20
93	50
94	30
95	370
96	3944
97	7907
98	631
99	30
103	10
104	10
105	20
106	10
107	10
108	10
109	70
110	150
111	811
112	90
113	10
115	10
117	30
119	40
120	10
121	20
122	10
123	40
124	210
125	1101
126	130
127	10
131	10
133	10
135	10
137	20
138	40
139	200
140	30
141	10
145	10
147	10
149	10
151	10
152	10
153	60
154	10
167	10
168	881
169	120
170	10
