Mass Spectrum: Pentane, 1,5-bis(methylthio)-
Formula: C7 H16 S2
CAS: 54410-63-8
Molecular weight: 164
m/z	RELATIVE INTENSITY
14	90
15	150
16	170
19	50
20	30
26	60
29	340
32	430
33	50
34	130
35	651
37	40
38	40
39	621
40	160
41	3643
42	310
43	130
44	1261
45	1281
46	530
47	1091
48	350
49	430
50	40
51	50
53	260
54	90
55	721
56	60
57	60
58	150
59	540
60	200
61	9999
62	530
63	470
64	40
65	20
66	70
67	1441
68	4214
69	3493
70	230
71	210
72	70
73	460
74	721
75	861
76	170
77	50
79	60
81	20
82	80
83	30
85	80
87	460
88	500
89	80
90	30
93	80
94	60
95	20
97	20
99	40
100	30
101	1291
102	170
103	430
104	30
105	30
107	110
108	30
109	10
115	40
116	2632
117	1301
118	210
119	70
148	60
149	360
150	40
151	40
164	3373
165	320
166	310
167	30
168	10
