Mass Spectrum: 2-Hexenoic acid, butyl ester, (E)-
Formula: C10 H18 O2
CAS: 54411-16-4
Molecular weight: 170
m/z	RELATIVE INTENSITY
26	150
27	1251
28	220
29	2392
39	1111
40	430
42	631
43	561
44	210
53	420
54	210
55	5915
56	2642
57	881
59	120
60	120
67	280
68	901
69	921
70	130
71	150
73	3183
81	370
85	190
86	160
97	6406
98	430
99	440
109	190
115	9999
127	1171
141	80
