Mass Spectrum: Benzene, (3-methylpentyl)-
Formula: C12 H18
CAS: 54410-69-4
Molecular weight: 162
m/z	RELATIVE INTENSITY
14	40
16	60
26	40
27	430
29	761
32	160
39	500
40	70
41	751
42	110
43	2112
44	721
50	90
51	310
52	90
53	100
55	350
56	70
57	280
58	20
62	30
63	150
64	60
65	841
66	60
69	110
70	270
71	561
72	30
74	20
75	30
76	40
77	430
78	280
79	250
80	20
85	40
89	130
90	100
91	5745
92	9999
93	791
94	30
97	20
98	20
102	40
103	190
104	190
105	1061
106	140
107	40
115	110
116	40
117	100
118	10
119	60
120	50
127	10
128	40
129	20
131	40
133	50
147	30
162	1571
163	210
164	10
