Mass Spectrum: Benzene, 1,2-diethyl-3,4-dimethyl-
Formula: C12 H18
CAS: 54410-75-2
Molecular weight: 162
m/z	RELATIVE INTENSITY
15	10
26	10
27	140
28	40
29	90
30	10
38	10
39	260
40	30
41	320
42	10
43	10
44	10
45	10
50	50
51	200
52	60
53	170
54	10
55	140
56	10
57	20
58	40
59	10
60	10
61	10
62	20
63	120
64	160
65	290
66	110
67	40
68	10
69	20
70	30
71	120
72	30
73	10
74	20
75	30
76	30
77	380
78	120
79	180
80	20
81	10
86	10
87	10
88	10
89	60
90	10
91	791
92	80
93	90
94	10
98	10
99	10
101	10
102	50
103	160
104	60
105	591
106	70
107	130
108	10
113	10
114	10
115	571
116	280
117	571
118	130
119	771
120	80
121	30
122	10
126	10
127	90
128	250
129	230
130	130
131	430
132	310
133	2432
134	300
135	20
139	10
141	30
142	10
143	20
144	10
145	260
146	90
147	9999
148	1221
149	70
150	10
159	10
160	10
161	110
162	3683
163	490
164	30
