Mass Spectrum: Butanoic acid, 3-methyl-, 3-methyl-3-butenyl ester
Formula: C10 H18 O2
CAS: 54410-94-5
Molecular weight: 170
m/z	RELATIVE INTENSITY
15	300
17	60
18	140
26	90
27	1511
28	390
29	1752
38	70
39	1411
40	510
41	3934
42	741
43	1141
44	70
45	70
51	70
53	550
54	100
55	330
56	260
57	4364
58	200
59	140
60	60
67	1601
68	9999
69	2182
70	220
83	60
85	3253
86	190
103	170
