Mass Spectrum: Pyrazine, 2,3-dimethyl-5-(2-methylpropyl)-
Formula: C10 H16 N2
CAS: 54410-83-2
Molecular weight: 164
m/z	RELATIVE INTENSITY
14	30
15	140
16	40
17	100
18	350
25	10
26	150
27	1241
28	1011
29	190
30	50
31	10
32	100
36	10
37	50
38	220
39	2202
40	300
41	891
42	1281
43	530
44	110
45	10
46	10
47	10
48	10
49	10
50	100
51	240
52	350
53	711
54	280
55	120
56	60
57	60
58	390
59	10
60	10
61	10
62	20
63	60
64	60
65	170
66	210
67	160
68	80
69	30
70	80
71	10
72	20
73	10
74	30
75	20
76	10
77	50
78	40
79	100
80	771
81	140
82	40
83	10
84	90
85	10
86	20
87	10
88	10
89	10
90	10
91	20
92	30
93	30
94	140
95	60
96	30
97	10
98	10
99	10
100	10
101	10
102	10
103	10
104	10
105	20
106	30
107	140
108	170
109	120
110	60
111	10
112	20
113	50
114	90
115	10
116	10
117	10
118	10
119	20
120	100
121	611
122	9999
123	891
124	40
125	10
126	10
127	10
128	10
129	10
130	10
131	10
132	10
133	20
134	20
135	40
136	30
137	10
138	10
144	10
145	10
146	20
147	140
148	40
149	1391
150	150
151	10
159	10
160	10
161	30
162	10
163	460
164	961
165	110
166	10
