Mass Spectrum: Cyclohexane, 1-methyl-2-pentyl-
Formula: C12 H24
CAS: 54411-01-7
Molecular weight: 168
m/z	RELATIVE INTENSITY
25	10
26	140
27	2432
28	470
29	3103
30	70
37	20
38	50
39	1661
40	290
41	4204
42	681
43	1561
44	50
45	10
50	30
51	120
52	80
53	631
54	631
55	8868
56	1021
57	520
58	30
62	10
63	30
64	10
65	120
66	100
67	841
68	500
69	1742
70	671
71	190
72	10
75	10
77	140
78	40
79	160
80	60
81	1241
82	240
83	661
84	130
85	50
86	10
91	50
92	10
93	30
94	20
95	300
96	3653
97	9999
98	801
99	30
103	10
105	10
107	10
108	10
109	40
110	80
111	240
112	50
113	10
115	10
119	10
123	20
124	10
125	30
126	10
137	10
138	10
139	40
140	40
141	10
151	10
152	10
153	20
154	10
166	30
167	10
168	1071
169	150
170	10
175	10
