Mass Spectrum: 6-n-Amylmercaptopurine
Formula: C10 H14 N4 S
CAS: 5443-89-0
Molecular weight: 222
Origin: NIST Mass Spectrometry Data Center, 1994
m/z	RELATIVE INTENSITY
5	38
7	24
8	27
12	58
13	41
15	32
17	7
18	83
25	56
26	113
27	2070
28	2034
29	1311
30	99
33	26
34	25
35	40
37	41
38	451
39	1889
40	508
41	2449
42	453
43	932
44	248
45	838
46	318
47	283
48	35
50	69
51	185
52	135
53	725
54	153
55	470
56	90
57	106
58	141
60	161
61	117
62	45
63	85
64	225
65	1218
66	975
67	642
68	126
69	201
70	1376
71	695
72	225
73	71
75	41
76	78
77	231
78	61
79	75
80	165
81	82
82	113
83	340
84	170
85	92
86	30
87	58
89	62
90	32
91	149
92	1563
93	1441
94	451
95	52
96	111
97	1035
98	658
99	189
100	78
101	23
102	35
105	154
106	110
107	73
108	94
109	111
110	83
111	148
112	40
115	147
116	33
119	3258
120	1361
121	1138
122	98
123	33
124	815
125	2807
126	484
127	164
128	90
129	38
133	66
134	539
135	218
136	215
137	38
138	328
139	97
140	38
141	26
145	177
147	1686
148	235
149	27
152	9999
153	3004
154	656
155	131
156	18
158	67
159	168
160	193
161	1646
162	887
163	151
164	18
165	2199
166	8875
167	887
168	408
169	35
172	30
173	105
175	1824
176	292
177	155
178	30
179	3761
180	375
181	187
187	30
188	18
189	783
190	100
191	36
193	78
194	24
207	67
209	24
210	58
211	433
212	62
222	1534
223	206
224	73
