Mass Spectrum: Cyclohexanol, 1-propyl-
Formula: C9 H18 O
CAS: 5445-24-9
Molecular weight: 142
Origin: NIST Mass Spectrometry Data Center, 1990.
m/z	RELATIVE INTENSITY
15	110
27	1019
28	632
29	919
31	213
39	865
40	210
41	1615
42	456
43	2190
44	125
45	140
51	127
53	484
54	200
55	1379
56	125
57	1664
58	965
65	188
66	80
67	605
68	185
69	300
70	195
71	808
72	114
77	162
79	584
81	4099
82	651
83	187
86	1019
87	166
91	137
95	218
99	9999
100	810
113	136
124	139
