Mass Spectrum: Methyl 4-methoxysalicylate
Formula: C9 H10 O4
CAS: 5446-02-6
Molecular weight: 182
Origin: NIST Mass Spectrometry Data Center, 1994
m/z	RELATIVE INTENSITY
13	20
14	118
15	989
16	23
18	32
25	17
26	80
27	142
28	231
29	426
30	97
31	120
32	57
37	120
38	329
39	579
40	92
41	347
42	87
43	72
45	99
49	56
50	404
51	1123
52	758
53	937
54	149
55	314
56	13
59	172
61	174
62	408
63	843
64	343
65	494
66	271
67	133
68	140
69	697
70	32
71	28
73	21
74	67
75	41
77	280
79	1641
80	559
81	79
82	43
83	38
85	17
90	47
91	236
92	471
93	417
94	620
95	907
96	100
97	17
105	22
107	2907
108	986
109	87
110	34
111	88
119	96
120	258
122	4709
123	459
124	55
125	56
134	66
135	27
136	67
139	191
140	17
150	9999
151	3028
152	286
153	57
182	4203
183	400
184	51
