Mass Spectrum: Butanoic acid, 2,3-dichloro-, methyl ester
Formula: C5 H8 Cl2 O2
CAS: 54460-97-8
Molecular weight: 170
m/z	RELATIVE INTENSITY
13	150
15	5125
19	260
25	100
26	450
27	841
29	971
30	130
31	160
35	130
36	160
37	490
38	811
39	6156
40	971
41	4954
42	260
43	550
45	190
49	1421
51	450
53	190
55	160
59	3793
60	130
61	320
62	160
63	160
69	911
75	3723
76	9999
77	1551
78	3023
79	180
83	290
85	200
89	140
93	250
95	440
99	520
103	841
105	300
110	170
111	1401
112	160
113	871
115	140
135	330
137	100
139	50
141	20
