Mass Spectrum: 2-Bromo-2-nitropropane
Formula: C3 H6 Br N O2
CAS: 5447-97-2
Molecular weight: 167
Origin: NIST Mass Spectrometry Data Center
m/z	RELATIVE INTENSITY
12	50
13	30
14	50
15	470
16	80
17	10
18	30
19	10
25	70
26	360
27	911
28	480
30	3863
31	50
32	30
36	50
37	370
38	891
39	4864
40	881
41	9999
42	981
43	390
44	10
45	20
46	561
51	20
52	30
55	10
57	20
59	10
72	20
73	10
79	380
80	120
81	360
82	120
93	250
95	230
105	110
106	20
107	110
121	4774
123	4704
124	170
