Mass Spectrum: Hexane, 1-(1-ethoxyethoxy)-
Formula: C10 H22 O2
CAS: 54484-73-0
Molecular weight: 174
m/z	RELATIVE INTENSITY
14	80
15	200
16	20
17	50
18	270
19	130
26	120
27	1231
28	1571
29	1782
30	80
31	601
32	390
36	70
39	540
40	160
41	2082
42	791
43	5675
44	811
45	7337
46	240
47	761
53	110
54	80
55	1151
56	1151
57	1071
58	90
59	110
61	210
67	90
69	300
71	100
73	9999
74	450
75	2732
76	100
82	80
83	90
85	2462
86	140
89	140
103	210
111	70
113	110
129	991
145	30
159	1531
173	30
