Mass Spectrum: 1,5-Pentanediol, 2TMS derivative
Formula: C11 H28 O2 Si2
CAS: 54494-06-3
Molecular weight: 248
Origin: CARL DJERASSI DEPT OF CHEM STANFORD UNIV STANFORD CALIF 94305
m/z	RELATIVE INTENSITY
41	5500
42	600
43	1600
44	800
45	3700
46	300
47	1600
48	100
49	100
50	100
51	100
52	100
53	200
54	100
55	500
56	200
57	300
58	800
59	2600
60	400
61	1000
62	100
63	200
65	100
66	300
67	400
68	500
69	9999
70	600
71	200
72	400
73	7600
74	800
75	6100
76	500
77	400
85	400
87	400
88	200
89	200
91	200
94	200
97	200
99	200
101	500
102	200
103	1700
104	200
105	300
109	400
113	200
115	400
116	200
117	300
119	100
129	800
130	300
131	500
132	200
133	900
134	300
135	200
141	200
143	2300
144	300
145	400
147	7300
148	1200
149	1300
150	300
151	300
158	500
159	200
177	500
178	200
233	700
248	100
