Mass Spectrum: Lupeol
Formula: C30 H50 O
CAS: 545-47-1
Molecular weight: 426
Origin: NIST Mass Spectrometry Data Center, 2012
m/z	RELATIVE INTENSITY
15	20
25	10
26	30
27	270
28	130
29	1001
30	30
31	70
37	20
38	30
39	571
40	230
41	5225
42	380
43	5915
44	280
45	280
46	10
50	40
51	120
52	70
53	1712
54	270
55	7347
56	530
57	2342
58	150
59	320
60	20
61	10
62	10
63	40
64	10
65	581
66	250
67	6386
68	5885
69	7016
70	490
71	1982
72	230
73	90
74	30
75	10
76	10
77	1922
78	340
79	5385
80	1141
81	8628
82	1682
83	2222
84	300
85	550
86	110
87	30
88	30
89	20
90	40
91	4864
92	981
93	9258
94	3053
95	9999
96	1661
97	1752
98	260
99	170
100	60
101	60
102	40
103	260
104	160
105	5385
106	1682
107	9258
108	5285
109	8828
110	1812
111	1631
112	200
113	100
114	50
115	320
116	150
117	821
118	310
119	6085
120	2322
121	9038
122	3723
123	5835
124	811
125	571
126	90
127	190
128	250
129	360
130	210
131	1331
132	651
133	4594
134	2953
135	8918
136	3783
137	2232
138	370
139	961
140	180
141	150
142	130
143	280
144	160
145	1661
146	691
147	4704
148	2772
149	3543
150	981
151	591
152	500
153	400
154	100
155	100
156	70
157	230
158	120
159	1351
160	641
161	3843
162	1651
163	2132
164	400
165	290
166	170
167	60
168	20
169	60
170	30
171	190
172	100
173	1161
174	420
175	3293
176	1051
177	1371
178	430
179	510
180	90
181	50
182	20
183	40
184	20
185	180
186	140
187	1962
188	751
189	7146
190	2983
191	2983
192	621
193	320
194	60
195	20
196	10
197	30
198	10
199	130
200	60
201	1311
202	520
203	3003
204	2162
205	1611
206	1321
207	4704
208	1411
209	180
210	20
211	20
212	10
213	150
214	60
215	631
216	641
217	781
218	2762
219	1111
220	691
221	280
222	100
223	20
225	10
226	10
227	110
228	90
229	1071
230	330
231	420
232	120
233	100
234	671
235	140
236	10
237	10
239	20
240	10
241	90
242	30
243	250
244	100
245	170
246	120
247	460
248	200
249	30
250	10
253	10
254	10
255	170
256	80
257	761
258	220
259	130
260	40
261	30
262	10
263	10
267	20
268	10
269	100
270	60
271	250
272	290
273	190
274	80
275	70
276	40
277	10
281	50
282	30
283	120
284	70
285	80
286	110
287	90
288	60
289	30
290	20
291	10
295	70
296	60
297	801
298	420
299	420
300	230
301	120
302	70
303	20
309	30
310	10
311	60
312	30
313	230
314	230
315	981
316	701
317	340
318	70
319	10
323	50
324	30
325	120
326	80
327	50
328	20
329	30
330	10
331	10
337	40
338	30
339	220
340	100
341	60
342	80
343	120
344	140
345	40
346	10
349	10
350	10
351	40
352	40
353	30
354	20
355	40
356	20
357	120
358	70
359	10
363	10
365	811
366	250
367	50
368	20
369	50
370	180
371	70
372	10
379	30
380	30
381	20
382	10
383	220
384	80
385	10
391	10
392	10
393	460
394	170
395	30
396	10
397	30
398	20
406	20
407	20
408	581
409	190
410	50
411	971
412	310
413	60
422	10
424	30
425	20
426	1822
427	611
428	100
429	10
