Mass Spectrum: Acetonitrile, trichloro-
Formula: C2 Cl3 N
CAS: 545-06-2
Molecular weight: 143
Origin: Japan AIST/NIMC Database- Spectrum MS-NW-4417
m/z	RELATIVE INTENSITY
12	309
14	30
24	80
26	119
35	939
36	29
37	309
38	549
39	50
40	10
41	119
42	60
43	90
44	39
47	1769
48	30
49	599
50	20
52	10
54	20
55	40
56	139
57	90
59	80
61	60
62	10
63	20
69	40
70	40
72	30
73	2059
74	119
75	659
76	80
77	10
79	20
80	20
81	20
82	1329
83	30
84	859
85	70
86	149
87	20
88	10
108	9999
109	269
110	6449
111	189
112	1089
113	30
117	40
119	30
121	10
