Mass Spectrum: Pentanoic acid, 3-phenylpropyl ester
Formula: C14 H20 O2
CAS: 5451-88-7
Molecular weight: 220
Origin: V.Zaikin,Topchiev Inst.Petrochem.Synth.,Moscow
m/z	RELATIVE INTENSITY
26	40
27	70
28	20
29	90
35	10
36	90
38	30
39	100
40	80
41	220
42	30
43	60
44	10
50	30
51	80
52	40
53	30
54	20
55	120
56	40
57	350
58	30
59	10
60	20
62	10
63	50
64	10
65	170
66	20
67	40
68	10
69	50
70	20
71	40
73	50
74	20
75	30
76	20
77	170
78	150
79	120
80	20
81	30
82	40
83	70
84	40
85	290
86	20
87	10
89	70
90	40
91	1712
92	220
93	50
94	10
95	30
96	10
97	40
99	10
101	10
102	30
103	210
104	140
105	190
106	20
107	20
109	20
111	20
115	280
116	110
117	5115
118	9999
119	941
120	70
123	10
125	10
129	20
131	10
133	40
134	20
135	70
136	20
147	10
191	10
193	10
