Mass Spectrum: Phenol, 3-methoxy-, acetate
Formula: C9 H10 O3
CAS: 5451-83-2
Molecular weight: 166
Origin: NIST Mass Spectrometry Data Center
m/z	RELATIVE INTENSITY
14	20
15	110
26	40
27	60
28	30
29	40
30	10
31	10
37	40
38	160
39	380
40	50
41	290
42	130
43	1772
44	40
45	10
49	20
50	190
51	300
52	591
53	350
54	60
55	110
56	10
59	10
61	40
62	140
63	480
64	280
65	330
66	520
67	90
68	30
69	180
70	10
73	10
74	40
75	20
76	20
77	240
78	120
79	100
80	230
81	721
82	50
83	10
91	10
92	160
93	150
94	2803
95	2002
96	150
97	10
105	80
106	20
107	140
108	80
109	100
110	10
121	20
122	10
123	370
124	9999
125	851
126	70
137	40
138	50
166	1391
167	140
168	10
