Mass Spectrum: 1-Butanamine, 2-methyl-N-(2-methylbutylidene)-
Formula: C10 H21 N
CAS: 54518-97-7
Molecular weight: 155
m/z	RELATIVE INTENSITY
27	822
29	1630
30	1780
31	41
39	808
40	132
41	2900
42	2170
43	4460
44	552
50	66
51	115
52	99
53	207
54	164
55	741
56	1083
57	775
67	123
68	387
69	1980
70	4020
71	3320
72	230
77	99
78	428
79	41
80	49
81	82
82	148
83	66
84	1300
85	132
98	9999
99	858
112	518
113	740
114	66
126	361
127	1560
128	148
140	700
141	82
154	91
155	66
156	25
