Mass Spectrum: Pentanoic acid, octyl ester
Formula: C13 H26 O2
CAS: 5451-85-4
Molecular weight: 214
Origin: V.Zaikin,Topchiev Inst.Petrochem.Synth.,Moscow
m/z	RELATIVE INTENSITY
27	4634
28	540
29	8828
30	260
31	440
35	60
36	150
37	160
38	200
39	3153
40	671
41	9999
42	3323
43	6075
44	781
45	500
49	30
50	80
51	340
52	80
53	611
54	540
55	4314
56	3643
57	8157
58	490
59	200
60	1271
61	891
62	40
63	70
64	30
65	20
66	80
67	350
68	741
69	2282
70	2893
71	1682
72	80
73	901
74	100
75	140
77	130
78	40
79	50
81	240
82	691
83	1692
84	1952
85	5255
86	390
87	220
91	60
95	50
96	30
97	270
98	220
99	60
100	100
101	110
102	370
103	4404
104	340
105	30
110	60
111	120
112	1682
113	230
115	100
116	110
127	40
129	30
131	20
139	50
157	60
