Mass Spectrum: Chloroacetic acid, octyl ester
Formula: C10 H19 Cl O2
CAS: 5451-98-9
Molecular weight: 206
Origin: V.G.Zaikin,TIPS,Russian Acad.Sci.Moscow
m/z	RELATIVE INTENSITY
26	80
27	450
28	60
36	110
38	150
39	761
40	130
41	3683
42	2592
43	4634
44	821
45	90
49	1331
50	160
51	621
52	120
53	270
54	851
55	6556
56	8578
57	5885
58	180
59	70
60	70
61	70
63	90
64	70
65	110
66	70
67	651
68	2032
69	6696
70	9999
71	3533
72	250
73	80
76	220
77	3984
78	250
79	1551
80	90
81	190
82	1692
83	6686
84	9438
85	911
91	110
92	90
93	120
94	120
95	1832
96	110
97	781
98	310
105	60
107	110
108	50
109	110
110	180
111	190
112	2242
113	200
115	20
121	80
123	70
129	80
130	60
133	120
135	150
138	80
157	280
158	30
159	10
