Mass Spectrum: Formic acid, decyl ester
Formula: C11 H22 O2
CAS: 5451-52-5
Molecular weight: 186
Origin: V.G. Zaikin, R.S.Borisov, TIPS RAS, Moscow, Russia
m/z	RELATIVE INTENSITY
27	1732
28	691
29	1742
30	40
31	781
38	40
39	1101
40	410
41	6095
42	2712
43	5885
44	300
45	180
46	20
47	190
51	50
52	60
53	540
54	1301
55	9999
56	8197
57	3813
58	170
59	80
65	110
66	160
67	1381
68	2883
69	7206
70	7307
71	1081
72	50
73	50
74	10
77	80
78	20
79	140
80	20
81	791
82	4154
83	7557
84	4884
85	931
86	60
87	150
94	20
95	90
96	1251
97	4384
98	1742
99	140
100	20
101	20
102	60
109	30
110	440
111	2853
112	2732
113	230
122	100
123	50
125	80
138	20
139	30
140	671
141	110
