Mass Spectrum: Methanone,(2-methylphenyl)-2-pyridinyl-
Formula: C13 H11 N O
CAS: 54523-78-3
Molecular weight: 197
Origin: ASES Database, Dalian Institute, P.R. China
m/z	RELATIVE INTENSITY
50	100
51	580
52	310
63	190
64	100
65	3002
77	90
78	700
91	6125
115	200
119	3603
127	90
154	200
168	9999
169	3302
182	2702
196	1181
197	2382
