Mass Spectrum: Butanoic acid, 3-methyl-, 3-phenylpropyl ester
Formula: C14 H20 O2
CAS: 5452-07-3
Molecular weight: 220
Origin: Insect Chem. Ecol. Lab., USDA, Beltsville, MD 20705
m/z	RELATIVE INTENSITY
41	1488
42	362
43	816
44	45
45	85
47	6
49	12
50	76
51	285
52	81
53	74
55	232
57	1780
59	200
60	55
61	24
62	25
63	135
65	682
66	45
67	29
68	18
69	104
70	18
71	27
73	14
74	18
75	34
76	35
77	488
78	348
79	246
81	76
82	78
83	64
85	871
86	58
87	78
89	195
91	4121
92	433
93	24
94	9
95	17
96	77
97	11
99	7
101	40
102	68
103	499
104	242
105	314
106	32
107	57
108	38
109	8
110	6
111	7
115	358
117	6575
118	9999
119	1598
120	104
121	8
122	7
123	6
124	53
125	11
127	9
129	25
131	28
132	23
133	19
134	13
136	31
137	6
141	6
145	12
159	6
163	39
173	6
177	7
183	14
187	10
205	13
206	7
219	43
220	78
221	12
