Mass Spectrum: Cycloheptylamine
Formula: C7 H15 N
CAS: 5452-35-7
Molecular weight: 113
Origin: NIST Mass Spectrometry Data Center
m/z	RELATIVE INTENSITY
15	280
16	80
17	140
18	220
19	110
26	190
27	921
28	1651
29	681
30	1892
31	20
39	1171
41	1121
42	1221
43	1792
44	230
51	70
52	90
53	220
54	360
56	9999
57	981
58	60
59	40
67	250
68	120
69	110
70	1121
81	80
82	80
84	190
112	80
113	320
