Mass Spectrum: Benzoic acid, 4-methoxy-, heptyl ester
Formula: C15 H22 O3
CAS: 5452-08-4
Molecular weight: 250
Origin: Zaikin V.G., TIPS RAS, Moscow, Russia
m/z	RELATIVE INTENSITY
27	40
29	80
36	10
38	10
39	50
40	10
41	180
42	60
43	80
44	10
50	20
51	20
53	20
54	10
55	160
56	90
57	50
63	60
64	110
65	40
66	10
67	10
68	10
69	70
70	80
75	10
76	50
77	430
78	50
79	20
81	20
83	10
91	10
92	380
93	30
94	10
98	10
103	10
104	30
105	30
106	10
107	230
108	40
109	70
119	10
120	10
121	30
135	4864
136	430
137	40
138	20
151	10
152	9999
153	1812
154	170
155	10
165	40
233	20
250	611
251	100
252	10
