Mass Spectrum: Cyclooctanamine
Formula: C8 H17 N
CAS: 5452-37-9
Molecular weight: 127
Origin: Japan AIST/NIMC Database- Spectrum MS-NW-7688
m/z	RELATIVE INTENSITY
15	60
26	20
27	319
28	249
29	289
30	909
31	10
38	20
39	349
40	50
41	659
42	349
43	3429
44	259
45	30
50	10
51	30
52	20
53	109
54	189
55	299
56	9999
57	589
58	30
65	20
66	40
67	299
68	129
69	109
70	689
71	50
72	10
77	20
79	40
80	30
81	169
82	199
83	20
84	929
85	60
86	10
91	10
94	10
95	50
96	30
97	10
98	329
99	30
109	10
110	119
111	20
112	60
126	109
127	379
128	40
