Mass Spectrum: 5-Norbornane-2-carboxaldehyde
Formula: C8 H10 O
CAS: 5453-80-5
Molecular weight: 122
Origin: NIST Mass Spectrometry Data Center, 1990.
m/z	RELATIVE INTENSITY
15	38
25	49
26	222
27	954
28	293
29	393
37	175
38	429
39	2015
40	745
41	566
42	59
43	44
44	65
49	55
50	275
51	573
52	155
53	253
54	57
55	340
56	101
57	337
61	119
62	163
63	342
64	55
65	1613
66	9999
67	692
68	155
74	32
77	1216
78	815
79	867
80	737
81	110
89	58
91	889
92	199
93	612
94	257
95	51
103	84
104	141
107	47
122	960
123	84
