Mass Spectrum: Bromoacetic acid, hexadecyl ester
Formula: C18 H35 Br O2
CAS: 5454-48-8
Molecular weight: 362
Origin: V.Zaikin,Topchiev Inst.Petrochem.Synth.,Moscow
m/z	RELATIVE INTENSITY
27	1401
28	160
29	3043
30	70
31	110
35	40
36	260
38	80
39	1682
40	380
41	8658
42	3623
43	9999
44	881
45	210
46	20
49	40
50	50
51	210
52	50
53	771
54	1461
55	9308
56	4114
57	7447
58	270
60	110
61	641
63	90
65	160
66	160
67	2012
68	1992
69	7697
70	3713
71	3443
72	150
73	140
74	50
75	30
76	30
77	160
79	200
80	170
81	1181
82	3173
83	7367
84	2572
85	2292
86	140
87	110
89	20
91	60
92	40
93	741
94	90
95	771
96	1722
97	5815
98	1712
99	430
100	20
101	60
103	20
105	70
107	60
108	40
109	360
110	1101
111	2803
112	1061
113	160
114	30
115	60
120	90
121	2332
122	90
123	2502
124	490
125	1521
126	450
127	200
128	40
130	40
133	40
137	170
138	370
139	631
140	500
141	771
148	70
149	30
150	40
151	280
152	350
153	410
154	200
155	50
156	50
164	20
165	160
166	200
167	110
168	190
169	40
179	30
180	140
181	140
182	70
187	30
190	20
193	30
194	310
195	50
196	631
197	70
222	530
223	160
224	320
225	60
269	120
