Mass Spectrum: Pentanoic acid, decyl ester
Formula: C15 H30 O2
CAS: 5454-12-6
Molecular weight: 242
Origin: V.Zaikin,Topchiev Inst.Petrochem.Synth.,Moscow
m/z	RELATIVE INTENSITY
27	4104
28	430
29	6256
30	220
31	200
35	30
36	130
37	40
38	170
39	1842
40	440
41	8588
42	2532
43	7106
44	801
45	340
46	20
49	20
50	120
51	210
52	40
53	530
54	781
55	5955
56	4884
57	9999
58	611
59	140
60	1041
61	891
62	20
63	50
65	60
66	90
67	701
68	1211
69	3073
70	4094
71	1722
72	80
73	761
74	50
75	170
77	50
78	20
79	40
81	320
82	1011
83	2482
84	2192
85	7407
86	460
87	180
88	30
89	30
91	20
93	40
94	40
95	140
96	400
97	1682
98	1181
99	170
100	80
101	110
102	540
103	7287
104	470
105	70
109	70
110	200
111	871
112	1241
113	140
114	30
115	90
116	260
117	20
123	20
125	30
127	20
128	30
129	40
130	30
138	30
139	50
140	1581
141	130
143	70
155	30
156	20
157	50
158	30
185	90
200	30
