Mass Spectrum: Butanoic acid, decyl ester
Formula: C14 H28 O2
CAS: 5454-09-1
Molecular weight: 228
Origin: V.G.Zaikin, Petrochem. Synth. Inst., Moscow
m/z	RELATIVE INTENSITY
26	180
27	1551
28	941
29	1932
30	30
31	90
39	851
40	250
41	4544
42	1952
43	9699
44	440
45	150
51	70
53	190
54	591
55	4074
56	4084
57	3813
58	280
60	641
61	270
66	70
67	490
68	1011
69	3133
70	4454
71	9999
72	591
73	330
79	110
80	30
81	180
82	961
83	2993
84	2392
85	1091
86	220
87	90
88	761
89	9098
90	390
95	90
96	390
97	1992
98	1491
99	270
100	50
101	240
110	140
111	1071
112	1491
113	140
140	1792
141	190
144	350
145	30
185	120
