Mass Spectrum: Cyclopentane, 2-ethyl-1,1-dimethyl-
Formula: C9 H18
CAS: 54549-80-3
Molecular weight: 126
Origin: CARL DJERASSI DEPT OF CHEM STANFORD UNIV STANFORD CALIF 94305
m/z	RELATIVE INTENSITY
41	4800
42	1600
43	1600
44	100
50	100
51	200
52	100
53	600
54	200
55	6200
56	9999
57	4100
58	200
65	100
66	100
67	600
68	900
69	8200
70	3200
71	400
77	200
78	100
79	200
80	100
81	200
82	400
83	1700
84	2000
85	300
91	100
95	200
97	700
98	1400
99	200
111	2100
112	200
126	1000
127	100
