Mass Spectrum: Benzene, 1,5-dibromo-2-methoxy-4-methyl-
Formula: C8 H8 Br2 O
CAS: 5456-94-0
Molecular weight: 278
Origin: NIST Mass Spectrometry Data Center, 1994
m/z	RELATIVE INTENSITY
13	120
15	1465
18	122
26	337
27	951
28	318
29	938
30	270
31	89
32	152
36	139
37	993
38	1474
39	2251
40	199
41	117
43	265
44	185
45	87
48	62
49	542
50	4235
51	7163
52	718
53	865
60	163
61	1373
62	2592
63	2774
64	443
65	421
73	576
74	2120
75	2985
76	2455
77	9470
78	792
79	440
80	159
81	334
82	142
83	61
84	156
85	515
86	734
87	742
88	667
89	2969
90	1446
91	926
92	510
93	153
95	70
103	107
104	135
105	1373
106	201
116	230
117	291
118	323
119	363
120	213
128	160
129	186
130	138
131	231
133	90
140	196
141	252
142	103
143	187
155	920
156	4532
157	1037
158	4282
159	305
167	116
168	206
169	391
170	277
171	384
172	72
183	288
184	678
185	322
186	582
198	106
199	1026
200	151
201	816
202	94
235	905
236	188
237	1856
238	173
239	898
263	2115
265	4001
266	338
267	2098
268	135
278	5479
279	455
280	9999
281	887
282	4930
283	435
