Mass Spectrum: Octanoic acid, 2-phenylethyl ester
Formula: C16 H24 O2
CAS: 5457-70-5
Molecular weight: 248
Origin: V.G.Zaikin, TIPS RAS, Moscow, Russia
m/z	RELATIVE INTENSITY
26	50
27	390
28	80
29	561
39	380
40	60
41	1071
42	290
43	1091
44	410
45	60
51	230
52	60
53	80
55	711
56	190
57	2212
58	90
60	350
63	50
65	200
67	190
69	240
70	60
71	150
73	230
77	420
78	380
79	320
81	110
82	170
83	190
84	150
85	110
87	90
91	691
92	180
93	40
95	70
97	110
98	150
101	90
103	430
104	9999
105	2953
106	250
110	70
111	70
115	40
117	40
127	561
128	80
145	110
