Mass Spectrum: Hexanedioic acid, 3-methyl-, dimethyl ester
Formula: C9 H16 O4
CAS: 54576-13-5
Molecular weight: 188
Origin: NIST Mass Spectrometry Data Center
m/z	RELATIVE INTENSITY
15	410
16	10
26	50
27	561
28	300
29	781
30	60
31	210
32	10
33	40
34	10
35	10
37	10
38	60
39	1291
40	270
41	2823
42	1391
43	2102
44	120
45	611
46	10
47	20
48	280
49	200
50	70
51	150
52	80
53	821
54	440
55	7196
56	851
57	500
59	6606
60	190
61	50
62	10
63	130
64	10
65	120
66	40
67	510
68	1551
69	6446
70	460
71	1071
72	300
73	6386
74	4104
75	250
76	20
77	20
78	10
79	80
80	20
81	290
82	1251
83	3883
84	230
85	500
86	280
87	2482
88	280
89	30
93	10
94	10
95	190
96	2132
97	2102
98	190
99	310
100	410
101	1201
102	520
103	30
107	10
108	20
109	160
110	20
111	490
112	50
113	621
114	1521
115	9999
116	681
117	60
122	10
123	40
125	6186
126	510
127	230
128	5915
129	1051
130	90
131	30
138	10
139	20
141	210
142	20
155	70
156	430
157	4034
158	370
159	50
160	10
173	10
189	10
