Mass Spectrum: Benzene, [2-[(1-methylethyl)thio]ethyl]-
Formula: C11 H16 S
CAS: 54576-42-0
Molecular weight: 180
m/z	RELATIVE INTENSITY
24	10
25	30
26	330
27	3974
28	240
29	140
30	10
31	10
32	60
33	50
34	110
35	60
36	10
37	110
38	340
39	2943
40	300
41	2893
42	290
43	6896
44	220
45	1011
46	370
47	5125
48	130
49	280
50	631
51	1621
52	400
53	210
54	20
55	2923
56	130
57	50
58	240
59	771
60	190
61	210
62	180
63	601
64	150
65	1481
66	110
67	20
68	10
69	80
70	10
71	50
72	10
73	50
74	290
75	681
76	200
77	2002
78	791
79	651
80	40
81	10
82	20
83	10
84	10
85	10
86	20
87	40
88	30
89	9999
90	651
91	4904
92	611
93	50
94	10
95	10
96	10
97	30
98	10
99	10
100	10
101	40
102	200
103	1031
104	3823
105	2072
106	200
107	10
108	20
109	210
110	30
111	20
112	10
113	10
115	20
116	10
117	10
118	10
119	10
120	10
121	30
122	10
123	10
124	10
127	10
128	10
129	10
130	10
131	170
132	20
133	30
134	100
135	290
136	80
137	190
138	60
139	20
140	10
141	20
142	10
143	10
145	10
146	10
147	10
149	10
150	10
151	10
152	10
163	10
165	60
166	70
167	10
168	10
178	10
179	10
180	2883
181	380
182	150
183	20
184	10
