Mass Spectrum: DL-Proline, 5-oxo-, methyl ester
Formula: C6 H9 N O3
CAS: 54571-66-3
Molecular weight: 143
Origin: NIST Mass Spectrometry Data Center
m/z	RELATIVE INTENSITY
14	10
15	160
25	10
26	110
27	310
28	1672
29	310
30	170
31	60
32	10
33	30
37	20
38	50
39	280
40	80
41	2402
42	250
43	80
44	60
45	80
50	10
51	20
52	90
53	70
54	380
55	530
56	1682
57	110
58	20
59	370
60	100
61	10
66	80
67	10
68	30
69	40
70	10
71	10
72	10
82	70
83	90
84	9999
85	500
86	40
87	50
88	60
98	10
99	10
100	10
114	10
115	40
143	571
144	50
145	10
