Mass Spectrum: Octanedioic acid, 3-methyl-, dimethyl ester
Formula: C11 H20 O4
CAS: 54576-15-7
Molecular weight: 216
Origin: INST.OF CLINICAL BIOCHEM,RIKSHOSP,UNIV.OF OSLO,E.JELLUM,ET.A
m/z	RELATIVE INTENSITY
27	2959
29	3469
31	816
32	1020
39	3061
40	816
41	8060
42	2449
43	6530
44	714
45	1530
53	1632
54	816
55	9999
56	1735
57	1122
59	8775
60	612
65	510
66	510
67	2959
68	1837
69	8367
70	816
71	918
73	1632
74	9999
75	918
76	510
77	1224
78	714
79	2143
80	1020
81	4693
82	3979
83	9489
84	1632
86	612
87	2653
88	1122
91	714
93	918
94	1122
95	2347
96	1020
97	3163
98	1122
99	1735
101	3265
103	918
104	612
105	510
107	612
108	1326
109	1939
110	1837
111	8775
112	816
113	510
114	612
115	1122
122	1326
123	1020
124	1632
125	2857
126	612
127	918
128	714
129	1428
150	1122
151	1428
152	4285
153	2143
154	1224
155	612
156	1428
157	510
184	1122
185	4999
186	816
