Mass Spectrum: Propanoic acid, 2,2-dichloro-, 1-methylethyl ester
Formula: C6 H10 Cl2 O2
CAS: 54587-48-3
Molecular weight: 184
m/z	RELATIVE INTENSITY
14	20
15	150
18	20
19	20
25	10
26	170
27	1381
28	140
29	90
31	60
32	10
36	20
37	20
38	40
39	340
40	60
41	1692
42	831
43	9999
44	350
45	2152
46	50
47	20
49	10
53	40
54	20
55	50
56	10
57	10
58	10
59	540
60	40
61	360
62	330
63	460
64	120
65	120
68	30
74	40
78	20
80	60
82	20
83	10
84	20
86	10
89	100
90	200
91	831
92	100
93	260
94	10
95	10
96	20
97	1411
98	50
99	921
100	30
101	150
107	330
108	100
109	340
110	50
111	90
112	10
113	10
125	170
126	20
127	120
128	10
129	30
135	130
137	40
140	20
141	90
142	10
143	90
145	30
149	40
151	20
155	10
169	520
170	30
171	340
172	20
173	60
184	10
186	20
188	10
