Mass Spectrum: 4-Chlorobenzoic acid, undecyl ester
Formula: C18 H27 Cl O2
CAS: 5458-41-3
Molecular weight: 310
Origin: Zaikin V.G., TIPS RAS, Moscow, Russia
m/z	RELATIVE INTENSITY
26	140
27	320
28	220
29	550
35	50
36	430
37	110
38	260
39	350
40	80
41	1261
42	470
43	1211
44	150
49	50
50	500
51	280
52	50
53	120
54	330
55	1571
56	1301
57	801
61	40
63	40
64	50
65	90
66	40
67	400
68	530
69	1331
70	1321
71	330
73	110
74	310
75	1101
76	390
77	380
78	80
79	100
81	190
82	540
83	1131
84	931
85	310
91	60
92	80
93	50
95	100
96	190
97	981
98	460
99	50
104	150
105	190
109	60
110	180
111	3083
112	621
113	891
114	120
122	60
123	70
124	60
125	230
126	470
127	60
128	50
134	140
135	110
139	9999
140	741
141	2943
142	240
152	70
154	921
155	130
156	3703
157	4804
158	1471
159	1491
160	110
