Mass Spectrum: Pentane, 2-cyclopropyl-
Formula: C8 H16
CAS: 5458-16-2
Molecular weight: 112
Origin: NIST Mass Spectrometry Data Center, 1990.
m/z	RELATIVE INTENSITY
15	182
26	308
27	2408
28	744
29	1870
39	5554
40	1203
41	9758
42	2857
43	3678
44	216
50	306
51	566
52	298
53	1659
54	976
55	9121
56	9999
57	677
63	152
65	423
66	188
67	1424
69	8318
70	4483
71	1394
77	200
79	185
81	117
82	187
83	1281
84	6275
85	401
97	177
