Mass Spectrum: Acetamide, N-(1,1,3,3-tetramethylbutyl)-
Formula: C10 H21 N O
CAS: 5459-42-7
Molecular weight: 171
Origin: N. Kalyanam, Res. Cent., Indian Petrochem. Corp. Ltd., Vadodara, India
m/z	RELATIVE INTENSITY
53	170
54	130
55	870
56	520
57	1680
58	8870
59	520
60	610
61	110
66	140
69	230
70	170
71	120
72	410
79	90
81	80
82	90
83	80
84	80
97	3130
98	370
99	90
100	9999
101	710
112	290
113	90
114	1480
115	210
156	420
157	90
171	130
