Mass Spectrum: Ethanol, 2-(hexylamino)-
Formula: C8 H19 N O
CAS: 54596-69-9
Molecular weight: 145
Origin: NIST Mass Spectrometry Data Center, 1994
m/z	RELATIVE INTENSITY
14	68
15	346
16	28
18	203
19	178
26	179
27	1869
28	2013
29	2536
30	4295
31	564
32	61
37	20
39	936
41	2164
42	1303
43	3959
44	9999
45	936
46	34
51	55
53	163
54	198
55	681
56	3154
57	600
58	108
60	188
61	104
62	32
67	66
68	76
69	59
70	260
71	49
72	125
73	32
74	5585
75	234
83	70
84	257
85	91
86	85
100	62
112	113
114	3760
115	307
116	38
130	25
144	62
145	177
