Mass Spectrum: 4-Ethoxystyrene
Formula: C10 H12 O
CAS: 5459-40-5
Molecular weight: 148
Origin: NIST Mass Spectrometry Data Center, 1994
m/z	RELATIVE INTENSITY
12	7
13	17
14	72
15	208
16	12
17	12
18	42
25	39
26	466
27	2002
28	322
29	1405
30	75
37	98
38	393
39	2230
40	213
41	300
42	51
43	123
44	5
49	45
50	604
51	1193
52	301
53	300
54	33
55	262
56	14
61	148
62	513
63	1297
64	420
65	2688
66	343
68	45
73	28
74	208
75	239
76	247
77	939
78	217
79	96
80	11
81	49
85	13
86	49
87	44
89	554
91	4918
92	714
93	78
94	742
95	56
98	30
101	73
102	278
103	281
104	40
105	225
106	21
107	15
115	18
116	10
117	32
119	2631
120	9999
121	885
122	58
133	19
148	3982
149	464
150	37
