Mass Spectrum: Acetohydroxamic acid
Formula: C2 H5 N O2
CAS: 546-88-3
Molecular weight: 75
Origin: Japan AIST/NIMC Database- Spectrum MS-NW-2921
m/z	RELATIVE INTENSITY
12	80
13	109
14	469
15	2589
16	90
17	39
18	179
19	20
20	10
24	10
25	30
26	80
27	369
28	85
29	289
30	779
31	10
32	219
33	249
34	10
38	199
39	339
40	919
41	1949
42	939
43	9999
44	1219
45	359
46	30
47	40
54	20
55	60
56	379
57	999
58	50
59	1019
60	319
61	10
72	10
73	20
75	949
76	30
