Mass Spectrum: Octaphenylcyclotetrasiloxane
Formula: C48 H40 O4 Si4
CAS: 546-56-5
Molecular weight: 792
Origin: Japan AIST/NIMC Database- Spectrum MS-IW- 706
m/z	RELATIVE INTENSITY
45	80
51	90
77	309
78	159
105	50
152	60
153	109
154	359
155	70
158	20
165	30
171	40
180	249
181	199
182	30
187	20
188	30
197	199
198	30
199	50
201	40
202	149
203	70
205	20
206	20
208	20
209	20
210	40
215	20
218	99
219	139
220	20
228	50
229	30
231	30
232	30
239	30
240	289
241	3089
242	759
243	80
255	109
256	40
257	279
258	70
259	119
260	30
271	149
272	40
273	40
278	30
279	799
280	2769
281	719
282	70
285	80
286	20
315	20
317	189
318	329
319	219
320	50
329	20
331	40
357	249
358	159
359	109
360	40
361	90
362	30
363	60
364	20
375	40
377	50
379	80
380	30
387	30
391	60
392	20
393	159
394	50
395	20
405	60
406	30
407	30
408	20
411	20
419	30
435	119
436	50
437	469
438	199
439	849
440	349
441	149
442	40
479	40
480	30
481	279
482	209
483	469
484	219
485	139
486	50
487	20
492	20
495	40
496	20
497	50
498	20
499	20
507	20
513	20
515	30
516	20
557	459
558	1309
559	8369
560	5699
561	3389
562	1339
563	519
564	169
565	60
567	30
573	20
623	20
635	1299
636	2309
637	9999
638	7019
639	3649
640	1429
641	439
642	119
713	1019
714	4309
715	4809
716	2809
717	1239
718	429
719	119
720	20
792	1489
793	1079
794	609
795	239
796	50
