Mass Spectrum: N-(Phenethyl)phenylacetamide
Formula: C16 H17 N O
CAS: 5460-60-6
Molecular weight: 239
Origin: NIST Mass Spectrometry Data Center, 1994
m/z	RELATIVE INTENSITY
15	31
17	14
18	53
26	26
27	359
28	371
29	14
30	6226
31	15
37	27
38	169
39	1430
40	158
41	392
42	89
43	40
44	93
46	25
50	305
51	880
52	221
53	104
54	18
56	30
57	15
61	24
62	169
63	722
64	280
65	3348
66	179
74	33
75	67
77	1056
78	446
79	762
80	70
86	28
87	34
89	732
91	9999
92	2062
93	121
101	18
103	666
104	5207
105	2533
106	227
107	16
115	14
116	14
117	46
118	216
119	264
120	625
121	69
130	23
132	19
134	25
136	29
146	15
148	1070
149	101
152	11
165	36
166	17
178	17
179	10
180	15
237	10
239	2090
240	385
241	43
