Mass Spectrum: n-Caprylic acid isobutyl ester
Formula: C12 H24 O2
CAS: 5461-06-3
Molecular weight: 200
Origin: V.Zaikin,Topchiev Inst.Petrochem.Synth.,Moscow
m/z	RELATIVE INTENSITY
26	70
27	450
28	90
29	1061
30	30
31	70
36	20
37	20
38	30
39	430
40	120
41	2322
42	490
43	1551
44	50
45	70
50	20
51	30
52	20
53	100
54	80
55	1051
56	8968
57	9999
58	340
59	100
60	1902
61	430
62	20
65	10
66	10
67	190
68	60
69	290
70	110
71	120
72	30
73	1181
74	140
75	30
77	10
78	10
79	50
80	30
81	70
82	140
83	350
84	390
85	250
86	110
87	490
88	40
89	170
91	10
93	20
95	10
96	30
97	170
98	210
99	30
100	20
101	721
102	50
103	90
107	20
108	20
109	220
110	20
111	30
113	10
115	230
116	320
117	50
124	20
125	80
126	20
127	8267
128	510
129	80
143	30
144	530
145	2722
146	190
147	20
157	30
170	60
185	20
