Mass Spectrum: m-Toluic acid, heptyl ester
Formula: C15 H22 O2
CAS: 5462-02-2
Molecular weight: 234
Origin: Zaikin V.G., TIPS RAS, Moscow, Russia
m/z	RELATIVE INTENSITY
26	30
27	190
28	50
29	300
39	290
40	40
41	671
42	250
43	310
44	30
50	40
51	80
52	20
53	60
54	70
55	631
56	751
57	250
62	30
63	150
64	50
65	761
66	50
67	50
68	130
69	460
70	691
71	50
77	110
81	30
83	110
89	280
90	250
91	4124
92	530
93	530
94	40
97	50
98	430
99	30
105	70
118	120
119	9719
120	791
121	70
135	90
136	9999
137	9168
138	651
139	50
149	110
177	50
234	280
235	50
