Mass Spectrum: Hexane, 3-methoxy-
Formula: C7 H16 O
CAS: 54658-01-4
Molecular weight: 116
Origin: CARL DJERASSI DEPT OF CHEM STANFORD UNIV STANFORD CALIF 94305
m/z	RELATIVE INTENSITY
39	1500
40	100
41	3200
42	600
43	1800
45	9999
53	200
55	1900
56	300
57	600
58	300
59	300
69	100
71	200
72	200
73	9900
74	500
85	100
86	100
87	4900
88	300
116	100
