Mass Spectrum: 1,3-Isobenzofurandione, 5-nitro-
Formula: C8 H3 N O5
CAS: 5466-84-2
Molecular weight: 193
Origin: NIST Mass Spectrometry Data Center, 1994
m/z	RELATIVE INTENSITY
12	47
16	114
17	27
18	26
24	17
25	68
26	57
28	261
30	1373
32	8
36	159
37	1073
38	632
39	103
40	17
41	17
44	128
46	415
48	84
49	425
50	446
51	118
52	65
53	388
54	19
60	120
61	476
62	555
63	490
64	82
65	55
73	1176
74	5537
75	9919
76	680
77	145
78	18
84	16
85	26
86	39
87	62
88	50
89	44
90	32
91	108
92	16
101	94
103	6260
104	464
105	41
119	63
120	17
133	18
147	57
149	9999
150	838
151	92
163	31
177	69
193	503
194	57
