Mass Spectrum: Cyclohexane, 2-butyl-1,1,3-trimethyl-
Formula: C13 H26
CAS: 54676-39-0
Molecular weight: 182
Origin: MASS SPECTRA OF ORGANIC COMPOUNDS, CSIRO, B.H. KENNETT ET AL
m/z	RELATIVE INTENSITY
29	3300
30	100
39	1400
41	7200
42	1000
43	4200
45	100
51	100
52	100
53	900
54	450
55	7900
56	7600
57	6000
58	300
65	200
66	100
67	1100
68	800
69	9999
70	5200
71	1700
72	100
75	100
77	200
79	200
81	800
82	500
83	3600
84	1500
85	700
91	100
93	100
95	500
96	600
97	2600
98	1100
99	200
109	200
110	200
111	1600
112	1700
113	300
124	100
125	700
126	1300
127	300
139	100
140	100
167	1000
168	200
182	1600
183	200
