Mass Spectrum: Benzamide, N,N'-1,4-phenylenebis-
Formula: C20 H16 N2 O2
CAS: 5467-04-9
Molecular weight: 316
Origin: Japan AIST/NIMC Database- Spectrum MS-IW-4400
m/z	RELATIVE INTENSITY
26	10
27	40
28	30
38	10
39	40
41	20
43	20
44	10
50	99
51	409
52	60
53	30
55	10
57	30
63	20
64	10
65	10
69	10
71	10
74	20
75	40
76	219
77	3459
78	279
79	20
80	10
81	10
83	10
85	10
91	10
93	10
97	10
102	10
103	399
104	60
105	9999
106	809
107	60
109	10
110	30
111	10
139	10
181	10
194	10
195	10
209	10
211	30
212	20
213	309
214	40
315	30
316	3609
317	819
318	99
