Mass Spectrum: 2(3H)-Furanone, dihydro-4-hydroxy-
Formula: C4 H6 O3
CAS: 5469-16-9
Molecular weight: 102
Origin: NIST Mass Spectrometry Data Center
m/z	RELATIVE INTENSITY
18	20
25	30
26	150
27	270
28	290
29	1201
31	530
36	40
37	110
38	110
39	280
40	140
41	360
42	791
43	5055
44	9999
45	550
46	50
49	20
50	30
52	40
55	611
56	150
57	871
58	160
63	20
69	130
74	2953
75	70
102	1531
103	120
