Mass Spectrum: 1,4-Benzenedicarboxylic acid, decyl ethyl ester
Formula: C20 H30 O4
CAS: 54699-33-1
Molecular weight: 334
Origin: V.G. Zaikin, R.S.Borisov, TIPS RAS, Moscow, Russia
m/z	RELATIVE INTENSITY
27	20
29	170
41	130
42	40
43	140
54	40
55	330
56	290
57	110
65	10
67	20
68	90
69	290
70	470
71	20
76	110
77	20
79	70
82	100
83	370
84	250
96	30
97	290
98	120
103	180
104	450
105	120
111	230
112	240
121	220
122	90
123	90
132	70
133	20
140	370
141	20
149	671
150	160
151	20
166	320
167	741
168	50
176	20
177	3013
178	370
179	50
194	120
195	9999
196	1171
197	130
289	1341
290	260
291	20
334	50
335	30
