Mass Spectrum: Ethanone, 1-[4-(phenylmethoxy)phenyl]-
Formula: C15 H14 O2
CAS: 54696-05-8
Molecular weight: 226
Origin: NIST Mass Spectrometry Data Center, 1994
m/z	RELATIVE INTENSITY
14	16
15	102
18	3
26	23
27	76
28	5
29	23
37	32
38	168
39	601
40	47
41	149
42	64
43	553
44	8
50	223
51	340
52	112
53	58
61	24
62	140
63	504
64	353
65	1474
66	108
74	47
75	52
76	116
77	271
78	67
79	82
86	8
87	11
89	220
91	9999
92	1038
93	58
94	5
104	16
105	32
107	79
120	113
121	24
135	14
151	9
152	21
153	16
154	6
165	7
183	13
211	13
226	478
227	84
228	8
