Mass Spectrum: .alpha.-Acetamidocinnamic acid
Formula: C11 H11 N O3
CAS: 5469-45-4
Molecular weight: 205
Origin: Japan AIST/NIMC Database- Spectrum MS-NW-1949
m/z	RELATIVE INTENSITY
12	10
13	10
14	129
15	489
16	30
17	20
18	70
26	40
27	129
28	259
29	40
32	10
37	60
38	159
39	579
40	99
41	149
42	309
43	9479
44	649
45	90
49	30
50	309
51	479
52	159
53	40
54	10
55	10
57	30
58	40
59	30
60	20
61	90
62	229
63	679
64	249
65	389
66	50
69	10
70	10
71	10
73	20
74	119
75	149
76	209
77	369
78	80
79	139
80	10
85	20
86	40
87	70
88	90
89	1389
90	1769
91	1749
92	279
93	30
98	10
101	50
102	429
103	90
104	119
105	60
106	40
107	50
114	50
115	189
116	839
117	9999
118	2489
119	1479
120	119
127	10
128	50
129	50
130	60
131	40
132	10
134	60
135	40
140	30
141	20
142	40
143	369
144	149
145	70
146	90
147	20
148	10
158	10
159	599
160	70
161	549
162	119
163	7259
164	759
165	70
172	10
177	20
187	1389
188	199
189	20
205	1059
206	129
207	10
