Mass Spectrum: 2-Butanone, 1-bromo-3,3-dimethyl-
Formula: C6 H11 Br O
CAS: 5469-26-1
Molecular weight: 178
Origin: Japan AIST/NIMC Database- Spectrum MS-IW-1206
m/z	RELATIVE INTENSITY
14	10
15	40
26	20
27	259
28	80
29	2129
30	50
37	10
38	40
39	539
40	80
41	3739
42	269
43	389
44	10
50	30
51	30
52	10
53	80
54	10
55	499
56	319
57	9999
58	559
59	10
65	20
67	30
69	30
70	20
71	10
79	20
80	50
81	20
82	50
83	20
85	2899
86	159
87	10
92	10
93	169
94	10
95	159
100	99
101	20
107	10
109	10
120	20
121	189
122	20
123	179
135	40
137	30
163	10
165	10
178	99
179	70
180	99
181	60
