Mass Spectrum: Sulfacarbamide
Formula: C7 H9 N3 O3 S
CAS: 547-44-4
Molecular weight: 215
Origin: Finnigan MAT: Toxicological Library (LIBR-TX)
m/z	RELATIVE INTENSITY
41	1378
43	1695
52	1200
53	828
63	1528
64	1139
65	8186
80	966
91	579
92	9999
93	715
107	410
108	5315
109	2479
123	96
140	290
156	6770
157	492
158	299
172	2925
173	384
174	95
198	2260
199	204
200	99
215	290
