Mass Spectrum: Methyl isobutyrate
Formula: C5 H10 O2
CAS: 547-63-7
Molecular weight: 102
Origin: Japan AIST/NIMC Database- Spectrum MS-NW- 10
m/z	RELATIVE INTENSITY
14	40
15	1219
17	10
18	224
26	179
27	1609
28	269
29	189
30	40
31	189
32	20
33	139
37	50
38	109
39	859
40	169
41	2999
42	1349
43	9999
44	349
45	139
53	30
55	579
56	50
57	80
59	2309
60	99
61	479
69	90
70	119
71	4199
72	209
73	60
74	509
75	20
77	20
87	2229
88	99
101	90
102	1629
103	109
