Mass Spectrum: 5-Cyclopropyl-5-methylhydantoin
Formula: C7 H10 N2 O2
CAS: 5470-46-2
Molecular weight: 154
Origin: NIST Mass Spectrometry Data Center, 1994
m/z	RELATIVE INTENSITY
15	889
16	22
18	390
26	283
27	837
30	157
37	254
38	643
39	3938
40	1493
41	3983
42	9999
43	934
44	845
50	148
51	322
52	394
53	1118
54	767
55	1122
56	106
57	299
65	348
66	780
67	1249
68	5421
69	477
70	703
80	28
82	3346
83	3986
84	275
96	771
97	21
98	735
110	109
111	1566
113	9543
114	556
126	969
139	2498
140	140
