Mass Spectrum: 4-Nitro-2-picoline N-oxide
Formula: C6 H6 N2 O3
CAS: 5470-66-6
Molecular weight: 154
Origin: Japan AIST/NIMC Database- Spectrum MS-IW-6542
m/z	RELATIVE INTENSITY
15	10
18	10
26	60
27	209
28	189
29	40
30	439
31	20
37	109
38	289
39	1109
40	159
41	159
42	259
43	90
44	30
46	20
48	10
49	50
50	709
51	1209
52	719
53	1219
54	169
55	159
56	129
57	10
60	10
61	80
62	179
63	689
64	2039
65	769
66	99
67	119
68	109
69	10
70	10
73	30
74	179
75	109
76	99
77	329
78	439
79	319
80	109
81	50
82	50
84	269
85	10
87	10
88	10
90	259
91	1729
92	669
93	60
95	20
96	50
106	239
107	179
108	1319
109	90
122	20
123	40
124	179
125	10
137	3369
138	739
139	60
153	40
154	9999
155	889
156	90
