Mass Spectrum: 4-Methoxyformanilide
Formula: C8 H9 N O2
CAS: 5470-34-8
Molecular weight: 151
Origin: Japan AIST/NIMC Database- Spectrum MS-IW-4984
m/z	RELATIVE INTENSITY
15	40
26	70
27	139
28	169
29	149
30	20
37	50
38	129
39	339
40	50
41	299
42	40
43	20
44	10
47	10
49	10
50	149
51	299
52	759
53	789
54	149
55	50
61	70
62	129
63	349
64	269
65	489
66	80
67	99
68	20
69	10
73	10
74	50
75	40
76	40
77	129
78	169
79	229
80	1799
81	209
82	10
89	10
90	90
91	70
92	129
93	70
94	40
95	729
96	99
97	10
102	10
103	20
104	10
106	159
107	119
108	7559
109	649
110	40
118	10
119	10
120	40
121	20
122	1479
123	699
124	609
125	40
133	70
134	159
135	70
136	409
137	30
149	109
150	60
151	9999
152	959
153	80
