Mass Spectrum: 2-Butanone, 4-(4-hydroxyphenyl)-
Formula: C10 H12 O2
CAS: 5471-51-2
Molecular weight: 164
Origin: NIST Mass Spectrometry Data Center, 1990.
m/z	RELATIVE INTENSITY
14	310
15	478
27	678
28	135
39	1116
40	251
41	241
43	4084
50	361
51	864
52	337
53	507
55	669
62	229
63	491
64	184
65	934
66	246
77	2517
78	452
79	279
89	192
91	1188
93	434
94	1619
95	181
103	669
107	9999
108	749
119	278
120	378
121	1248
131	307
149	565
164	2995
165	327
