Mass Spectrum: 5,6-Dihydro-2,4,6-triethyl-4H-1,3,5-dithiazine
Formula: C9 H19 N S2
CAS: 54717-17-8
Molecular weight: 205
Origin: T. KAWAI, SHIONO KORYO KAISHA LTD., NIITAKAKITA, OSAKA, JAPAN
m/z	RELATIVE INTENSITY
39	200
41	1600
43	200
45	300
56	300
58	9999
59	200
68	200
70	500
73	500
74	1400
75	300
84	1300
98	2900
99	1600
131	800
205	1200
207	300
