Mass Spectrum: Hexamethyleneiminoacetonitrile
Formula: C8 H14 N2
CAS: 54714-50-0
Molecular weight: 138
Origin: NIST Mass Spectrometry Data Center
m/z	RELATIVE INTENSITY
12	20
13	40
14	180
15	1241
16	20
18	30
20	20
24	10
26	711
27	3643
28	2953
29	1181
30	701
32	10
35	10
36	10
37	100
39	3563
40	2532
41	7026
42	9999
43	2212
44	891
50	120
51	230
52	220
53	581
54	811
55	1752
56	1211
57	721
58	200
62	10
63	30
64	30
65	120
66	290
67	1571
68	981
69	2372
70	1201
71	230
72	10
77	30
79	70
80	150
81	500
82	2722
83	2462
84	400
85	50
92	20
93	40
95	1491
96	1481
97	200
98	991
99	70
106	10
107	80
109	4224
110	561
111	60
112	230
113	20
119	10
121	20
123	320
124	30
137	1221
138	1511
139	150
