Mass Spectrum: Propanoic acid, 2-[[(1-methylethylidene)amino]oxy]-, ethyl ester
Formula: C8 H15 N O3
CAS: 54716-29-9
Molecular weight: 173
Origin: Div. of Experiment Therapeutics WRAIR, WRAMC, Washington DC 20307
m/z	RELATIVE INTENSITY
41	371
42	2205
43	958
44	265
45	769
46	24
47	10
49	22
50	23
51	59
52	71
53	58
54	339
55	567
56	9999
57	1100
58	611
59	105
60	41
61	44
63	12
65	27
67	46
68	38
69	101
70	73
71	61
72	112
73	318
74	69
75	27
77	78
78	161
79	53
81	27
82	62
83	85
84	86
85	374
86	206
87	100
88	35
89	64
91	104
92	48
93	9
95	36
96	28
97	65
98	120
100	2544
101	185
103	545
104	41
105	41
106	74
109	9
110	24
111	54
112	35
113	41
114	48
115	57
116	98
117	29
121	28
124	88
125	29
126	31
127	27
128	112
129	52
130	60
131	96
132	29
141	43
142	30
143	26
144	48
145	91
146	24
154	10
156	40
158	94
159	10
171	31
172	47
173	1048
174	99
