Mass Spectrum: 1,3 Diphenylisobenzofuran
Formula: C20 H14 O
CAS: 5471-63-6
Molecular weight: 270
Origin: Japan AIST/NIMC Database- Spectrum MS-NW-2439
m/z	RELATIVE INTENSITY
26	20
27	129
28	89
29	10
37	20
38	40
39	409
40	20
41	40
42	10
43	30
44	10
45	30
49	10
50	269
51	959
52	80
53	20
55	20
56	10
57	30
61	30
62	179
63	449
64	50
65	99
66	10
68	10
69	40
70	10
71	20
73	10
74	229
75	219
76	159
77	1489
78	109
79	10
81	40
82	40
83	10
85	30
86	179
87	269
88	119
89	209
90	40
91	30
93	40
94	109
95	40
97	20
98	109
99	99
100	70
101	80
102	40
104	10
105	359
106	159
107	139
108	70
109	30
110	60
111	80
112	50
113	299
114	60
115	299
116	30
117	10
118	80
119	419
120	199
121	40
122	60
123	20
124	10
125	60
126	199
127	50
128	20
133	10
134	129
135	999
136	30
137	119
138	99
139	489
140	60
149	10
150	50
151	50
152	90
153	40
154	30
161	40
162	99
163	809
164	839
165	3079
166	429
167	30
174	20
175	20
176	50
177	10
178	10
180	10
181	20
186	10
187	80
188	60
189	159
190	30
192	20
193	1199
194	189
195	30
199	10
200	60
201	60
202	199
203	40
209	159
210	30
211	40
212	30
213	179
214	70
215	459
216	90
217	10
218	10
224	30
225	40
226	329
227	99
228	20
231	10
234	10
235	10
236	20
237	139
238	129
239	1759
240	789
241	3149
242	709
243	90
244	10
248	10
249	10
250	40
251	90
252	239
253	149
254	109
255	50
256	10
265	10
266	10
267	40
268	209
269	749
270	9999
271	2069
272	259
273	20
