Mass Spectrum: 2-Cyclohexen-1-ol, TMS derivative
Formula: C9 H18 O Si
CAS: 54725-71-2
Molecular weight: 170
Origin: CARL DJERASSI DEPT OF CHEM STANFORD UNIV STANFORD CALIF 94305
m/z	RELATIVE INTENSITY
39	300
41	500
43	400
44	100
45	700
47	500
51	100
52	100
53	300
57	100
59	300
61	500
70	200
72	100
73	4800
74	300
75	9999
76	700
77	800
78	100
79	1000
80	300
81	300
85	100
99	100
101	200
127	1500
128	100
129	100
141	100
142	1900
143	200
144	100
155	2100
156	300
157	100
169	1500
170	4000
171	600
172	200
