Mass Spectrum: Cyclopentanecarboxylic acid, phenyl ester
Formula: C12 H14 O2
CAS: 54758-32-6
Molecular weight: 190
Origin: Zaikin V.G., TIPS RAS, Moscow, Russia
m/z	RELATIVE INTENSITY
26	70
27	270
28	10
29	40
36	50
38	60
39	781
40	210
41	1682
42	100
50	50
51	200
53	120
55	571
63	90
64	40
65	571
66	370
67	531
68	350
69	9999
70	480
77	390
78	30
93	90
94	2993
95	340
96	1211
97	3904
98	250
149	70
190	561
191	90
