Mass Spectrum: Naphthalene, 2-methyl-1-propyl-
Formula: C14 H16
CAS: 54774-89-9
Molecular weight: 184
m/z	RELATIVE INTENSITY
39	300
40	30
41	100
42	10
43	30
44	10
45	20
50	110
51	270
52	60
53	60
55	10
56	10
57	10
58	10
61	10
62	80
63	290
64	100
65	90
66	10
69	30
70	40
71	20
73	10
74	80
75	140
76	240
77	280
78	60
79	10
81	20
82	100
83	100
84	10
85	10
86	50
87	100
88	70
89	180
90	20
91	70
92	20
98	30
99	30
100	20
101	60
102	110
103	50
104	10
105	10
110	10
111	20
112	10
113	70
114	60
115	1011
116	140
117	10
122	10
125	20
126	130
127	561
128	861
129	480
130	50
137	20
138	30
139	500
140	150
141	581
142	250
143	100
144	10
149	10
150	70
151	250
152	951
153	1191
154	601
155	9999
156	1411
157	100
158	10
161	20
162	10
163	60
164	50
165	390
166	110
167	190
168	110
169	130
170	30
171	20
176	20
177	10
178	40
179	20
180	10
181	20
182	20
183	40
184	2973
185	470
186	40
