Mass Spectrum: Benzene, 1-(1-chloroethyl)-4-(chloromethyl)-
Formula: C9 H10 Cl2
CAS: 54789-30-9
Molecular weight: 188
m/z	RELATIVE INTENSITY
97	20
98	20
99	60
101	110
102	230
103	500
104	320
105	80
111	20
112	20
113	30
114	40
115	1311
116	330
117	4304
118	1271
119	130
125	240
126	30
127	80
131	20
133	40
135	40
136	20
137	70
138	410
139	40
140	190
141	220
142	30
148	20
149	40
150	20
151	180
152	390
153	9999
154	1121
155	3243
156	320
157	30
172	30
173	300
174	50
175	200
176	20
177	30
186	10
187	330
188	1571
189	370
190	1001
191	140
192	160
193	20
