Mass Spectrum: Benzeneacetic acid, 1-methyl-2-propynyl ester
Formula: C12 H12 O2
CAS: 54789-24-1
Molecular weight: 188
Origin: Zaikin V.G., TIPS RAS, Moscow, Russia
m/z	RELATIVE INTENSITY
26	40
27	300
28	30
36	60
38	50
39	310
41	100
43	30
44	90
45	30
50	140
51	280
52	150
53	1141
54	50
62	50
63	200
64	60
65	761
66	40
77	60
79	50
89	250
90	200
91	9999
92	861
93	30
118	170
119	180
128	40
129	110
136	320
137	30
143	40
188	1391
189	180
