Mass Spectrum: Droperidol
Formula: C22 H22 F N3 O2
CAS: 548-73-2
Molecular weight: 379
Origin: AAFS Toxicology Section MS DB Committee, U. Alberta, Canada
m/z	RELATIVE INTENSITY
30	70
31	420
33	220
34	230
37	30
38	50
39	530
40	70
41	620
42	2131
43	300
45	340
46	120
48	10
50	270
51	420
52	240
53	530
54	190
55	210
56	70
57	30
58	70
61	90
62	90
63	250
64	190
65	280
66	180
67	180
69	270
70	160
72	120
74	170
75	580
76	200
77	440
78	400
79	400
80	730
81	160
82	620
84	160
86	140
87	140
88	200
89	270
90	370
91	300
92	380
93	180
94	360
95	2242
96	470
97	110
98	120
100	80
101	170
102	210
103	90
104	310
105	350
106	740
107	170
108	1341
109	400
110	10
111	70
113	10
114	140
115	390
116	240
117	210
118	300
119	320
120	160
121	70
122	30
123	4774
124	450
125	90
126	150
128	190
129	370
130	320
131	530
132	330
133	600
134	1311
135	500
136	120
138	390
140	60
141	60
142	240
143	570
144	470
145	280
146	60
147	310
148	170
149	180
151	60
154	160
155	210
156	480
157	620
158	330
159	140
160	110
161	10
162	60
163	130
164	270
165	6706
166	760
168	70
169	340
170	220
171	600
172	250
173	60
175	60
177	60
178	120
180	60
181	120
182	380
183	210
184	300
185	670
186	640
187	420
188	60
189	60
192	70
194	10
196	70
197	450
198	100
199	2592
200	580
201	130
204	70
206	10
207	70
209	140
210	160
211	1070
212	1141
213	340
214	1621
215	400
216	60
217	70
218	120
219	60
221	60
223	70
226	240
228	770
229	160
236	80
238	90
239	130
240	120
241	370
242	70
243	70
244	190
246	9999
247	1991
248	180
252	60
253	130
254	130
258	120
268	60
269	60
270	60
274	90
275	190
279	60
283	60
296	60
297	60
310	70
316	60
321	60
327	130
329	130
330	70
341	60
343	60
344	60
348	60
378	60
379	260
