Mass Spectrum: Nonane, 1,1-diethoxy-
Formula: C13 H28 O2
CAS: 54815-13-3
Molecular weight: 216
m/z	RELATIVE INTENSITY
14	40
15	110
17	10
18	100
19	70
26	120
27	651
28	550
29	1882
30	120
31	881
32	110
39	230
40	70
41	1221
42	330
43	1291
44	510
45	530
46	230
47	2052
53	130
54	220
55	1291
56	340
57	3403
58	250
59	320
66	90
67	450
68	450
69	2112
70	300
71	300
72	410
73	120
75	2522
81	460
82	671
83	1261
84	160
85	2702
86	210
95	340
96	270
97	140
98	90
99	310
103	9999
104	651
113	130
124	200
125	160
127	270
141	210
159	30
171	2292
215	30
