Mass Spectrum: Hexane, 1,1'-[methylenebis(oxy)]bis-
Formula: C13 H28 O2
CAS: 54815-12-2
Molecular weight: 216
m/z	RELATIVE INTENSITY
15	20
18	40
26	20
27	520
28	320
29	811
30	40
31	200
32	30
36	30
39	310
40	80
41	1631
42	641
43	7577
44	440
45	300
51	20
53	80
54	100
55	1011
56	1101
57	1541
58	150
59	60
60	30
61	20
67	200
68	120
69	370
70	180
71	390
72	90
73	80
80	20
81	130
82	621
83	3323
84	1061
85	9999
86	771
87	60
95	70
96	300
97	200
98	70
99	70
100	70
101	210
102	30
103	50
109	20
112	20
113	661
114	150
115	3653
116	290
117	180
216	80
