Mass Spectrum: Cyclohexanol, 2-methylene-3-(1-methylethenyl)-, acetate, cis-
Formula: C12 H18 O2
CAS: 54824-09-8
Molecular weight: 194
m/z	RELATIVE INTENSITY
41	1581
42	200
43	9999
44	200
51	220
52	60
53	581
54	60
55	781
56	80
57	200
65	260
66	60
67	661
68	40
69	240
70	1201
77	781
78	240
79	1261
80	80
81	641
82	400
83	240
84	100
91	1862
92	1021
93	1381
94	380
95	440
96	200
97	180
105	1401
106	1481
107	1281
108	180
109	420
112	220
119	2722
120	240
121	260
123	240
133	180
134	2642
135	440
136	220
137	200
151	120
152	240
