Mass Spectrum: Cyclohexane, 1-(cyclohexylmethyl)-2-methyl-, trans-
Formula: C14 H26
CAS: 54823-94-8
Molecular weight: 194
m/z	RELATIVE INTENSITY
35	10
36	10
37	10
38	40
39	1651
40	310
41	5795
42	971
43	851
44	30
45	10
46	10
47	10
48	10
49	10
50	30
51	120
52	90
53	861
54	1021
55	8908
56	711
57	230
58	10
59	10
60	10
61	10
62	10
63	20
64	10
65	170
66	180
67	2212
68	761
69	1451
70	260
71	50
72	10
73	10
74	10
75	10
76	10
77	220
78	60
79	320
80	140
81	1862
82	1772
83	2903
84	230
85	20
86	10
87	10
88	10
89	10
90	10
91	100
92	20
93	70
94	50
95	631
96	5085
97	9999
98	821
99	50
100	10
101	10
102	10
103	10
104	10
105	20
106	10
107	20
108	50
109	631
110	260
111	260
112	100
113	30
114	10
115	10
116	10
117	10
118	10
119	10
120	10
121	10
122	20
123	100
124	100
125	70
126	10
127	10
128	10
129	10
130	10
131	10
134	10
135	10
136	10
137	60
138	40
139	10
140	10
141	10
149	10
150	10
151	30
152	30
153	10
154	10
164	10
165	20
166	40
167	10
178	10
179	50
180	10
192	10
193	10
194	821
195	130
196	10
197	10
