Mass Spectrum: Cyclohexane, 1-(cyclohexylmethyl)-3-methyl-, trans-
Formula: C14 H26
CAS: 54823-95-9
Molecular weight: 194
m/z	RELATIVE INTENSITY
36	10
37	10
38	40
39	1722
40	330
41	6005
42	831
43	921
44	30
45	10
46	10
47	10
48	10
49	10
50	30
51	120
52	90
53	881
54	1001
55	9999
56	821
57	200
58	10
59	10
60	10
61	10
62	10
63	20
64	10
65	180
66	150
67	2112
68	741
69	1551
70	170
71	40
72	10
73	10
74	10
75	10
76	10
77	230
78	60
79	330
80	110
81	2252
82	2953
83	3753
84	270
85	30
86	10
87	10
88	10
89	10
90	10
91	100
92	20
93	70
94	60
95	1111
96	4524
97	8648
98	671
99	30
100	10
101	10
102	10
103	10
104	10
105	10
106	10
107	20
108	20
109	240
110	480
111	701
112	70
113	10
114	10
115	10
116	10
117	10
118	10
119	10
120	10
121	10
122	10
123	120
124	30
125	10
126	10
127	10
128	10
129	10
130	10
131	10
132	10
133	10
134	10
135	10
136	10
137	20
138	20
139	10
149	10
150	10
151	30
152	10
153	10
165	10
166	30
167	10
177	10
178	10
179	30
180	10
181	10
192	10
193	10
194	1321
195	200
196	20
197	10
