Mass Spectrum: Glycine, N-(3-methyl-1-oxo-2-butenyl)-, trimethylsilyl ester
Formula: C10 H19 N O3 Si
CAS: 54824-02-1
Molecular weight: 229
Origin: S. MARKEY UNIV. OF COLO. MED. CTR., DENVER, COLORADO, USA
m/z	RELATIVE INTENSITY
26	60
27	680
29	1250
30	590
38	50
39	780
40	270
41	280
42	250
43	510
44	470
45	990
46	70
47	510
48	50
49	40
51	40
52	110
53	440
54	360
55	2190
56	270
57	160
58	210
59	290
60	60
61	350
62	30
63	30
65	40
66	60
67	200
68	100
69	290
70	30
72	250
73	4910
74	550
75	2290
76	220
77	290
78	60
80	110
81	110
82	4060
83	9999
84	720
85	130
86	110
87	150
88	190
89	70
93	250
94	130
95	260
96	180
97	150
98	30
99	90
100	110
101	50
102	210
103	80
104	50
107	80
109	50
110	100
111	270
112	260
113	240
114	40
115	80
116	120
117	190
127	30
128	60
129	120
130	160
131	210
132	60
133	60
139	890
140	110
141	200
142	130
143	120
145	110
146	60
147	570
148	270
149	110
151	40
152	30
154	160
155	100
156	140
157	130
158	40
160	30
168	40
169	30
170	1820
171	350
172	120
173	30
184	180
185	60
188	30
199	50
204	40
211	80
213	30
214	730
215	150
216	110
217	50
223	20
229	1210
230	280
231	50
