Mass Spectrum: Cyclohexane, 1-(cyclohexylmethyl)-4-methyl-, cis-
Formula: C14 H26
CAS: 54823-97-1
Molecular weight: 194
m/z	RELATIVE INTENSITY
36	10
37	10
38	40
39	1752
40	310
41	5955
42	601
43	901
44	30
45	10
46	10
47	10
49	10
50	30
51	120
52	100
53	911
54	1121
55	9999
56	831
57	230
58	10
59	10
60	10
61	10
62	10
63	20
64	10
65	180
66	150
67	2242
68	851
69	1451
70	240
71	60
72	10
73	10
74	10
75	10
76	10
77	220
78	60
79	350
80	130
81	2342
82	3133
83	4304
84	300
85	20
86	10
87	10
88	10
89	10
90	10
91	100
92	20
93	70
94	40
95	831
96	4694
97	7897
98	631
99	30
100	10
101	10
102	10
103	10
104	10
105	10
106	10
107	20
108	20
109	260
110	621
111	651
112	70
113	10
114	10
115	10
116	10
117	10
118	10
119	10
120	10
121	10
122	20
123	110
124	40
125	10
126	10
127	10
128	10
129	10
130	10
131	10
132	10
133	10
134	10
135	10
136	10
137	30
138	20
139	10
140	10
141	10
149	10
150	10
151	10
152	10
153	10
164	10
165	20
166	30
167	10
178	10
179	20
180	10
181	10
192	10
193	10
194	1311
195	200
196	20
197	10
