Mass Spectrum: Cyclohexane, 1,1'-(2-ethyl-1,3-propanediyl)bis-
Formula: C17 H32
CAS: 54833-34-0
Molecular weight: 236
m/z	RELATIVE INTENSITY
36	10
37	20
38	30
39	1431
40	270
41	7887
42	671
43	1441
44	50
45	10
46	10
47	10
48	10
49	10
50	20
51	90
52	70
53	801
54	1101
55	9418
56	971
57	1161
58	50
59	10
60	10
61	10
62	10
63	20
64	10
65	150
66	120
67	1952
68	460
69	3523
70	380
71	540
72	30
73	10
74	10
75	10
76	10
77	170
78	50
79	300
80	110
81	1221
82	1581
83	9999
84	701
85	80
86	10
87	10
88	10
89	10
90	10
91	70
92	10
93	50
94	30
95	500
96	1141
97	4574
98	380
99	20
100	10
101	10
102	10
103	10
104	10
105	10
106	10
107	20
108	20
109	581
110	180
111	1862
112	170
113	10
114	10
115	10
116	10
117	10
118	10
119	10
120	10
121	10
122	10
123	270
124	60
125	831
126	90
127	10
128	10
129	10
130	10
131	10
132	10
133	10
134	10
135	30
136	10
137	220
138	1141
139	1722
140	190
141	10
142	10
143	10
149	10
150	10
151	140
152	100
153	90
154	10
155	10
163	10
164	10
165	40
166	10
167	10
177	10
178	10
179	10
180	10
192	10
193	20
194	10
195	10
205	10
206	721
207	2873
208	490
209	40
210	10
234	10
235	10
236	110
237	20
238	10
239	10
