Mass Spectrum: 2,4,6(1H,3H,5H)-Pyrimidinetrione, 1,3-diethyl-5-(1-methylbutyl)-5-(2-propenyl)-
Formula: C16 H26 N2 O3
CAS: 54833-76-0
Molecular weight: 294
Origin: BAY 0169
m/z	RELATIVE INTENSITY
41	1802
42	350
43	1401
44	601
45	50
46	50
51	50
52	50
53	601
54	200
55	601
56	350
57	50
58	50
65	100
66	100
67	350
68	350
69	500
70	651
71	250
72	150
75	50
77	150
78	100
79	350
80	250
81	751
82	350
83	250
84	50
91	100
93	100
94	100
95	300
96	300
97	250
98	200
99	50
106	150
107	150
108	200
109	1351
110	350
111	200
112	200
113	100
121	50
122	50
123	200
124	901
125	1551
126	250
128	50
135	50
136	50
137	100
138	250
139	100
140	100
147	50
148	50
150	50
151	250
152	851
153	350
154	100
166	50
167	150
168	400
169	100
171	50
178	50
179	50
180	200
181	250
182	200
184	150
185	100
193	50
194	100
195	751
196	1351
197	450
198	100
207	200
208	100
209	1501
210	250
211	400
212	100
221	100
222	350
223	8017
224	9999
225	1601
226	200
233	50
235	50
236	50
237	450
238	100
247	200
250	50
251	601
252	550
253	801
254	100
261	100
264	50
265	651
266	100
276	550
277	100
279	100
294	500
295	100
