Mass Spectrum: Heptadecane, 2,6,10,15-tetramethyl-
Formula: C21 H44
CAS: 54833-48-6
Molecular weight: 296
Origin: W. VAN HOEVEN, UNIV. OF CALIFORNIA, BERKELEY, USA
m/z	RELATIVE INTENSITY
40	120
41	2280
42	680
43	5820
44	250
50	20
51	30
52	20
53	180
54	110
55	2910
56	1910
57	9999
58	560
65	40
66	20
67	210
68	180
69	1450
70	1140
71	7450
72	450
77	40
78	10
79	50
80	10
81	160
82	90
83	600
84	350
85	4360
86	310
91	40
93	40
95	90
96	80
97	410
98	140
99	1090
100	90
105	30
107	30
109	40
110	50
111	370
112	420
113	910
114	90
119	20
120	10
121	30
122	10
123	30
124	10
125	70
126	150
127	450
128	50
135	10
136	10
137	10
138	10
139	20
140	110
141	420
142	50
153	10
154	50
155	160
156	30
168	10
169	90
170	40
178	40
182	70
183	180
184	40
196	10
197	50
198	10
210	50
211	130
212	30
224	10
225	20
238	10
239	50
240	10
252	10
253	10
266	20
267	30
268	10
280	10
281	30
282	10
296	80
297	30
