Mass Spectrum: 1H-Indene, octahydro-2,2,4,4,7,7-hexamethyl-, trans-
Formula: C15 H28
CAS: 54832-83-6
Molecular weight: 208
Origin: D.HENNEBERG, MAX-PLANCK INSTITUTE, MULHEIM, WEST GERMANY
m/z	RELATIVE INTENSITY
25	22
27	804
28	47
29	1468
30	24
32	31
33	9
36	16
38	20
39	799
40	201
41	5729
42	327
43	2049
44	19
45	4
46	12
47	25
49	25
50	28
51	116
52	74
53	866
54	206
55	3946
56	820
57	2776
58	106
60	16
61	40
63	34
64	38
65	257
66	195
67	1863
68	392
69	8212
70	875
71	676
72	45
73	9
75	51
76	22
77	508
78	166
79	696
80	161
81	3234
82	1185
83	7004
84	521
85	90
87	11
89	27
91	392
92	69
93	382
94	145
95	4235
96	1268
97	2009
98	357
99	29
102	8
103	29
104	28
105	177
106	50
107	286
108	80
109	5341
110	681
111	641
112	47
113	10
114	5
115	16
116	9
117	23
119	41
120	34
121	253
122	88
123	7752
124	894
125	105
126	7
133	5
135	121
136	198
137	7019
138	1398
139	352
140	24
149	15
151	92
152	124
153	12
165	86
166	13
177	8
179	46
180	14
191	27
193	9999
194	1359
195	115
208	75
