Mass Spectrum: Eicosane, 10-methyl-
Formula: C21 H44
CAS: 54833-23-7
Molecular weight: 296
m/z	RELATIVE INTENSITY
38	20
39	460
40	110
41	3763
42	1031
43	8217
44	290
45	10
50	10
51	20
52	10
53	170
54	200
55	2582
56	1501
57	9999
58	480
59	10
63	10
64	10
65	20
66	20
67	210
68	210
69	1231
70	911
71	5955
72	340
73	10
74	10
77	20
78	10
79	30
80	10
81	80
82	210
83	731
84	571
85	4304
86	290
87	10
91	10
92	10
93	10
94	10
95	30
96	140
97	671
98	360
99	1461
100	120
101	10
102	10
103	10
104	10
105	10
106	10
107	10
108	10
109	10
110	80
111	410
112	240
113	851
114	80
115	10
117	10
118	10
119	10
120	10
121	10
122	10
123	10
124	30
125	230
126	250
127	320
128	30
129	10
131	10
133	10
135	10
137	10
138	10
139	60
140	160
141	120
142	10
143	10
151	10
152	10
153	10
154	861
155	550
156	60
157	10
165	10
166	10
167	10
168	711
169	510
170	60
171	10
180	10
181	10
182	30
183	50
184	10
185	10
195	10
196	20
197	40
198	10
210	20
211	40
212	10
224	20
225	30
226	10
238	20
239	30
240	10
252	10
253	30
254	10
266	20
267	40
268	10
280	10
281	60
282	20
283	10
294	10
295	10
296	10
297	10
