Mass Spectrum: 6-Benzylquinoline
Formula: C16 H13 N
CAS: 54884-99-0
Molecular weight: 219
Origin: E.V.BROWN, DEP. CHEM., UNIV. KENTUCKY, LEXINGTON, KENTUCKY,U
m/z	RELATIVE INTENSITY
91	400
203	100
204	800
216	1500
217	3600
218	9999
219	8100
220	1400
