Mass Spectrum: 1,1'-Bicyclohexyl, 2-butyl-
Formula: C16 H30
CAS: 54889-99-5
Molecular weight: 222
m/z	RELATIVE INTENSITY
36	10
37	10
38	40
39	1581
40	290
41	7587
42	681
43	1712
44	60
45	10
46	10
47	10
48	10
49	10
50	30
51	130
52	110
53	1021
54	1551
55	7227
56	621
57	1491
58	70
59	10
60	10
61	10
62	10
63	30
64	20
65	260
66	240
67	3623
68	781
69	3944
70	320
71	520
72	40
73	10
74	10
75	10
76	10
77	370
78	100
79	701
80	300
81	2412
82	2752
83	9999
84	731
85	70
86	10
87	10
88	10
89	10
90	10
91	210
92	40
93	190
94	110
95	1251
96	2933
97	3493
98	280
99	20
100	10
101	10
102	10
103	10
104	10
105	40
106	10
107	70
108	80
109	1281
110	280
111	90
112	10
113	10
114	10
115	10
116	10
117	10
118	10
119	10
120	10
121	40
122	50
123	170
124	60
125	50
126	10
127	10
128	10
129	10
130	10
131	10
132	10
133	10
134	10
135	20
136	10
137	50
138	4114
139	3493
140	370
141	20
142	10
149	10
150	10
151	30
152	60
153	40
154	10
155	10
156	10
163	10
164	70
165	621
166	90
167	10
177	10
178	10
179	10
180	10
181	10
193	10
194	10
195	10
196	10
220	10
221	10
222	200
223	40
224	10
