Mass Spectrum: 1,1-Dicyclohexylbutane
Formula: C16 H30
CAS: 54890-00-5
Molecular weight: 222
m/z	RELATIVE INTENSITY
37	10
38	30
39	1501
40	260
41	7547
42	661
43	1331
44	10
45	10
46	10
48	10
49	10
50	30
51	110
52	90
53	851
54	1551
55	7907
56	621
57	1431
58	70
59	10
60	10
61	10
62	10
63	20
64	10
65	220
66	150
67	2522
68	530
69	3533
70	280
71	540
72	30
73	10
74	10
75	10
76	10
77	280
78	80
79	430
80	150
81	1371
82	3033
83	9999
84	701
85	60
86	10
87	10
88	10
89	10
90	10
91	140
92	30
93	100
94	40
95	601
96	1942
97	3723
98	300
99	10
100	10
101	10
102	10
103	10
104	10
105	30
106	10
107	30
108	50
109	1261
110	240
111	90
112	10
113	10
114	10
115	10
116	10
117	10
118	10
119	10
120	10
121	20
122	10
123	100
124	20
125	40
126	10
127	10
128	10
129	10
130	10
131	10
132	10
133	10
134	10
135	10
136	10
137	40
138	4184
139	2883
140	310
141	20
142	10
143	10
149	10
150	10
151	10
152	10
153	10
154	10
155	10
156	10
163	10
164	10
165	20
166	10
167	10
177	10
178	60
179	460
180	70
181	10
191	10
192	10
193	20
194	10
195	10
220	10
221	10
222	80
223	20
224	10
