Mass Spectrum: Cyclohexane, 1,1'-(1-methylethylidene)bis-
Formula: C15 H28
CAS: 54934-90-6
Molecular weight: 208
m/z	RELATIVE INTENSITY
36	10
37	20
38	40
39	1651
40	310
41	7907
42	530
43	2342
44	80
45	10
46	10
47	10
48	10
49	10
50	30
51	120
52	90
53	921
54	701
55	5865
56	591
57	2242
58	100
59	10
60	10
61	10
62	10
63	20
64	10
65	170
66	440
67	1702
68	530
69	9999
70	631
71	110
72	10
73	10
74	10
75	10
76	10
77	200
78	50
79	330
80	370
81	1962
82	3253
83	4904
84	350
85	10
86	10
87	10
88	10
89	10
90	10
91	110
92	20
93	70
94	30
95	460
96	330
97	470
98	40
99	10
100	10
101	10
102	10
103	10
104	10
105	20
106	10
107	20
108	10
109	751
110	80
111	100
112	10
113	10
114	10
115	10
116	10
117	10
118	10
119	10
120	10
121	10
122	10
123	50
124	6316
125	8127
126	781
127	40
128	10
129	10
130	10
131	10
132	10
133	10
134	10
135	10
136	10
137	10
138	10
139	10
192	10
193	10
194	10
195	10
