Mass Spectrum: Cyclohexane, 1-(cyclohexylmethyl)-4-ethyl-, cis-
Formula: C15 H28
CAS: 54934-95-1
Molecular weight: 208
m/z	RELATIVE INTENSITY
37	20
38	50
39	2062
40	380
41	8658
42	801
43	1321
44	50
45	10
46	10
47	10
48	10
49	10
50	30
51	140
52	120
53	1151
54	1571
55	9999
56	781
57	520
58	20
59	10
60	10
61	10
62	10
63	20
64	10
65	240
66	220
67	3053
68	951
69	7577
70	621
71	100
72	10
73	10
74	10
75	10
76	10
77	320
78	80
79	530
80	250
81	2612
82	4204
83	7156
84	641
85	60
86	10
87	10
88	10
89	10
90	10
91	140
92	30
93	120
94	60
95	1441
96	1321
97	2722
98	240
99	10
100	10
101	10
102	10
103	10
104	10
105	20
106	10
107	40
108	30
109	641
110	2913
111	6206
112	571
113	30
114	10
115	10
116	10
117	10
118	10
119	10
120	10
121	20
122	20
123	280
124	540
125	540
126	60
127	10
128	10
129	10
130	10
131	10
132	10
133	10
134	10
135	20
136	20
137	130
138	40
139	10
149	10
150	10
151	20
152	10
153	10
154	10
155	10
163	10
164	10
165	10
166	10
167	10
177	10
178	140
179	841
180	160
181	10
206	10
207	10
208	2092
209	360
210	30
211	10
