Mass Spectrum: Propanoic acid, 2,2-dichloro-, 1,2-ethanediyl ester
Formula: C8 H10 Cl4 O4
CAS: 54934-49-5
Molecular weight: 310
m/z	RELATIVE INTENSITY
12	20
13	30
14	120
15	370
16	30
17	150
18	641
19	190
25	40
26	430
27	1601
28	1772
29	460
30	60
31	611
32	230
33	50
35	120
36	711
37	50
38	260
39	50
40	40
41	300
42	260
43	961
44	911
45	9999
46	250
47	70
48	70
49	230
50	100
51	110
52	30
53	130
54	70
55	150
56	40
57	50
58	40
59	40
60	110
61	1942
62	1561
63	1151
64	540
65	210
66	10
69	20
71	70
72	30
73	60
75	10
76	100
77	1161
78	120
79	440
80	30
81	50
82	60
83	340
84	50
85	220
86	30
87	180
88	10
89	1421
90	1241
91	851
92	440
93	150
94	30
95	40
96	210
97	9318
98	360
99	6105
100	180
101	961
102	40
103	130
104	80
105	60
106	200
107	380
108	160
109	140
110	70
111	100
112	30
113	70
114	10
115	70
116	20
117	150
118	180
119	40
120	40
121	420
122	50
123	170
124	20
125	1051
126	70
127	791
128	60
129	190
130	10
131	10
132	10
133	961
134	190
135	420
136	50
137	40
141	120
142	40
143	100
144	10
145	30
149	50
152	30
155	200
156	110
157	130
158	60
159	30
160	40
162	20
168	100
169	2102
170	230
171	1301
172	120
173	230
174	70
175	10
180	260
181	30
183	40
185	30
187	10
189	20
191	10
195	40
196	30
198	30
199	10
200	10
202	10
207	10
212	10
