Mass Spectrum: 1,1'-Bicyclohexyl, 2-propyl-, cis-
Formula: C15 H28
CAS: 54934-88-2
Molecular weight: 208
m/z	RELATIVE INTENSITY
37	20
38	50
39	2322
40	440
41	9879
42	931
43	1842
44	70
45	10
46	10
47	10
48	10
49	10
50	50
51	210
52	170
53	1381
54	1922
55	8187
56	721
57	1441
58	70
59	10
60	10
61	10
62	10
63	40
64	20
65	370
66	310
67	4274
68	951
69	9999
70	661
71	160
72	10
73	10
74	10
75	10
76	10
77	500
78	140
79	851
80	430
81	3223
82	5935
83	9418
84	671
85	40
86	10
87	10
88	10
89	10
90	10
91	270
92	50
93	220
94	120
95	1601
96	1261
97	711
98	60
99	10
100	10
101	10
102	10
103	20
104	10
105	50
106	10
107	80
108	60
109	1051
110	160
111	90
112	20
113	10
114	10
115	20
116	10
117	10
118	10
119	10
120	10
121	40
122	50
123	190
124	5085
125	6486
126	641
127	30
128	10
129	10
130	10
131	10
132	10
133	10
134	10
135	20
136	10
137	40
138	170
139	120
140	10
141	10
149	10
150	10
151	60
152	20
153	10
163	10
164	110
165	871
166	130
167	10
176	10
177	10
178	10
179	10
180	10
181	10
206	10
207	10
208	821
209	140
210	10
