Mass Spectrum: Cyclohexane, 1,1'-propylidenebis-
Formula: C15 H28
CAS: 54934-91-7
Molecular weight: 208
m/z	RELATIVE INTENSITY
36	10
37	20
38	40
39	2112
40	380
41	9869
42	921
43	1311
44	50
45	10
46	10
47	10
48	10
49	10
50	40
51	160
52	130
53	1211
54	1511
55	9188
56	751
57	1401
58	70
59	10
60	10
61	10
62	10
63	30
64	20
65	270
66	230
67	3213
68	751
69	9999
70	631
71	130
72	10
73	10
74	10
75	10
76	10
77	350
78	90
79	520
80	240
81	2162
82	6136
83	9469
84	661
85	30
86	10
87	10
88	10
89	10
90	10
91	160
92	30
93	100
94	50
95	981
96	591
97	1111
98	90
99	10
100	10
101	10
102	10
103	10
104	10
105	30
106	10
107	40
108	20
109	460
110	80
111	160
112	20
113	10
114	10
115	10
116	10
117	10
118	10
119	10
120	10
121	20
122	20
123	160
124	5955
125	5665
126	550
127	30
128	10
129	10
130	10
131	10
132	10
133	10
134	10
135	10
136	10
137	50
138	10
139	10
149	10
150	10
151	10
152	10
163	10
164	10
165	20
166	10
167	10
177	10
178	110
179	951
180	140
181	10
205	10
206	10
207	10
208	170
209	30
210	10
