Mass Spectrum: Cyclohexane, 1-(cyclohexylmethyl)-4-ethyl-, trans-
Formula: C15 H28
CAS: 54934-94-0
Molecular weight: 208
m/z	RELATIVE INTENSITY
37	20
38	50
39	2072
40	390
41	8708
42	761
43	1311
44	50
45	10
46	10
47	10
48	10
49	10
50	30
51	140
52	120
53	1211
54	1611
55	9999
56	751
57	500
58	20
59	10
60	10
61	10
62	10
63	20
64	10
65	260
66	230
67	3113
68	901
69	7717
70	631
71	100
72	10
73	10
74	10
75	10
76	10
77	320
78	90
79	550
80	280
81	2793
82	3333
83	6486
84	591
85	70
86	10
87	10
88	10
89	10
90	10
91	140
92	30
93	120
94	60
95	1401
96	1351
97	2833
98	240
99	10
100	10
101	10
102	10
103	10
104	10
105	20
106	10
107	40
108	30
109	641
110	3823
111	6636
112	591
113	30
114	10
115	10
116	10
117	10
118	10
119	10
120	10
121	20
122	30
123	280
124	460
125	430
126	50
127	10
128	10
129	10
130	10
131	10
132	10
133	10
134	10
135	20
136	20
137	110
138	30
139	10
140	10
141	10
142	10
143	10
144	10
145	10
149	10
150	10
151	20
152	10
153	10
154	10
155	10
163	10
164	10
165	10
166	10
167	10
177	10
178	190
179	841
180	150
181	10
182	10
207	10
208	1521
209	250
210	20
211	10
