Mass Spectrum: 1,1'-Bicyclohexyl, 2-propyl-, trans-
Formula: C15 H28
CAS: 54934-89-3
Molecular weight: 208
m/z	RELATIVE INTENSITY
36	10
37	20
38	50
39	2342
40	440
41	9999
42	971
43	1852
44	70
45	10
46	10
47	10
48	10
49	10
50	50
51	200
52	170
53	1391
54	1902
55	8378
56	791
57	1441
58	70
59	10
60	10
61	10
62	10
63	40
64	10
65	370
66	320
67	4384
68	981
69	9789
70	671
71	170
72	10
73	10
74	10
75	10
76	10
77	510
78	140
79	881
80	420
81	3213
82	4584
83	9469
84	691
85	50
86	10
87	10
88	10
89	10
90	10
91	270
92	50
93	230
94	130
95	1631
96	1631
97	871
98	80
99	10
100	10
101	10
102	10
103	20
104	10
105	50
106	10
107	90
108	80
109	1391
110	220
111	130
112	30
113	10
114	10
115	10
116	10
117	10
118	10
119	10
120	10
121	40
122	50
123	210
124	6436
125	7106
126	711
127	40
128	10
129	10
130	10
131	10
132	10
133	10
134	10
135	20
136	10
137	50
138	90
139	60
140	10
141	10
149	10
150	10
151	50
152	20
153	10
163	10
164	70
165	691
166	100
167	10
178	10
179	20
180	10
206	10
207	10
208	400
209	70
210	10
211	10
