Mass Spectrum: Cyclohexane, 1-(cyclohexylmethyl)-2-ethyl-, cis-
Formula: C15 H28
CAS: 54934-93-9
Molecular weight: 208
m/z	RELATIVE INTENSITY
36	10
37	20
38	50
39	2172
40	410
41	9679
42	1151
43	1571
44	60
45	10
46	10
47	10
48	10
49	10
50	40
51	160
52	130
53	1231
54	1531
55	9999
56	1011
57	611
58	30
59	10
60	10
61	10
62	10
63	30
64	10
65	280
66	250
67	3123
68	891
69	7787
70	711
71	120
72	10
73	10
74	10
75	10
76	10
77	340
78	90
79	571
80	250
81	2572
82	1742
83	6136
84	510
85	50
86	10
87	10
88	10
89	10
90	10
91	170
92	30
93	120
94	70
95	1231
96	1692
97	4574
98	400
99	20
100	10
101	10
102	10
103	10
104	10
105	30
106	10
107	40
108	60
109	1081
110	2192
111	8358
112	811
113	50
114	10
115	10
116	10
117	10
118	10
119	10
120	10
121	20
122	30
123	500
124	150
125	130
126	60
127	20
128	10
129	10
130	10
131	10
132	10
133	10
134	10
135	20
136	10
137	160
138	130
139	80
140	10
149	10
150	10
151	50
152	30
153	10
164	10
165	30
166	20
167	10
177	10
178	280
179	3823
180	591
181	50
205	10
206	10
207	10
208	991
209	160
210	20
