Mass Spectrum: Adrenaline, 4TMS derivative
Formula: C21 H45 N O3 Si4
CAS: 54947-77-2
Molecular weight: 471
Origin: H. IWASE, CENT. RES. LAB., AJINOMOTO CO. INC., KAWASAKI, JPN
m/z	RELATIVE INTENSITY
45	1000
73	6780
74	710
75	410
116	9999
117	1110
118	360
147	340
355	750
356	240
