Mass Spectrum: 4-Methyloctanoic acid
Formula: C9 H18 O2
CAS: 54947-74-9
Molecular weight: 158
Origin: NIST Mass Spectrometry Data Center, 1994
m/z	RELATIVE INTENSITY
15	316
17	103
26	307
27	4615
28	1319
29	5104
30	307
38	164
39	3659
40	611
41	8115
42	1797
43	7776
44	397
45	2341
50	136
51	329
52	97
53	1009
54	437
55	7835
56	2331
57	9999
58	578
59	1059
60	3522
61	395
65	148
67	361
68	159
69	1518
70	339
71	246
72	148
73	6769
74	1963
75	153
77	101
79	110
81	284
82	165
83	2606
84	242
85	654
87	125
95	76
96	134
97	484
98	76
99	3058
100	403
101	3067
102	225
125	124
129	346
