Mass Spectrum: 1-Propanone, 2-chloro-1-(2,5-dimethylphenyl)-2-methyl-
Formula: C12 H15 Cl O
CAS: 54965-52-5
Molecular weight: 210
m/z	RELATIVE INTENSITY
15	20
18	30
26	10
27	190
28	160
29	20
32	40
36	30
37	10
38	30
39	340
40	40
41	370
42	70
43	60
44	10
45	10
49	20
50	90
51	300
52	90
53	150
54	10
55	20
57	10
58	30
59	10
61	20
62	50
63	200
64	110
65	230
66	40
67	10
69	50
70	40
71	30
72	20
73	50
74	40
75	70
76	100
77	911
78	270
79	651
80	70
85	10
86	40
87	30
88	10
89	110
90	40
91	480
92	70
93	20
94	20
95	10
96	10
97	10
98	10
101	20
102	80
103	490
104	220
105	2893
106	280
107	100
108	10
111	10
113	10
114	10
115	230
116	100
117	110
118	80
119	1081
120	100
121	20
122	10
123	10
125	30
127	60
128	140
129	120
130	60
131	200
132	80
133	9999
134	1001
135	430
136	40
139	40
141	70
142	70
143	50
144	30
145	140
146	120
147	520
148	70
149	30
150	20
151	20
152	70
153	20
155	20
156	20
157	180
158	60
159	1011
160	140
161	70
162	30
163	20
165	20
167	10
171	10
172	10
173	140
174	581
175	100
176	50
177	40
178	10
179	10
181	20
183	30
188	130
189	20
193	80
194	20
195	30
196	10
210	70
212	20
213	10
