Mass Spectrum: Tyramine, 2TMS derivative
Formula: C14 H27 N O Si2
CAS: 54965-31-0
Molecular weight: 281
Origin: S. MARKEY UNIV. OF COLO. MED. CTR., DENVER, COLORADO, USA
m/z	RELATIVE INTENSITY
39	850
41	80
43	270
44	110
45	750
58	320
59	550
72	60
73	5170
74	470
75	780
77	200
86	80
91	170
102	9999
103	1090
104	370
147	150
149	390
163	260
165	380
177	70
179	530
180	440
192	210
266	1060
267	250
