Mass Spectrum: 1-Propanone, 2-chloro-1-(2,4-dimethylphenyl)-2-methyl-
Formula: C12 H15 Cl O
CAS: 54965-53-6
Molecular weight: 210
m/z	RELATIVE INTENSITY
15	10
18	20
27	150
28	130
32	10
36	70
38	40
39	240
40	30
41	280
42	40
49	10
50	50
51	180
52	60
53	100
55	20
58	10
61	10
62	30
63	130
64	40
65	110
66	10
69	40
70	20
74	20
75	30
76	30
77	731
78	210
79	581
80	50
86	10
87	20
89	60
90	20
91	100
92	10
101	10
102	50
103	410
104	160
105	2182
106	200
107	50
115	70
116	30
117	30
118	10
119	150
120	20
127	20
128	40
129	30
130	10
131	30
132	50
133	9999
134	991
135	60
141	30
142	30
143	20
144	10
145	50
146	10
147	280
148	30
157	70
158	20
159	110
160	20
173	20
174	80
175	20
193	40
195	10
210	30
