Mass Spectrum: 4-Pentenal, 2,2-dimethyl-
Formula: C7 H12 O
CAS: 5497-67-6
Molecular weight: 112
Origin: A.CORNU ATOMIC ENERGY COMMISSION, GRENOBLE, FRANCE
m/z	RELATIVE INTENSITY
15	440
16	2700
27	2300
29	2460
39	4360
40	1570
41	8720
42	1360
43	4060
44	2400
45	900
46	500
53	700
55	9999
56	2800
57	480
58	380
65	280
67	1180
68	310
69	1630
70	1750
71	300
79	500
83	1350
84	480
94	700
97	580
112	80
