Mass Spectrum: Benzo[c]phenanthrene, 5,8-dimethyl-
Formula: C20 H16
CAS: 54986-63-9
Molecular weight: 256
m/z	RELATIVE INTENSITY
36	10
37	10
38	40
39	230
40	20
41	80
42	20
43	80
44	20
50	80
51	120
52	30
53	20
54	10
55	40
56	30
57	80
58	10
59	10
60	10
61	10
62	60
63	130
64	20
65	20
66	10
67	10
68	10
69	20
70	20
71	40
72	10
73	10
74	70
75	90
76	50
77	50
78	10
79	10
80	10
81	10
82	10
83	20
84	30
85	30
86	60
87	120
88	130
89	40
90	10
91	10
92	10
93	20
94	40
95	30
96	10
97	10
98	60
99	80
100	220
101	400
102	30
103	20
105	20
106	70
107	80
108	80
109	10
110	40
111	50
112	240
113	931
114	340
115	50
116	10
117	10
118	90
119	380
120	871
121	60
122	20
123	20
124	70
125	280
126	530
127	260
128	550
129	20
131	10
134	10
135	10
136	10
137	20
138	10
139	40
140	10
141	10
143	10
146	10
147	10
149	10
150	50
151	40
152	40
153	10
161	10
162	10
163	60
164	10
165	30
166	10
174	30
175	20
176	50
177	20
178	30
179	10
185	10
186	20
187	70
188	30
189	90
190	20
191	20
192	10
194	10
197	10
198	30
199	30
200	100
201	50
202	150
203	40
204	10
205	10
206	10
209	10
210	10
211	60
212	30
213	150
214	40
215	230
216	60
217	10
218	10
219	20
220	10
221	10
222	20
223	20
224	130
225	90
226	711
227	230
228	220
229	160
230	30
231	10
234	10
235	30
236	20
237	230
238	100
239	2072
240	1061
241	1451
242	300
243	30
246	10
247	10
248	40
249	30
250	260
251	100
252	450
253	440
254	170
255	781
256	9999
257	2162
258	230
