Mass Spectrum: Chrysene, 5-ethyl-
Formula: C20 H16
CAS: 54986-62-8
Molecular weight: 256
Origin: R.A.HITES, INDIANA UNIV., BLOOMINGTON, IN
m/z	RELATIVE INTENSITY
40	100
41	100
43	100
50	300
51	300
52	200
62	100
63	300
74	200
75	200
100	400
101	300
105	100
106	200
107	200
108	100
110	100
111	100
112	500
113	1200
114	600
115	100
118	300
119	900
120	2200
121	200
122	100
123	100
124	200
125	500
126	900
127	300
128	1000
134	100
139	100
200	200
201	100
202	300
203	100
211	200
212	100
213	400
214	100
215	400
216	100
222	100
223	100
224	400
225	300
226	1300
227	500
228	500
229	300
230	100
231	100
237	800
238	500
239	5300
240	2500
241	7600
242	1700
243	200
248	100
249	100
250	400
251	200
252	1000
253	800
254	400
255	900
256	9999
257	2300
258	300
