Mass Spectrum: 1,5-Methano-8H-pyrido[1,2-a][1,5]diazocin-8-one, decahydro-4-(2-propenyl)-, [1S-(1.alpha.,4.alpha.,5.alpha.,11a.alpha.)]-
Formula: C14 H22 N2 O
CAS: 550-43-6
Molecular weight: 234
m/z	RELATIVE INTENSITY
53	250
54	250
55	1041
56	350
58	150
67	330
68	350
69	110
70	130
77	110
79	110
80	430
81	180
82	300
84	400
93	140
94	591
95	140
96	210
98	110
108	100
112	8508
113	380
120	120
122	140
134	130
150	901
151	110
193	9999
194	1391
195	110
234	10
