Mass Spectrum: Lupanine
Formula: C15 H24 N2 O
CAS: 550-90-3
Molecular weight: 248
Origin: Association of Official Racing Chemists
m/z	RELATIVE INTENSITY
47	42
48	65
49	43
50	66
51	102
52	117
53	681
54	1038
55	3516
56	1124
57	296
58	222
59	48
60	43
61	42
62	62
63	10
65	276
66	162
67	908
68	908
69	615
70	440
71	74
73	14
75	45
76	30
77	286
78	117
79	480
80	761
81	347
82	784
83	606
84	1128
85	125
86	64
88	28
89	37
91	256
92	153
93	500
94	824
95	598
96	763
97	1777
98	2035
99	318
100	142
102	39
103	58
104	39
105	144
106	462
107	289
108	829
109	371
110	1886
111	587
112	1249
113	351
114	130
115	33
117	75
118	153
119	82
120	451
121	364
122	1145
123	567
124	901
125	207
126	96
129	26
130	79
131	35
132	139
134	2041
136	9999
137	1424
138	341
139	53
143	42
144	58
145	43
146	131
147	256
148	1953
149	5146
150	3619
151	927
152	430
153	82
160	85
161	91
162	289
163	394
164	278
165	357
166	325
167	56
172	46
173	50
174	58
175	68
176	224
177	306
178	149
179	193
180	48
187	41
188	51
189	62
190	175
191	466
192	251
193	132
201	29
202	53
203	43
204	65
205	425
206	327
207	139
208	57
216	41
218	46
219	878
220	228
221	39
229	31
230	48
231	257
232	64
233	261
234	57
247	3178
248	4597
249	805
250	60
