Mass Spectrum: Naphthalene, 7-butyl-1-hexyl-
Formula: C20 H28
CAS: 55000-55-0
Molecular weight: 268
m/z	RELATIVE INTENSITY
36	10
37	20
38	30
39	581
40	90
41	1912
42	240
43	1621
44	60
45	10
48	10
49	10
50	40
51	100
52	30
53	100
54	20
55	641
56	60
57	350
58	20
61	10
62	20
63	100
64	60
65	60
66	10
67	30
68	10
69	30
70	20
71	20
72	10
73	10
74	20
75	50
76	90
77	150
78	30
79	10
80	10
81	20
82	30
83	60
84	10
85	20
86	10
87	30
88	30
89	90
90	10
91	60
92	10
93	10
95	10
96	10
97	10
98	10
99	10
100	10
101	30
102	60
103	20
104	10
105	20
106	10
111	10
112	10
113	30
114	40
115	550
116	70
117	30
118	10
119	10
125	10
126	60
127	230
128	430
129	290
130	40
131	30
132	10
137	10
138	10
139	400
140	230
141	2472
142	550
143	90
144	10
147	10
149	10
150	60
151	310
152	1351
153	2312
154	3253
155	3543
156	691
157	70
158	10
159	20
160	10
161	10
162	10
163	50
164	80
165	891
166	330
167	861
168	260
169	260
170	40
171	10
172	10
173	10
174	10
175	10
176	30
177	40
178	170
179	160
180	60
181	160
182	50
183	80
184	90
185	30
186	20
187	30
188	10
189	30
190	10
191	30
192	10
193	20
194	10
195	90
196	60
197	9999
198	2262
199	230
200	20
201	10
202	20
203	10
204	10
205	10
206	10
207	10
208	10
209	10
210	20
211	170
212	50
213	10
214	10
215	10
216	10
217	10
218	10
223	10
224	10
225	931
226	581
227	100
228	10
229	10
237	10
238	20
239	70
240	20
241	10
243	10
252	10
253	10
254	10
260	10
266	30
267	30
268	6536
269	1571
270	180
271	20
