Mass Spectrum: Hexadecane, 2,6,10-trimethyl-
Formula: C19 H40
CAS: 55000-52-7
Molecular weight: 268
Origin: E.D.MCCARTHY CALIFORNIA UNIV., BERKELEY, U.S.A
m/z	RELATIVE INTENSITY
41	2000
42	636
43	5090
44	181
53	127
54	90
55	1818
56	1872
57	9999
58	418
67	181
68	145
69	1127
70	1018
71	7818
72	418
79	36
81	145
82	127
83	600
84	581
85	2781
86	200
95	127
96	163
97	581
98	200
99	836
100	72
109	72
110	90
111	363
112	2436
113	1818
114	145
123	54
124	36
125	90
126	400
127	618
128	54
137	36
139	36
140	54
141	272
142	36
151	36
152	36
153	36
154	236
155	418
156	54
168	36
169	72
182	709
183	2145
184	309
185	36
196	36
197	90
210	18
211	54
224	54
225	109
238	54
239	145
240	18
252	36
253	254
254	36
268	145
269	36
