Mass Spectrum: Naphthalene, 1,4-dimethyl-5-octyl-
Formula: C20 H28
CAS: 55000-53-8
Molecular weight: 268
Origin: CONTINENTAL OIL CO., PONCA CITY, OKLA, USA
m/z	RELATIVE INTENSITY
13	32
14	74
15	276
16	3
24	10
25	30
26	70
27	1171
28	473
29	1865
30	42
36	5
37	9
38	21
39	433
40	82
41	1270
42	131
43	983
44	29
49	9
50	34
51	95
52	30
53	104
54	26
55	346
56	32
57	171
58	6
62	21
63	66
64	31
65	55
66	12
67	38
68	12
69	127
70	19
71	21
74	15
75	30
76	48
77	105
78	34
79	18
81	30
82	45
83	50
85	25
87	13
88	17
89	90
90	18
91	86
92	13
93	7
94	9
95	15
96	21
97	9
98	13
99	15
100	9
101	28
102	53
103	32
104	10
105	20
111	8
112	6
113	24
114	23
115	369
116	52
117	18
118	9
119	14
125	15
126	53
127	188
128	471
129	244
130	37
131	10
133	10
137	12
138	25
139	205
140	89
141	511
142	206
143	108
144	36
145	23
149	23
150	55
151	259
152	1341
153	1390
154	958
155	1139
156	127
157	168
158	43
159	46
162	23
163	87
164	146
165	1075
166	498
167	2089
168	764
169	9999
170	1969
171	212
172	20
175	11
176	37
177	43
178	143
179	179
180	87
181	229
182	231
183	280
184	61
185	10
189	27
190	13
191	27
192	18
193	27
194	17
195	74
196	65
197	94
198	22
203	7
204	5
205	5
209	17
210	26
211	48
212	11
219	10
224	11
225	16
226	7
239	13
240	16
251	10
252	14
253	43
254	14
264	10
266	75
267	32
268	7490
269	1599
270	171
