Mass Spectrum: Cyclopropanecarbonitrile
Formula: C4 H5 N
CAS: 5500-21-0
Molecular weight: 67
Origin: RADIAN CORP
m/z	RELATIVE INTENSITY
12	20
13	30
14	100
15	90
24	30
25	140
26	750
27	1820
28	570
32	70
36	150
37	1060
38	1520
39	3970
40	2240
41	9999
42	300
44	20
48	20
49	70
50	180
51	640
52	1490
53	70
62	180
63	420
64	1130
65	330
66	2320
67	2830
68	150
