Mass Spectrum: 1H-Indene, 5-butyl-6-hexyl-2,3-dihydro-
Formula: C19 H30
CAS: 55030-45-0
Molecular weight: 258
Origin: C.E.A., C.E.N., GRENOBLE, FRANCE
m/z	RELATIVE INTENSITY
26	20
27	170
28	70
29	410
39	110
40	10
41	470
42	40
43	400
44	40
50	10
51	30
52	10
53	90
54	10
55	350
56	30
57	150
58	10
63	20
64	10
65	70
66	10
67	60
69	20
70	10
71	10
75	10
76	20
77	120
78	40
79	60
80	10
81	40
82	30
83	60
84	10
85	10
89	20
91	380
92	30
93	10
94	10
95	10
97	10
98	30
99	10
101	10
102	30
103	60
104	30
105	190
106	20
112	60
113	30
114	20
115	460
116	210
117	410
118	60
119	40
125	10
126	10
127	180
128	580
129	700
130	370
131	510
132	50
133	70
134	10
135	30
136	30
137	20
138	10
139	20
140	20
141	240
142	180
143	500
144	270
145	9999
146	10
147	80
151	10
152	40
153	70
154	40
155	100
156	50
157	230
158	80
159	160
160	20
165	20
166	10
167	20
168	10
169	30
170	10
171	150
172	50
173	210
174	90
175	10
178	10
179	30
180	20
181	20
182	10
183	10
184	10
185	140
186	60
187	1890
188	460
189	100
199	20
200	10
201	220
202	60
203	10
213	40
214	20
215	560
216	110
217	50
229	60
230	20
244	10
255	10
256	140
257	80
258	2940
259	510
260	60
