Mass Spectrum: Heptadecane, 4-propyl-
Formula: C20 H42
CAS: 55044-10-5
Molecular weight: 282
m/z	RELATIVE INTENSITY
29	3013
30	10
31	10
32	10
36	10
37	10
38	10
39	440
40	100
41	3833
42	911
43	7287
44	220
45	10
50	10
51	10
52	10
53	170
54	230
55	2853
56	1401
57	9999
58	520
59	20
60	20
61	20
62	10
63	10
65	20
66	20
67	220
68	170
69	1361
70	741
71	3673
72	190
73	20
74	40
75	10
76	10
77	20
78	10
79	30
80	10
81	90
82	110
83	651
84	290
85	2562
86	250
87	90
88	10
89	10
91	10
92	10
93	10
94	10
95	40
96	60
97	370
98	1922
99	1011
100	60
101	10
102	10
103	10
105	10
107	10
109	10
110	30
111	160
112	120
113	360
114	30
115	10
121	10
123	10
124	20
125	80
126	60
127	240
128	30
129	10
137	10
138	10
139	30
140	40
141	180
142	20
143	10
151	10
152	10
153	20
154	30
155	160
156	20
157	10
158	10
166	10
167	10
168	20
169	120
170	20
171	10
180	10
181	10
182	30
183	90
184	10
185	10
193	10
194	10
195	10
196	10
197	50
198	10
199	10
207	10
208	10
209	10
210	30
211	60
212	10
213	10
224	20
225	30
226	10
227	10
228	10
238	751
239	1061
240	170
241	10
242	10
252	20
253	30
254	10
255	10
