Mass Spectrum: Tetradecane, 4-ethyl-
Formula: C16 H34
CAS: 55045-14-2
Molecular weight: 226
Origin: KONINKLIJKE SHELL LABORATORIUM AMSTERDAM
m/z	RELATIVE INTENSITY
30	63
32	17
36	4
37	8
38	13
39	558
40	114
41	4041
42	1015
43	9999
44	319
45	8
49	2
50	9
51	19
52	15
53	189
54	182
55	2208
56	1155
57	8243
58	350
59	7
63	4
65	23
66	17
67	165
68	107
69	909
70	554
71	4585
72	249
73	32
74	1
75	2
76	1
77	18
78	4
79	22
80	3
81	45
82	100
83	401
84	1700
85	4383
86	275
87	10
91	6
93	4
95	14
96	59
97	275
98	185
99	901
100	68
101	6
109	4
110	39
111	161
112	103
113	625
114	56
115	4
124	23
125	95
126	61
127	450
128	44
129	4
138	14
139	46
140	54
141	265
142	31
143	4
147	6
152	8
153	25
154	41
155	87
156	11
166	3
167	9
168	39
169	21
170	4
182	312
183	304
184	40
185	4
196	419
197	607
198	88
199	8
224	3
225	3
226	10
227	1
