Mass Spectrum: 2,4,6(1H,3H,5H)-Pyrimidinetrione, 5-(1-cyclohexen-1-yl)-1-ethyl-3,5-dimethyl-
Formula: C14 H20 N2 O3
CAS: 55044-42-3
Molecular weight: 264
Origin: BAY 0152
m/z	RELATIVE INTENSITY
41	550
42	250
43	200
44	250
51	200
52	200
53	400
54	200
55	200
56	350
57	150
58	200
63	50
65	300
66	250
67	300
68	100
69	50
70	250
71	50
77	851
78	150
79	1601
80	550
81	3553
82	250
83	450
84	100
85	200
91	901
92	150
93	901
94	150
95	200
96	100
98	50
99	100
103	100
105	200
106	100
107	350
108	651
109	150
110	100
112	300
113	150
114	50
118	50
119	50
120	50
121	350
122	150
123	200
124	50
127	100
128	50
132	50
133	50
134	100
135	250
136	751
137	450
138	50
141	100
142	300
143	50
146	50
147	100
148	100
149	150
150	150
151	200
153	50
155	200
156	901
157	200
158	50
164	250
165	250
166	50
168	300
169	100
178	901
179	150
180	50
181	50
182	150
183	2102
184	1001
185	1151
186	200
192	150
193	100
207	50
221	250
231	50
236	50
245	50
246	50
247	150
248	150
249	9999
250	2102
251	300
252	50
263	50
264	1001
265	250
