Mass Spectrum: 3-Hexanol, 2,2,5,5-tetramethyl-
Formula: C10 H22 O
CAS: 55073-86-4
Molecular weight: 158
Origin: NIST Mass Spectrometry Data Center, 1990.
m/z	RELATIVE INTENSITY
15	106
27	498
28	374
29	1148
31	91
39	696
41	2449
42	175
43	844
44	143
45	364
53	185
55	396
57	9999
58	406
59	162
67	109
69	1010
70	91
71	343
82	81
83	164
84	91
85	328
86	81
87	1297
88	69
100	688
101	1639
102	102
125	156
