Mass Spectrum: 5-Acetyl-2-furanmethanol
Formula: C7 H8 O3
CAS: 55087-82-6
Molecular weight: 140
Origin: O. THEANDER,DEP. CHEM. MOL. BIOL.,SWED. UNIV. AGRIC.,UPP
m/z	RELATIVE INTENSITY
43	8300
50	1100
51	1700
52	1200
53	900
55	400
66	300
68	500
69	6100
70	300
79	400
80	400
81	1000
95	700
97	8000
98	500
111	1600
123	1400
125	9999
126	700
139	500
140	7700
