Mass Spectrum: 5-Chloropentyl benzoate
Formula: C12 H15 Cl O2
CAS: 55092-47-2
Molecular weight: 226
Origin: NIST Mass Spectrometry Data Center, 1994
m/z	RELATIVE INTENSITY
12	12
14	13
15	95
17	16
18	31
26	173
27	1587
28	456
29	847
30	63
31	13
35	16
36	27
37	33
38	132
39	1096
40	225
41	1793
42	612
43	224
44	58
49	312
50	866
51	2652
52	178
53	256
54	33
55	1030
56	60
57	60
61	29
62	87
63	205
64	31
65	156
66	29
67	450
68	2236
69	688
70	37
73	28
74	175
75	199
76	28
77	5555
78	490
79	650
80	41
85	20
91	44
92	21
93	18
94	35
105	9999
106	1016
107	70
108	7
120	30
122	2445
123	4918
124	381
125	35
135	98
136	18
139	9
163	28
191	85
192	12
226	64
228	18
