Mass Spectrum: 2,6-Difluoroaniline
Formula: C6 H5 F2 N
CAS: 5509-65-9
Molecular weight: 129
Origin: NIST Mass Spectrometry Data Center
m/z	RELATIVE INTENSITY
11	10
12	10
14	10
16	20
17	10
18	10
19	10
24	20
25	40
26	70
27	60
28	571
31	961
32	70
33	150
36	50
37	330
38	330
39	230
40	50
41	100
44	140
45	60
46	110
47	20
48	40
49	130
50	430
51	831
52	801
53	80
55	130
56	490
57	911
58	170
59	100
60	60
61	290
62	701
63	721
64	631
66	20
68	170
69	160
70	290
71	60
72	130
73	20
74	90
75	681
76	330
77	70
78	120
79	90
80	170
81	921
82	2883
83	530
84	60
85	50
86	30
87	30
89	1021
90	200
92	30
93	20
94	10
96	60
98	120
99	190
101	2152
102	1351
103	140
106	30
107	60
108	500
109	2823
110	240
112	40
113	10
126	30
129	9999
130	661
131	10
