Mass Spectrum: Phenol, 2,6-bis(1-methylpropyl)-
Formula: C14 H22 O
CAS: 5510-99-6
Molecular weight: 206
m/z	RELATIVE INTENSITY
18	20
27	110
28	30
29	280
39	140
40	20
41	320
42	10
43	80
45	20
50	10
51	90
52	30
53	100
55	270
56	10
57	400
58	30
60	10
63	50
64	30
65	110
66	20
67	40
69	20
72	10
73	10
74	10
75	20
76	20
77	270
78	70
79	130
80	10
81	20
89	30
90	10
91	510
92	50
93	50
94	10
95	20
101	10
102	40
104	150
105	200
106	20
107	340
108	30
109	10
115	320
116	110
117	1161
118	130
119	90
120	30
121	571
122	50
123	10
127	80
128	240
129	130
130	40
131	160
132	40
133	430
134	60
135	100
136	10
141	50
142	30
143	20
144	20
145	40
146	10
147	240
148	140
149	80
150	10
157	10
158	10
159	20
160	10
161	120
162	30
163	370
164	50
165	10
173	60
174	10
175	70
176	30
177	9999
178	1321
179	100
180	10
191	250
192	40
193	10
202	20
203	10
204	10
205	10
206	1591
207	250
208	20
