Mass Spectrum: (E)-9,11-Dodecadien-1-ol
Formula: C12 H22 O
CAS: 55110-79-7
Molecular weight: 182
Origin: T. ANDO,FAC. AGRIC.,TOKYO UNIV. AGRIC. TECHNOL.,TOKYO,JAPAN
m/z	RELATIVE INTENSITY
54	7600
67	9400
68	9999
69	2000
70	800
71	1000
79	3600
80	5500
81	7600
82	6100
83	1400
84	500
85	600
93	2200
94	2000
95	3600
96	2500
97	1500
98	1400
107	1600
108	1200
109	2000
110	1000
111	500
112	400
121	800
122	600
123	600
135	1500
164	1300
182	3500
183	400
