Mass Spectrum: Heptadecane, 9-hexyl-
Formula: C23 H48
CAS: 55124-79-3
Molecular weight: 324
m/z	RELATIVE INTENSITY
38	30
39	631
40	160
41	4904
42	951
43	9999
44	330
45	10
47	10
48	10
49	10
50	10
51	20
52	20
53	240
54	350
55	3213
56	1391
57	8988
58	420
59	10
60	10
61	10
62	10
63	10
64	10
65	30
66	30
67	360
68	260
69	1621
70	831
71	5715
72	330
73	10
74	10
75	10
76	10
77	30
78	10
79	50
80	20
81	150
82	200
83	991
84	460
85	4084
86	280
87	10
88	10
89	10
90	10
91	30
92	20
93	20
94	10
95	60
96	110
97	661
98	260
99	1031
100	80
101	10
102	10
103	10
104	10
105	10
106	10
107	10
108	10
109	20
110	70
111	350
112	210
113	701
114	70
115	10
116	10
117	10
118	10
119	10
120	10
121	10
122	10
123	10
124	50
125	190
126	140
127	530
128	60
129	10
130	10
131	10
132	10
133	10
134	10
135	10
136	10
137	10
138	30
139	100
140	90
141	420
142	50
143	10
144	10
145	10
146	10
147	10
148	10
149	10
150	10
151	10
152	20
153	60
154	70
155	320
156	40
157	10
158	10
159	10
160	10
161	10
162	10
163	10
164	10
165	10
166	10
167	40
168	50
169	200
170	30
171	10
172	10
173	10
174	10
175	10
176	10
177	10
178	10
179	10
180	10
181	20
182	90
183	90
184	10
185	10
186	10
187	10
189	10
190	10
191	10
192	10
193	10
194	10
195	10
196	50
197	70
198	10
199	10
200	10
201	10
202	10
203	10
204	10
205	10
206	10
207	10
208	10
209	10
210	1061
211	911
212	140
213	10
214	10
215	10
216	10
217	10
218	10
219	10
220	10
221	10
222	10
223	10
224	40
225	50
226	10
227	10
228	10
229	10
230	10
231	10
232	10
233	10
234	10
235	10
236	10
237	10
238	400
239	470
240	80
241	10
242	10
243	10
244	10
245	10
246	10
247	10
248	10
249	10
250	10
251	10
252	20
253	20
254	10
255	10
256	10
257	10
258	10
259	10
260	10
261	10
262	10
263	10
264	10
265	10
266	10
267	20
268	10
269	10
270	10
271	10
272	10
273	10
274	10
275	10
276	10
277	10
278	10
279	10
280	10
281	10
282	10
283	10
284	10
285	10
286	10
287	10
288	10
289	10
290	10
291	10
292	10
293	10
294	10
295	10
296	10
322	10
323	10
324	10
325	10
