Mass Spectrum: Indoleacrylic acid, 2TMS derivative
Formula: C17 H25 N O2 Si2
CAS: 55124-88-4
Molecular weight: 331
Origin: R.S.BANDURSKI MICHIGAN STATE UNIV., EAST LANSING, MICH., USA
m/z	RELATIVE INTENSITY
31	20
38	20
39	90
41	260
42	10
43	620
44	110
45	1520
46	150
47	110
49	20
50	20
51	50
52	10
53	50
54	50
55	360
56	130
57	550
58	70
59	200
60	30
61	80
62	20
63	70
64	20
65	60
66	10
67	140
68	70
69	250
70	140
71	230
72	140
73	9999
74	720
75	970
76	100
77	140
78	20
79	30
81	130
82	70
83	250
84	100
85	210
86	20
87	30
88	60
89	50
90	10
91	50
92	40
93	160
94	40
95	160
96	60
97	200
98	60
99	40
100	20
101	40
102	30
103	80
104	30
105	60
106	100
107	100
108	20
109	80
110	40
111	110
112	10
113	70
114	320
115	280
116	170
117	210
118	40
119	10
121	40
122	20
123	40
124	20
125	70
127	50
128	50
129	150
130	480
131	140
132	110
134	10
135	30
136	10
137	30
139	50
140	150
141	220
142	150
143	180
144	70
145	110
146	20
147	590
148	100
149	70
150	30
151	60
152	20
154	60
156	80
157	40
158	90
159	60
160	40
161	20
162	10
163	30
165	70
166	30
167	30
168	70
169	580
170	350
171	80
172	20
173	10
174	40
176	10
177	20
178	20
179	10
180	30
181	10
182	50
183	40
184	200
186	30
187	50
188	30
189	70
191	20
196	50
197	20
198	130
199	60
200	130
201	60
202	750
203	160
204	50
205	20
207	20
211	20
212	10
213	250
214	120
215	790
216	260
217	60
218	20
220	10
221	60
222	20
224	20
226	20
227	10
228	50
229	20
230	20
231	30
232	50
233	20
235	30
236	20
238	10
239	40
240	100
241	30
242	3740
243	710
244	280
245	40
246	30
247	140
256	70
257	30
258	30
259	60
260	20
271	20
272	220
273	60
274	40
275	10
281	20
282	20
295	20
300	40
301	40
303	20
304	30
306	20
315	30
316	1280
317	320
318	130
319	20
329	20
330	150
331	6040
332	1680
333	570
334	80
