Mass Spectrum: Bicyclo[3.1.1]heptane, 6-methyl-2-methylene-6-(4-methyl-3-pentenyl)-, [1R-(1.alpha.,5.alpha.,6.beta.)]-
Formula: C15 H24
CAS: 55123-21-2
Molecular weight: 204
Origin: R.SELF AGRICULTURAL RES., FOOD RES. INSTITUTE, NORWICH, U.K.
m/z	RELATIVE INTENSITY
27	630
29	570
39	1720
40	310
41	5710
42	230
43	1430
51	310
52	140
53	1000
54	110
55	1710
56	690
57	350
65	370
67	430
68	230
69	3430
70	340
77	1430
79	1430
80	430
81	740
91	2570
92	1430
93	6860
95	860
97	290
102	230
103	230
105	1710
107	2290
109	860
119	9999
120	1430
121	290
133	510
134	170
135	290
136	150
161	290
