Mass Spectrum: Docosane, 6-methyl-
Formula: C23 H48
CAS: 55124-81-7
Molecular weight: 324
Origin: AP-2116
m/z	RELATIVE INTENSITY
40	200
41	3000
42	1100
43	5899
44	310
49	40
50	110
51	65
52	70
53	200
54	340
55	2500
56	1700
57	9999
58	700
59	70
60	15
61	15
62	20
63	30
64	25
65	50
66	50
67	320
68	330
69	1600
70	1200
71	3200
72	250
73	30
74	30
77	40
78	30
79	55
80	25
81	170
82	260
83	920
84	400
85	2200
86	160
91	30
92	20
93	25
94	25
95	95
96	160
97	660
98	3100
99	1500
100	150
109	40
110	85
111	310
112	260
113	510
114	85
115	20
121	20
122	15
123	25
124	140
125	210
126	150
127	460
128	60
138	50
139	110
140	110
141	350
142	55
152	40
153	80
154	75
155	250
156	52
166	30
167	55
168	56
169	260
170	40
181	20
182	40
183	50
184	160
185	40
194	20
195	30
196	100
197	170
198	30
208	15
209	25
210	50
211	95
212	24
223	20
224	360
225	320
226	65
238	75
239	110
240	25
252	710
253	990
254	210
266	540
267	120
268	30
280	60
281	140
282	35
294	70
295	160
296	60
297	10
308	25
309	160
310	40
322	10
323	10
324	70
325	25
