Mass Spectrum: Pent-2-ynal
Formula: C5 H6 O
CAS: 55136-52-2
Molecular weight: 82
Origin: ASES Database, Dalian Institute, P.R. China
m/z	RELATIVE INTENSITY
29	1281
31	390
36	300
37	1291
38	2372
39	9999
40	580
49	1090
50	2672
51	2572
52	1090
53	9058
54	7756
55	600
66	600
79	290
81	8567
82	3893
