Mass Spectrum: L-Histidine, 1-methyl-N-(trifluoroacetyl)-, butyl ester
Formula: C13 H18 F3 N3 O3
CAS: 55145-65-8
Molecular weight: 321
Origin: K.Leimer ET AL, J.Chrom., 141, 121(1977)
m/z	RELATIVE INTENSITY
41	601
42	1161
55	390
56	140
57	260
69	420
81	601
82	771
94	280
95	9999
96	1551
108	510
109	260
220	6896
221	931
321	841
