Mass Spectrum: Hydracrylic acid, 2TMS derivative
Formula: C9 H22 O3 Si2
CAS: 55162-32-8
Molecular weight: 234
Origin: James Shoemaker, St. Louis Online Library of Metabolic Mass Spectra
m/z	RELATIVE INTENSITY
15	40
17	90
24	10
25	40
26	90
27	369
29	309
30	10
31	90
36	10
38	239
39	449
40	1299
41	1979
42	139
43	569
44	459
45	1629
46	99
47	429
50	50
51	50
52	20
53	30
55	689
56	50
57	109
58	1089
59	709
60	119
61	269
62	10
63	20
65	70
66	1149
67	50
69	339
70	30
71	60
72	379
73	5639
74	559
75	2079
76	139
77	179
78	80
79	40
81	339
85	90
87	459
88	169
89	40
91	10
93	159
95	60
99	40
100	30
101	469
102	389
103	529
104	40
105	70
115	139
116	679
117	239
118	30
119	60
122	139
126	20
127	99
128	10
129	509
130	70
131	369
132	60
133	739
134	90
135	60
141	10
143	159
144	10
145	30
146	40
147	9999
148	1809
149	899
150	99
151	20
163	20
177	2229
178	399
179	179
180	10
184	10
191	30
203	10
204	30
217	50
218	30
219	2709
220	489
221	229
222	10
234	10
