Mass Spectrum: 3-Tetradecyn-1-ol
Formula: C14 H26 O
CAS: 55182-74-6
Molecular weight: 210
Origin: NIST Mass Spectrometry Data Center
m/z	RELATIVE INTENSITY
14	30
15	90
16	40
17	100
18	410
19	20
20	10
25	30
27	3894
28	1001
29	6085
31	5355
32	130
33	20
37	30
39	3263
40	861
41	9999
42	1651
43	7257
44	380
45	70
50	210
51	711
52	1111
53	2843
54	3803
55	7647
56	2252
57	2072
58	130
62	30
63	120
65	1161
66	1061
67	5495
68	2452
69	5135
70	951
71	520
72	30
75	10
77	1501
79	4614
80	1371
81	4434
82	2002
83	2752
84	4434
85	530
86	30
91	1271
93	2592
94	811
95	3313
96	1501
97	4594
98	641
99	60
103	20
105	240
107	1762
108	601
109	1341
110	320
111	430
112	70
119	20
121	671
122	290
123	310
124	120
125	250
126	90
133	10
135	280
136	30
137	70
138	70
139	210
140	30
149	80
150	10
151	50
153	150
154	10
163	50
164	30
165	40
166	30
167	100
168	10
181	40
210	20
