Mass Spectrum: Butanoic acid, 2,4-bis[(trimethylsilyl)oxy]-, trimethylsilyl ester
Formula: C13 H32 O4 Si3
CAS: 55191-52-1
Molecular weight: 336
m/z	RELATIVE INTENSITY
28	299
40	269
43	269
44	269
45	898
55	838
58	180
59	599
72	329
73	7604
74	778
75	898
101	269
102	269
103	9999
104	928
105	449
115	90
117	90
129	778
130	269
131	449
133	599
147	2994
148	599
149	479
178	269
189	299
190	299
203	299
219	3353
220	1138
221	449
245	15
246	56
247	26
264	26
266	9
291	89
292	29
293	86
294	26
295	15
321	302
322	122
323	74
324	18
