Mass Spectrum: Octanoic acid, 2-pentyl ester
Formula: C13 H26 O2
CAS: 55193-30-1
Molecular weight: 214
Origin: V.Zaikin,Topchiev Inst.Petrochem.Synth.,Moscow
m/z	RELATIVE INTENSITY
26	80
27	480
28	90
29	621
30	10
31	20
35	20
36	140
37	20
38	50
39	621
40	140
41	1511
42	1021
43	2252
44	90
45	260
50	60
51	90
52	60
53	240
54	130
55	2702
56	390
57	2612
58	140
59	70
60	1331
61	300
62	30
63	30
65	50
66	30
67	280
68	100
69	440
70	3974
71	1481
72	80
73	821
74	90
75	40
77	160
78	60
79	130
80	40
81	110
82	160
83	360
84	1111
85	581
86	130
87	991
88	80
89	210
90	10
91	120
92	30
93	60
94	20
95	30
96	80
97	200
98	250
99	40
100	30
101	741
102	70
103	120
104	10
105	30
106	20
107	30
108	20
109	280
110	30
111	50
115	340
116	50
117	30
118	20
122	10
124	60
125	180
126	30
127	9999
128	1021
129	100
130	90
131	20
133	10
135	20
142	20
143	60
144	1812
145	4414
146	410
147	30
170	30
171	270
172	20
199	20
