Mass Spectrum: Ethanone, 1-(2-hydroxy-4-methoxyphenyl)-
Formula: C9 H10 O3
CAS: 552-41-0
Molecular weight: 166
Origin: NIST Mass Spectrometry Data Center
m/z	RELATIVE INTENSITY
14	10
15	100
26	20
27	70
28	30
29	70
30	10
31	20
37	40
38	110
39	290
40	50
41	200
42	70
43	811
44	20
45	20
47	10
49	20
50	190
51	440
52	390
53	400
54	60
55	180
56	10
59	20
60	10
61	60
62	160
63	320
64	120
65	390
66	170
67	110
68	30
69	400
70	10
73	10
74	50
75	40
76	30
77	290
78	60
79	310
80	280
81	60
82	20
83	10
85	10
86	10
87	10
88	10
89	20
90	20
91	70
92	60
93	160
94	100
95	861
96	60
105	70
106	20
107	100
108	861
109	90
110	10
119	30
120	60
121	40
122	50
123	130
124	10
132	10
133	10
135	40
136	100
137	90
138	10
148	10
149	20
151	9999
152	911
153	100
154	10
166	3543
167	360
168	40
