Mass Spectrum: Trimellitic acid anhydride
Formula: C9 H4 O5
CAS: 552-30-7
Molecular weight: 192
Origin: Japan AIST/NIMC Database- Spectrum MS-NW- 418
m/z	RELATIVE INTENSITY
16	40
17	10
18	30
25	10
26	30
27	30
28	329
29	40
31	20
36	50
37	559
38	249
39	70
41	70
42	20
43	70
44	99
45	199
46	30
48	30
49	179
50	899
51	379
52	40
53	369
54	20
55	60
56	30
57	80
58	20
60	90
61	129
62	149
63	309
64	289
65	229
66	60
67	20
69	299
70	20
71	40
72	40
73	489
74	2199
75	2339
76	199
77	80
78	10
79	10
81	20
82	20
83	30
84	20
85	30
86	10
90	30
91	119
92	119
93	20
95	20
97	30
98	10
100	20
101	70
102	1179
103	1839
104	149
105	20
109	10
111	20
112	10
119	609
120	3609
121	299
122	30
129	10
131	70
138	10
147	10
148	9999
149	959
150	109
166	60
167	10
169	30
175	309
176	30
192	1719
193	199
194	20
