Mass Spectrum: Diampromide
Formula: C21 H28 N2 O
CAS: 552-25-0
Molecular weight: 324
Origin: R.E.Ardrey ET AL.Pharmaceutical Mass Spectra,L.,1985
m/z	RELATIVE INTENSITY
27	200
29	601
42	200
44	300
56	300
57	400
58	300
65	100
70	100
71	200
77	400
79	200
91	300
93	100
103	100
104	200
105	2602
106	601
133	100
134	400
148	100
162	9999
163	1301
175	100
189	100
190	1301
191	200
233	200
