Mass Spectrum: Methylephedrine
Formula: C11 H17 N O
CAS: 552-79-4
Molecular weight: 179
Origin: Chuck Anderson, Aldrich Chemical Co.
m/z	RELATIVE INTENSITY
15	36
18	27
27	85
28	111
29	116
30	57
36	51
38	29
39	68
41	46
42	376
43	96
44	333
50	50
51	143
52	40
54	6
55	47
56	267
57	131
58	101
63	29
65	28
70	299
71	271
72	9999
73	481
74	36
77	534
78	114
79	124
91	95
105	222
106	160
107	26
115	33
117	35
