Mass Spectrum: Benzenamine, N-methyl-N-phenyl-
Formula: C13 H13 N
CAS: 552-82-9
Molecular weight: 183
m/z	RELATIVE INTENSITY
26	23
27	203
37	19
38	80
39	578
40	34
41	46
42	34
50	295
51	1586
52	195
53	46
61	8
62	61
63	283
64	161
65	329
66	61
69	8
70	27
71	8
74	80
75	88
76	188
77	2797
78	329
79	149
80	8
83	27
84	195
87	19
88	19
89	126
90	241
91	766
92	123
101	19
102	46
103	46
104	1379
105	195
106	161
107	11
113	34
114	46
115	283
116	88
117	34
126	27
127	61
128	107
129	34
130	19
139	215
140	203
141	268
142	475
143	61
151	61
152	176
153	149
154	188
155	61
164	19
165	88
166	456
167	2172
168	893
169	437
170	57
179	19
180	383
181	329
182	5478
183	9999
184	1391
185	88
