Mass Spectrum: 2-Methylpyrazine-5-carboxylic acid
Formula: C6 H6 N2 O2
CAS: 5521-55-1
Molecular weight: 138
Origin: NIST Mass Spectrometry Data Center, 1994
m/z	RELATIVE INTENSITY
12	224
13	127
14	352
15	684
17	102
18	62
25	300
26	1296
27	1084
28	2021
29	650
32	127
36	34
37	1314
38	2727
39	7367
40	4085
41	1549
42	8765
43	861
44	550
45	1525
46	298
50	185
51	1359
52	2531
53	3368
54	317
55	512
62	88
63	217
64	1049
65	471
66	3517
67	1797
68	687
69	442
70	2418
71	180
76	122
77	163
79	41
81	156
82	73
83	126
91	250
92	1056
93	2877
94	9999
95	734
96	131
97	339
105	190
111	327
120	995
121	307
123	96
138	4186
139	543
