Mass Spectrum: Triadimenol
Formula: C14 H18 Cl N3 O2
CAS: 55219-65-3
Molecular weight: 295
Origin: NIST Mass Spectrometry Data Center, 1995
m/z	RELATIVE INTENSITY
12	18
13	17
14	36
15	148
17	14
18	48
27	816
28	1380
29	2582
30	466
31	200
32	29
36	35
37	51
38	209
39	1084
40	293
41	3441
42	409
43	2147
44	107
45	399
46	20
47	22
49	66
50	237
51	204
52	43
53	297
54	247
55	791
56	427
57	5269
58	595
59	122
60	22
61	49
62	101
63	491
64	279
65	530
66	75
67	102
68	59
69	475
70	3981
71	275
72	22
73	446
74	104
75	796
76	163
77	290
78	52
79	193
80	26
81	253
82	680
83	496
84	188
85	286
86	30
87	152
89	43
90	33
91	49
92	56
93	75
94	40
96	33
97	29
99	1047
100	246
101	308
102	88
107	28
108	20
110	366
111	1135
112	9999
113	838
114	94
115	42
117	29
118	24
124	69
125	66
128	4860
129	509
130	1559
131	90
132	15
134	74
135	23
136	20
138	36
139	51
140	40
141	203
142	22
143	64
150	355
151	39
152	71
153	83
154	69
155	33
156	27
158	17
159	13
164	15
168	5570
169	712
170	214
171	68
172	59
179	21
180	37
181	164
182	111
183	142
184	58
185	24
208	253
209	61
210	96
211	199
212	26
213	63
226	21
238	154
239	20
240	54
280	28
295	16
