Mass Spectrum: Cyclopentanecarboxylic acid, 2-methylphenyl ester
Formula: C13 H16 O2
CAS: 55229-43-1
Molecular weight: 204
Origin: Zaikin V.G., TIPS RAS, Moscow, Russia
m/z	RELATIVE INTENSITY
26	90
27	320
28	20
29	60
36	80
38	30
39	611
40	190
41	2232
42	170
43	30
44	130
50	30
51	70
52	40
53	180
54	40
55	470
63	30
65	150
66	70
67	541
68	310
69	9889
70	521
73	80
77	240
78	90
79	130
80	50
89	30
90	90
91	130
95	40
96	651
97	9999
98	611
99	30
107	380
108	981
109	110
204	531
205	80
