Mass Spectrum: 2H-Pyran, 5,6-dihydro-2-methyl-
Formula: C6 H10 O
CAS: 55230-25-6
Molecular weight: 98
Origin: DR. C. C. VAN DE SANDE, STATE UNIVERSITY OF GENT, BELGIUM
m/z	RELATIVE INTENSITY
36	400
37	950
38	1850
39	8800
40	3500
41	5600
42	2400
43	7500
44	1400
45	200
49	300
50	1250
51	1650
52	850
53	7000
54	700
55	3800
56	80
57	250
60	100
61	450
62	600
63	800
64	150
65	2000
66	1100
67	9999
68	6400
69	900
70	350
83	3700
84	250
85	200
95	100
96	100
97	1550
98	3300
99	250
