Mass Spectrum: Phenanthrene, 7-ethenyl-1,2,3,4,4a,5,6,7,8,9,10,10a-dodecahydro-1,1,4a,7-tetramethyl-
Formula: C20 H32
CAS: 55255-56-6
Molecular weight: 272
m/z	RELATIVE INTENSITY
41	8399
43	933
44	1733
45	600
51	267
52	133
53	1666
54	167
55	5499
56	367
57	400
64	1000
65	133
66	2733
67	267
68	5599
70	267
77	1900
78	400
79	3733
80	267
81	4600
82	500
83	667
91	5433
92	1000
93	4166
94	667
95	4000
96	267
97	100
103	67
104	267
105	6266
106	1433
107	4500
108	933
109	2600
110	167
111	100
115	500
116	133
117	1267
118	167
119	4066
120	1766
121	2433
122	833
123	1000
124	200
125	267
128	300
129	333
131	1500
132	200
133	3000
134	1433
135	1833
136	200
137	167
145	1333
146	333
147	1567
148	1167
149	1167
150	733
159	733
160	333
161	5566
162	833
163	667
173	433
174	167
175	2666
187	4333
188	767
189	1500
201	1000
202	433
203	500
204	400
215	567
229	533
243	267
257	9999
258	1933
272	2766
273	433
