Mass Spectrum: Pipecolic acid, 2TMS derivative
Formula: C12 H27 N O2 Si2
CAS: 55255-44-2
Molecular weight: 273
Origin: NIST Mass Spectrometry Data Center
m/z	RELATIVE INTENSITY
27	10
28	20
29	40
30	10
31	20
39	10
41	40
42	20
43	110
44	70
45	460
46	30
47	50
51	10
52	10
53	20
54	30
55	150
56	60
57	40
58	90
59	300
60	30
61	40
66	70
67	20
68	20
69	10
70	30
71	30
72	70
73	2662
74	240
75	270
76	20
77	10
80	20
81	10
82	70
83	30
84	170
85	50
86	70
87	20
88	10
89	10
94	20
95	10
96	10
97	10
98	20
99	30
100	50
101	20
102	20
103	30
105	10
107	30
110	10
111	10
112	70
113	30
114	40
115	20
116	10
117	40
118	10
119	20
121	30
124	10
126	60
127	10
128	90
129	50
130	10
131	60
132	20
133	140
134	20
135	20
138	10
140	50
141	20
142	20
143	10
144	10
147	500
148	80
149	40
150	10
152	20
153	10
154	80
156	9999
157	1491
158	460
159	40
168	60
169	10
170	10
175	30
176	10
182	10
184	40
185	10
200	10
214	10
230	510
231	110
232	60
233	10
244	20
245	10
258	50
259	10
273	10
