Mass Spectrum: Cyclohexane, 1,1'-(2-tridecyl-1,3-propanediyl)bis-
Formula: C28 H54
CAS: 55255-74-8
Molecular weight: 390
m/z	RELATIVE INTENSITY
36	10
37	20
38	30
39	581
40	140
41	5405
42	751
43	5035
44	180
45	10
46	10
47	10
48	10
49	10
50	20
51	40
52	30
53	340
54	831
55	9999
56	1121
57	3773
58	180
59	10
60	10
61	10
62	10
63	10
64	10
65	70
66	110
67	1972
68	561
69	3934
70	510
71	1892
72	110
73	10
74	10
75	10
76	10
77	80
78	30
79	240
80	160
81	1631
82	1692
83	8137
84	651
85	1201
86	80
87	10
89	10
90	10
91	60
92	20
93	90
94	70
95	791
96	2372
97	6286
98	530
99	370
100	30
101	10
102	10
103	10
104	10
105	20
106	10
107	30
108	50
109	701
110	350
111	3633
112	340
113	240
114	20
115	10
116	10
117	10
118	10
119	10
120	10
121	50
122	30
123	410
124	140
125	1672
126	190
127	160
128	20
129	10
130	10
131	10
132	10
133	10
134	10
135	80
136	30
137	290
138	100
139	450
140	60
141	110
142	10
143	10
144	10
145	10
146	10
147	10
148	10
149	10
150	10
151	190
152	70
153	280
154	40
155	70
156	10
157	10
158	10
159	10
160	10
161	10
162	10
163	10
164	10
165	50
166	20
167	200
168	30
169	40
170	10
171	10
176	10
177	10
178	30
179	20
180	10
181	150
182	30
183	30
184	10
185	10
186	10
191	10
192	10
193	20
194	10
195	110
196	30
197	50
198	10
199	10
205	10
206	871
207	1491
208	260
209	110
210	30
211	50
212	10
220	10
221	20
222	10
223	60
224	20
225	10
226	10
233	10
234	10
235	10
236	10
237	40
238	10
239	10
248	10
249	10
250	10
251	20
252	10
253	10
262	10
263	10
264	40
265	20
266	10
267	10
276	10
277	10
278	10
279	20
280	10
281	10
289	10
290	10
291	10
292	841
293	1001
294	220
295	30
304	10
305	10
306	50
307	40
308	10
309	10
319	10
320	10
321	10
388	10
389	10
390	10
391	10
