Mass Spectrum: Naphthalen-1,4-imine, 1,2,3,4-tetrahydro-9-methyl-
Formula: C11 H13 N
CAS: 55257-99-3
Molecular weight: 159
Origin: A.Pleshkova, Nesmeyanov Inst.Org.Elem.Cpds, Moscow
m/z	RELATIVE INTENSITY
39	230
40	90
41	370
42	120
43	440
44	110
51	651
52	90
63	981
64	230
65	440
66	120
75	450
76	120
77	991
78	430
79	120
89	1551
90	1431
91	540
102	440
103	721
104	781
105	90
115	1241
116	1872
117	450
118	80
127	430
128	981
129	721
130	2452
131	9999
132	2432
133	120
143	220
144	250
145	60
156	120
157	140
158	210
159	330
160	60
