Mass Spectrum: Tetramethyltetraselenafulvalene
Formula: C10 H12 Se4
CAS: 55259-49-9
Molecular weight: 452
Origin: MUS178 A. Mujsce, AT&T Bell Labs., Murray Hill, N.J., USA
m/z	RELATIVE INTENSITY
27	1550
28	1219
39	1361
44	586
45	321
46	302
50	775
51	1881
52	766
53	5028
62	312
77	681
78	2353
83	369
90	605
91	681
92	416
93	1248
94	425
103	520
104	614
105	605
106	463
113	217
115	709
117	1210
118	558
119	936
129	870
130	1200
131	1503
132	1815
133	1238
134	4055
135	454
136	784
141	548
143	690
145	510
153	293
154	992
155	775
156	1711
157	1522
158	2854
159	529
160	1985
162	624
167	340
168	936
169	643
170	1456
172	2032
174	614
177	548
178	1371
179	1200
180	3157
181	1749
182	4991
183	756
184	5076
185	406
186	2089
193	274
194	255
195	406
197	586
208	482
209	406
210	737
211	926
212	888
213	539
214	1125
216	529
220	397
222	756
223	633
224	1371
225	482
226	1512
228	586
231	350
232	870
233	766
234	2420
235	1900
236	3327
237	1125
238	3280
240	1314
254	293
256	435
258	1115
259	756
260	1909
261	662
262	2164
264	2250
266	860
268	236
271	766
272	539
273	1408
274	860
275	2590
276	397
277	2760
278	331
279	747
286	662
287	1380
288	1947
289	2051
290	2590
291	1862
292	2722
293	907
294	1087
295	321
296	444
298	482
299	548
300	1096
301	1285
302	2250
303	851
304	2297
305	567
306	2335
308	1493
309	794
310	2174
311	2108
312	4716
313	4480
314	7911
315	4622
316	9999
317	3242
318	8270
319	1059
320	3062
321	558
333	208
335	198
336	378
337	359
338	510
339	444
341	463
342	662
343	558
344	690
345	321
386	425
387	293
388	728
389	709
390	1474
391	1096
392	2146
393	1531
394	3072
395	1446
396	3091
397	681
398	2268
399	406
400	1153
402	388
440	605
441	624
442	1295
443	1418
444	3308
445	2561
446	5699
447	4026
448	7486
449	3733
450	7996
451	1834
452	6219
453	851
454	2732
455	388
456	586
