Mass Spectrum: Pentadecane, 8,8-diheptyl-
Formula: C29 H60
CAS: 55268-72-9
Molecular weight: 408
m/z	RELATIVE INTENSITY
36	20
37	40
38	50
39	571
40	150
41	4284
42	1291
43	9328
44	310
45	10
47	10
49	10
50	20
51	30
52	20
53	200
54	250
55	4144
56	1862
57	9999
58	460
59	10
61	10
62	10
63	10
64	10
65	40
66	30
67	601
68	330
69	2672
70	811
71	6356
72	360
73	10
76	10
77	40
78	20
79	100
80	30
81	350
82	190
83	1611
84	360
85	4814
86	330
87	10
88	10
89	10
91	30
92	10
93	40
94	10
95	200
96	80
97	1001
98	170
99	1541
100	120
101	10
102	10
105	10
106	10
107	20
108	10
109	80
110	40
111	440
112	170
113	1101
114	100
115	10
117	10
119	10
121	10
122	10
123	30
124	80
125	430
126	110
127	861
128	90
129	10
131	10
135	10
136	10
137	20
138	20
139	60
140	330
141	761
142	80
143	10
144	10
145	10
146	10
147	10
149	10
151	10
152	10
153	30
154	20
155	550
156	70
157	10
161	10
163	10
164	10
165	20
166	20
167	40
168	20
169	470
170	60
171	10
179	10
180	10
181	10
182	20
183	410
184	60
185	10
186	10
187	10
188	10
193	10
194	10
195	10
196	40
197	380
198	60
199	10
203	10
207	10
208	30
209	100
210	70
211	370
212	60
213	10
221	10
222	10
223	10
224	330
225	430
226	80
227	10
230	10
231	10
232	10
233	10
234	10
235	20
236	10
237	20
238	10
239	270
240	50
241	10
249	10
251	10
252	10
253	190
254	40
255	10
266	10
267	90
268	20
280	20
281	160
282	40
283	10
294	10
295	30
296	10
303	10
304	10
305	30
306	20
307	70
308	520
309	6766
310	1712
311	220
312	30
313	10
314	10
322	10
323	10
324	10
333	10
335	10
336	10
337	10
338	10
