Mass Spectrum: Vanillylmandelic acid, 3TMS derivative
Formula: C18 H34 O5 Si3
CAS: 55268-66-1
Molecular weight: 414
Origin: NIST Mass Spectrometry Data Center
m/z	RELATIVE INTENSITY
29	10
31	10
43	70
44	60
45	480
46	30
47	30
53	10
55	10
57	20
58	50
59	160
60	10
61	20
63	10
65	10
66	10
69	10
70	10
71	20
73	4644
74	410
75	300
76	20
77	30
78	10
79	20
83	20
85	10
87	10
88	10
89	90
90	10
91	50
92	20
93	10
95	10
99	10
101	10
102	10
103	30
104	20
105	40
106	10
107	30
109	10
111	10
115	30
116	10
117	60
118	20
119	50
120	10
121	30
123	10
126	10
129	10
131	90
132	20
133	220
134	40
135	120
136	20
137	50
138	10
143	10
145	10
147	851
148	150
149	130
150	30
151	40
159	10
161	40
162	30
163	130
164	30
165	70
166	30
167	10
175	10
176	10
177	90
178	70
179	90
180	30
181	10
189	10
190	10
191	40
192	100
193	350
194	330
195	70
196	20
205	10
206	70
207	80
208	30
209	110
210	20
211	10
219	10
220	10
221	50
222	20
223	330
224	60
225	20
233	10
235	20
236	40
237	110
238	20
239	20
249	20
250	10
251	240
252	100
253	80
254	20
255	10
265	120
266	40
267	500
268	130
269	50
270	10
279	10
280	10
281	130
282	40
283	30
284	10
292	10
293	10
294	10
295	100
297	9999
298	3343
299	1371
300	230
301	40
309	10
310	10
311	30
312	10
323	20
324	10
325	30
326	30
327	10
339	10
341	10
355	30
356	10
369	10
371	751
372	250
373	120
374	30
375	10
399	581
400	200
401	100
402	20
403	10
414	160
415	60
416	30
417	10
