Mass Spectrum: Octadecane, 9-ethyl-9-heptyl-
Formula: C27 H56
CAS: 55282-27-4
Molecular weight: 380
m/z	RELATIVE INTENSITY
36	20
37	40
38	50
39	621
40	170
41	4864
42	1241
43	9809
44	340
45	20
46	10
47	10
48	10
49	10
50	30
51	40
52	30
53	240
54	270
55	4434
56	1361
57	9999
58	460
59	10
60	10
61	10
62	10
63	10
64	10
65	40
66	30
67	571
68	250
69	2712
70	1732
71	6776
72	390
73	10
74	10
75	10
76	10
77	50
78	10
79	90
80	30
81	300
82	180
83	1501
84	360
85	4974
86	350
87	10
88	10
89	10
90	10
91	30
92	10
93	30
94	20
95	180
96	90
97	941
98	180
99	1531
100	120
101	10
102	10
103	10
104	10
105	10
106	10
107	10
108	10
109	70
110	40
111	410
112	130
113	1071
114	100
115	10
116	10
117	10
118	10
119	10
120	10
121	10
122	10
123	20
124	30
125	260
126	90
127	811
128	90
129	10
131	10
132	10
133	10
134	10
135	10
136	10
137	10
138	30
139	180
140	110
141	661
142	70
143	10
145	10
146	10
147	10
149	10
151	10
152	30
153	130
154	180
155	601
156	70
157	10
159	10
160	10
163	10
164	10
165	10
166	10
167	50
168	120
169	520
170	70
171	10
179	10
180	10
181	20
182	80
183	450
184	70
185	10
193	10
194	10
195	10
196	10
197	340
198	50
199	10
203	10
205	10
207	10
208	10
209	10
210	10
211	250
212	40
213	10
222	10
223	30
224	30
225	160
226	30
227	10
236	10
237	20
238	30
239	110
240	20
241	10
249	10
250	10
251	30
252	270
253	2222
254	450
255	40
256	10
265	10
266	220
267	1962
268	420
269	40
270	10
277	10
278	10
279	10
280	180
281	1732
282	390
283	40
284	10
295	20
296	10
309	10
310	10
323	10
337	10
349	10
350	50
351	1131
352	320
353	40
354	10
