Mass Spectrum: Docosane, 10-ethyl-10-propyl-
Formula: C27 H56
CAS: 55282-31-0
Molecular weight: 380
m/z	RELATIVE INTENSITY
36	20
37	40
38	50
39	621
40	170
41	4774
42	1131
43	9999
44	350
45	20
46	10
47	20
48	10
49	10
50	30
51	40
52	30
53	240
54	300
55	4484
56	1481
57	9469
58	440
59	20
60	10
61	10
62	10
63	20
64	10
65	40
66	40
67	530
68	260
69	2823
70	1611
71	6236
72	360
73	10
74	10
75	10
76	10
77	50
78	20
79	80
80	30
81	300
82	160
83	1521
84	631
85	4744
86	330
87	10
88	10
89	10
90	10
91	30
92	10
93	30
94	20
95	180
96	80
97	951
98	791
99	1561
100	130
101	10
102	10
103	10
104	10
105	10
106	10
107	10
108	10
109	70
110	50
111	450
112	120
113	1041
114	100
115	20
116	10
117	10
118	10
119	10
120	10
121	10
122	10
123	30
124	20
125	190
126	60
127	821
128	90
129	10
130	10
131	10
132	10
133	10
134	10
135	10
136	10
137	20
138	10
139	70
140	30
141	661
142	80
143	10
144	10
145	10
146	10
147	10
148	10
149	10
150	10
151	10
152	20
153	80
154	60
155	540
156	70
157	10
163	10
165	10
166	10
167	70
168	50
169	420
170	60
171	10
177	10
178	10
179	10
180	10
181	60
182	50
183	290
184	40
185	10
190	10
191	10
192	10
193	10
194	10
195	30
196	30
197	230
198	40
199	10
205	10
207	10
208	10
209	50
210	360
211	2352
212	390
213	30
214	10
221	10
222	10
223	40
224	40
225	130
226	20
227	10
235	10
236	10
237	10
238	20
239	110
240	20
241	10
249	10
250	10
251	10
252	210
253	1511
254	300
255	10
256	10
265	10
266	10
267	90
268	20
269	10
279	10
280	10
281	60
282	20
283	10
294	10
295	50
296	10
306	10
307	10
308	10
309	30
310	10
323	10
334	10
335	10
336	70
337	1021
338	270
339	40
340	10
347	10
348	10
349	20
350	50
351	1021
352	290
353	40
354	10
365	10
