Mass Spectrum: Eicosane, 10-butyl-10-propyl-
Formula: C27 H56
CAS: 55282-33-2
Molecular weight: 380
m/z	RELATIVE INTENSITY
36	20
37	40
38	50
39	621
40	170
41	4954
42	1111
43	9469
44	330
45	80
46	10
47	10
48	10
49	10
50	30
51	40
52	30
53	240
54	290
55	4514
56	2002
57	9999
58	460
59	90
60	10
61	10
62	10
63	10
64	10
65	50
66	40
67	561
68	290
69	2662
70	831
71	6526
72	380
73	20
74	50
75	10
76	10
77	50
78	20
79	100
80	30
81	330
82	150
83	1551
84	891
85	4814
86	330
87	10
88	10
89	10
90	10
91	30
92	10
93	30
94	20
95	180
96	80
97	941
98	200
99	1471
100	120
101	10
102	10
103	10
104	10
105	20
106	10
107	10
108	10
109	70
110	50
111	420
112	130
113	1041
114	100
115	10
116	10
117	10
118	10
119	10
120	10
121	10
122	10
123	30
124	20
125	150
126	260
127	841
128	90
129	10
130	10
131	10
132	10
133	10
134	10
135	10
136	10
137	20
138	20
139	70
140	50
141	641
142	80
143	10
144	10
145	10
146	10
147	10
148	10
149	10
150	10
151	10
152	20
153	80
154	40
155	540
156	70
157	10
158	10
159	10
160	10
161	10
162	10
163	10
164	10
165	10
166	10
167	60
168	50
169	470
170	60
171	10
172	10
173	10
175	10
176	10
177	10
178	10
179	10
180	10
181	30
182	40
183	380
184	50
185	10
191	10
192	10
193	10
194	10
195	40
196	80
197	290
198	50
199	10
203	10
205	10
207	10
208	10
209	20
210	80
211	190
212	30
213	10
214	10
215	10
217	10
219	10
221	10
222	10
223	10
224	20
225	120
226	20
227	10
235	10
236	10
237	10
238	200
239	2022
240	370
241	30
242	10
251	10
252	170
253	1752
254	340
255	30
256	10
266	10
267	70
268	10
269	10
278	10
279	10
280	10
281	50
282	10
294	10
295	20
296	10
309	10
321	10
322	80
323	1211
324	310
325	40
326	10
335	10
336	60
337	350
338	290
339	40
340	10
