Mass Spectrum: Benzene, 1,3,5-trimethyl-2-octadecyl-
Formula: C27 H48
CAS: 55282-67-2
Molecular weight: 372
m/z	RELATIVE INTENSITY
37	10
38	10
39	150
40	40
41	961
42	200
43	1471
44	50
45	10
46	10
49	10
50	10
51	20
52	10
53	70
54	40
55	480
56	120
57	470
58	20
59	10
60	10
61	10
62	10
63	10
64	10
65	30
66	10
67	50
68	20
69	160
70	40
71	90
72	10
73	10
74	10
75	10
76	10
77	60
78	20
79	50
80	10
81	20
82	10
83	70
84	10
85	30
86	10
87	10
88	10
89	10
90	10
91	160
92	20
93	40
94	10
95	10
96	10
97	40
98	10
99	10
100	10
101	10
102	10
103	30
104	20
105	180
106	20
107	20
108	10
109	10
110	10
111	10
112	10
113	10
114	10
115	70
116	40
117	140
118	90
119	210
120	330
121	90
122	20
123	10
124	10
125	10
126	10
127	10
128	30
129	40
130	30
131	80
132	230
133	9999
134	1261
135	80
136	10
137	10
138	10
139	10
140	10
141	10
142	10
143	20
144	20
145	50
146	50
147	90
148	10
149	10
150	10
151	10
152	10
153	10
154	10
155	10
156	10
157	10
158	10
159	30
160	10
161	10
162	10
163	10
164	10
165	10
166	10
167	10
168	10
169	10
170	10
171	10
172	10
173	10
174	10
175	10
176	10
177	10
178	10
179	10
180	10
181	10
182	10
183	10
184	10
185	10
186	10
187	10
188	10
189	10
190	10
191	10
192	10
193	10
194	10
195	10
196	10
197	10
198	10
199	10
200	10
201	10
202	10
203	10
204	10
205	10
206	10
207	10
208	10
209	10
210	10
215	10
216	10
217	10
218	10
219	10
220	10
221	10
230	10
231	10
243	10
244	10
245	10
257	10
258	10
259	10
272	10
273	10
286	10
287	10
302	10
357	10
358	10
359	10
360	10
370	10
371	10
372	1672
373	520
374	80
375	10
376	10
