Mass Spectrum: Docosane, 9-butyl-
Formula: C26 H54
CAS: 55282-14-9
Molecular weight: 366
m/z	RELATIVE INTENSITY
36	10
37	20
38	40
39	561
40	130
41	4654
42	1191
43	9999
44	330
45	10
49	10
50	10
51	20
52	20
53	190
54	390
55	3693
56	1702
57	9629
58	420
59	10
62	10
63	10
65	30
66	30
67	390
68	280
69	1972
70	1021
71	5765
72	320
73	10
76	10
77	20
78	10
79	50
80	20
81	170
82	230
83	1281
84	510
85	4014
86	250
87	10
91	20
92	10
93	10
94	10
95	80
96	140
97	841
98	300
99	1101
100	80
101	10
105	10
106	10
107	10
108	10
109	30
110	80
111	420
112	200
113	751
114	60
115	10
117	10
119	10
123	10
124	50
125	230
126	120
127	540
128	50
129	10
130	10
135	10
137	10
138	40
139	110
140	90
141	350
142	40
143	10
152	20
153	60
154	200
155	260
156	30
157	10
160	10
165	10
166	20
167	30
168	70
169	190
170	30
171	10
180	10
181	30
182	1321
183	911
184	110
185	10
194	10
195	20
196	20
197	140
198	20
199	10
208	10
209	20
210	40
211	100
212	20
222	10
223	10
224	50
225	70
226	10
227	10
236	10
237	10
238	30
239	60
240	10
250	10
251	10
252	671
253	661
254	120
255	10
264	10
265	10
266	30
267	50
268	10
269	10
279	10
280	60
281	60
282	10
294	30
295	40
296	10
307	10
308	510
309	921
310	210
311	30
312	10
322	10
323	20
324	10
336	10
337	10
338	10
364	10
365	10
366	10
