Mass Spectrum: Cyclohexane, 1,1',1'',1'''-(1,6-hexanediylidene)tetrakis-
Formula: C30 H54
CAS: 55281-91-9
Molecular weight: 414
m/z	RELATIVE INTENSITY
36	10
37	20
38	40
39	761
40	160
41	6306
42	370
43	761
44	30
45	10
48	10
49	10
50	30
51	70
52	60
53	540
54	901
55	9999
56	540
57	280
58	20
59	10
65	140
66	150
67	2963
68	561
69	2032
70	140
71	130
72	10
76	10
77	210
78	90
79	550
80	300
81	2422
82	1511
83	8648
84	601
85	80
86	10
91	180
92	60
93	270
94	190
95	1792
96	1281
97	4654
98	370
99	30
100	10
105	50
106	30
107	140
108	180
109	1782
110	310
111	1421
112	140
113	20
114	10
117	20
118	10
119	20
120	20
121	120
122	170
123	661
124	140
125	581
126	70
127	10
133	20
134	20
135	140
136	70
137	530
138	110
139	350
140	50
141	10
147	20
148	20
149	80
150	100
151	500
152	120
153	240
154	30
155	10
163	60
164	40
165	330
166	50
167	70
168	10
175	60
176	30
177	300
178	1101
179	831
180	120
181	20
182	10
191	250
192	90
193	320
194	60
195	10
198	20
199	30
200	40
201	30
202	60
203	10
204	20
205	30
206	60
207	290
208	50
209	10
220	100
221	260
222	50
223	10
233	20
234	160
235	901
236	190
237	20
238	10
246	180
247	420
248	821
249	561
250	100
251	10
330	631
331	841
332	200
333	30
334	10
414	10
415	10
