Mass Spectrum: Docosane, 5-butyl-
Formula: C26 H54
CAS: 55282-16-1
Molecular weight: 366
m/z	RELATIVE INTENSITY
36	10
37	30
38	50
39	651
40	150
41	4654
42	1101
43	9999
44	320
45	10
49	10
50	30
51	40
52	20
53	210
54	370
55	3803
56	1762
57	9018
58	120
59	10
61	10
62	10
63	10
64	10
65	30
66	30
67	330
68	300
69	1992
70	1121
71	6466
72	350
73	10
74	10
75	10
76	10
77	30
78	10
79	60
80	20
81	200
82	280
83	1411
84	611
85	4234
86	270
87	10
89	10
91	40
92	10
93	20
94	10
95	100
96	150
97	1001
98	330
99	771
100	60
101	10
102	10
103	10
104	10
105	20
106	10
107	10
108	10
109	40
110	60
111	350
112	160
113	480
114	40
115	10
116	10
117	10
118	10
119	10
120	10
121	10
122	10
123	20
124	40
125	170
126	2212
127	1001
128	90
129	10
130	10
131	10
132	10
133	10
135	10
136	10
137	10
138	30
139	70
140	130
141	280
142	40
143	10
144	10
145	10
151	10
152	20
153	50
154	60
155	200
156	30
157	10
165	10
166	10
167	30
168	40
169	160
170	20
171	10
179	10
180	10
181	20
182	30
183	130
184	20
185	10
194	10
195	20
196	20
197	110
198	20
199	10
208	10
209	20
210	20
211	100
212	20
222	10
223	10
224	20
225	80
226	20
227	10
236	10
237	10
238	40
239	70
240	20
250	10
251	10
252	10
253	50
254	10
264	10
265	10
266	10
267	30
268	10
278	10
279	10
280	40
281	20
282	10
293	10
294	30
295	40
296	10
306	10
307	10
308	861
309	1291
310	280
311	30
312	10
322	30
323	50
324	10
325	10
336	10
337	20
338	10
358	10
364	10
365	10
366	10
