Mass Spectrum: 1,4-Dithiin, 2,3-dihydro-5,6-dimethyl-, 1,1,4,4-tetraoxide
Formula: C6 H10 O4 S2
CAS: 55290-64-7
Molecular weight: 210
Origin: NIST Mass Spectrometry Data Center, 1998.
m/z	RELATIVE INTENSITY
14	10
15	20
25	10
26	400
27	2040
28	1830
29	170
31	10
32	20
33	10
37	20
38	120
39	4780
40	180
41	240
42	150
43	5139
44	130
45	300
46	160
47	250
48	610
49	110
50	760
51	1140
52	590
53	4120
54	9999
55	600
56	20
57	50
58	1170
59	1830
60	950
61	270
62	40
63	60
64	360
65	300
66	60
67	420
68	20
69	120
70	360
71	230
72	20
73	130
74	10
75	130
76	1520
77	100
78	80
79	40
81	60
82	10
83	20
85	90
86	350
87	100
88	10
89	10
90	520
91	50
92	20
93	20
95	10
96	20
97	10
98	20
99	10
101	90
102	20
103	490
104	20
105	20
107	10
108	170
109	280
110	20
111	20
112	10
113	10
116	10
117	20
118	1970
119	110
120	100
121	10
124	790
125	160
126	80
127	10
129	10
135	100
136	10
139	10
140	10
151	150
152	10
153	10
157	20
167	10
210	240
211	20
212	10
