Mass Spectrum: 4,4'-Bipyridine
Formula: C10 H8 N2
CAS: 553-26-4
Molecular weight: 156
Origin: Japan AIST/NIMC Database- Spectrum MS-NW-8794
m/z	RELATIVE INTENSITY
26	149
27	70
28	50
37	20
38	80
39	169
40	20
41	20
49	40
50	699
51	1159
52	329
53	80
54	30
61	50
62	139
63	379
64	109
65	50
73	20
74	239
75	509
76	719
77	329
78	589
79	229
80	20
86	20
87	50
88	40
89	179
90	30
92	20
93	20
98	20
99	40
100	70
101	429
102	739
103	639
104	139
105	10
106	20
114	10
115	20
116	419
117	50
126	20
127	99
128	979
129	959
130	499
131	40
141	20
153	40
154	50
155	3829
156	9999
157	1209
158	70
