Mass Spectrum: Ethanedioic acid, dimethyl ester
Formula: C4 H6 O4
CAS: 553-90-2
Molecular weight: 118
Origin: Japan AIST/NIMC Database- Spectrum MS-NW-5045
m/z	RELATIVE INTENSITY
15	7459
16	129
17	10
18	50
26	20
27	20
28	1059
29	1929
30	639
31	639
32	50
33	109
42	20
43	409
44	889
45	3289
46	99
47	10
56	50
58	10
59	9999
60	379
61	70
62	10
74	20
90	20
118	249
119	10
