Mass Spectrum: Aniline mustard
Formula: C10 H13 Cl2 N
CAS: 553-27-5
Molecular weight: 217
Origin: Japan AIST/NIMC Database- Spectrum MS-IW-7523
m/z	RELATIVE INTENSITY
15	10
26	30
27	479
28	129
29	10
30	30
35	10
36	139
37	10
38	60
39	159
40	20
41	50
42	60
44	10
49	20
50	109
51	519
52	90
53	20
54	30
55	10
56	10
58	10
61	10
62	30
63	829
64	90
65	349
66	50
67	10
72	40
73	10
74	30
75	40
76	60
77	1499
78	209
79	229
80	20
84	30
85	10
89	40
90	50
91	469
92	80
93	20
102	10
103	80
104	1129
105	929
106	1229
107	90
115	149
116	40
117	619
118	429
119	369
120	99
130	159
131	109
132	719
133	109
134	20
140	80
141	10
142	30
143	30
144	70
145	50
146	40
147	10
152	10
153	20
154	20
155	10
156	10
168	9999
169	1029
170	3229
171	329
172	10
179	10
180	60
181	60
182	189
183	40
184	60
216	20
217	1129
218	149
219	729
220	80
221	119
222	10
