Mass Spectrum: Benzene, 2,4-dichloro-1-methoxy-
Formula: C7 H6 Cl2 O
CAS: 553-82-2
Molecular weight: 176
Origin: CHEM. RES. LAB., WRIGHT-PATTERSON AIR FORCE BASE, OHIO, USA
m/z	RELATIVE INTENSITY
29	241
31	112
37	572
38	383
39	193
47	117
48	120
49	261
50	466
51	409
53	264
60	140
61	518
62	888
63	1981
64	151
72	317
73	1863
74	878
75	1701
76	173
77	381
83	308
84	333
85	405
86	161
87	116
97	467
98	477
99	178
100	141
107	300
109	729
110	167
111	713
112	191
113	406
126	360
128	108
133	6130
134	409
135	4022
136	250
137	623
141	115
145	328
147	260
148	120
161	8361
162	586
163	5298
164	368
165	924
176	9999
177	815
178	6124
179	465
180	932
