Mass Spectrum: Nicotinic acid hydrazide
Formula: C6 H7 N3 O
CAS: 553-53-7
Molecular weight: 137
Origin: MASS SPECTROMETRY CENTER, UNIV. OF UTAH, ALDRICH 10742-5
m/z	RELATIVE INTENSITY
16	67
17	26
25	4
26	278
27	567
28	481
29	244
30	137
31	578
32	74
36	65
37	155
38	238
39	272
40	11
43	40
49	218
50	1039
51	3498
52	722
53	326
64	5
75	112
76	182
77	268
78	8763
79	767
104	150
106	9999
107	777
108	32
122	84
137	2907
138	311
