Mass Spectrum: Costunolide
Formula: C15 H20 O2
CAS: 553-21-9
Molecular weight: 232
m/z	RELATIVE INTENSITY
18	781
29	3753
30	1561
31	2662
39	4384
40	1091
41	6566
42	470
43	1091
44	470
51	1251
52	781
53	7667
54	781
55	4224
65	2032
66	631
67	2662
68	941
69	941
77	3753
78	941
79	4694
80	2502
81	9999
82	1561
83	781
91	4534
92	1091
93	3753
94	1411
95	2813
96	470
97	310
103	631
105	3914
106	781
107	3443
108	1251
109	6566
110	1251
115	470
117	781
118	470
119	2342
120	1091
121	3914
122	1722
123	4694
124	631
129	470
131	1411
132	470
133	1091
134	1091
135	1251
136	781
137	631
143	470
145	1251
146	470
147	1251
148	470
149	1411
150	1722
151	1091
152	470
159	631
161	1251
162	631
163	1091
171	631
173	470
175	1251
176	1251
177	781
187	470
189	1091
190	781
203	470
204	631
217	3133
218	470
232	5165
233	941
