Mass Spectrum: Benzene, 2-bromo-1,4-dimethyl-
Formula: C8 H9 Br
CAS: 553-94-6
Molecular weight: 184
Origin: Japan AIST/NIMC Database- Spectrum MS-NW-3383
m/z	RELATIVE INTENSITY
15	30
26	70
27	419
28	10
29	20
36	10
37	70
38	179
39	719
40	60
41	50
43	20
44	20
49	80
50	579
51	1569
52	419
53	299
54	20
55	10
59	10
60	20
61	119
62	279
63	659
64	179
65	259
66	50
73	60
74	249
75	219
76	189
77	2109
78	1099
79	1439
80	90
81	40
82	30
83	10
84	10
85	40
86	70
87	90
88	30
89	319
90	229
91	139
92	169
93	60
97	10
98	40
99	10
101	60
102	299
103	1899
104	1159
105	9999
106	869
107	40
117	30
119	30
130	10
131	10
141	10
143	20
145	10
169	569
170	40
171	539
172	40
182	20
183	579
184	5669
185	1049
186	5649
187	499
188	20
