Mass Spectrum: Benzenepropanoic acid, .alpha.-hydroxy-4-methoxy-, methyl ester
Formula: C11 H14 O4
CAS: 55301-58-1
Molecular weight: 210
Origin: INST.OF CLINICAL BIOCHEM,RIKSHOSP,UNIV.OF OSLO,E.JELLUM,ET.A
m/z	RELATIVE INTENSITY
27	700
29	1000
31	600
33	800
39	1100
41	800
51	1100
52	900
53	700
55	600
59	900
63	700
64	500
65	1100
77	3100
78	2600
79	1100
89	800
90	800
91	2500
92	700
107	800
108	600
121	9999
122	2900
151	1600
192	500
210	1900
