Mass Spectrum: (3a.alpha.,4.alpha.,7.alpha.,7a.alpha.)-3a,4,7,7a-Tetrahydro-4,7-methanoinden-1-one
Formula: C10 H10 O
CAS: 5530-96-1
Molecular weight: 146
Origin: Japan AIST/NIMC Database- Spectrum MS-IW-1113
m/z	RELATIVE INTENSITY
26	129
27	429
28	90
29	30
31	10
37	50
38	179
39	1279
40	489
41	159
42	20
43	40
44	20
45	90
46	30
49	20
50	349
51	899
52	479
53	429
54	199
55	539
56	30
57	319
58	399
59	10
60	10
61	50
62	149
63	439
64	129
65	1219
66	9999
67	669
68	269
69	50
70	10
72	40
73	10
74	70
75	80
76	80
77	859
78	829
79	429
80	129
81	3509
82	1859
83	109
84	10
85	10
86	20
87	20
88	10
89	249
90	129
91	1829
92	359
93	30
94	169
95	20
97	10
98	10
101	20
102	119
103	709
104	209
105	439
106	209
107	99
108	20
113	10
114	10
115	1599
116	659
117	6299
118	2779
119	419
120	90
121	30
126	10
127	469
128	289
129	319
130	40
131	1359
132	159
133	10
143	10
144	149
145	2709
146	9789
147	1249
148	90
