Mass Spectrum: Xanthurenic acid, 3TMS derivative
Formula: C19 H31 N O4 Si3
CAS: 55319-89-6
Molecular weight: 421
Origin: S. MARKEY UNIV. OF COLO. MED. CTR., DENVER, COLORADO, USA
m/z	RELATIVE INTENSITY
44	180
45	470
69	340
73	2700
74	250
75	390
77	330
131	100
147	70
188	60
200	110
216	60
229	170
230	130
231	100
232	100
244	120
258	90
274	320
288	180
289	200
290	360
291	100
302	280
303	210
304	340
305	130
306	120
318	470
319	260
333	60
334	160
347	80
348	180
362	150
378	80
392	40
404	190
405	180
406	9999
407	3760
408	1550
409	380
410	140
420	540
421	370
422	160
