Mass Spectrum: 2-Pentenoic acid, 3-methyl-2-[(trimethylsilyl)oxy]-, trimethylsilyl ester
Formula: C12 H26 O3 Si2
CAS: 55320-09-7
Molecular weight: 274
Origin: O A MAMER, MCGILL UNIVERSITY, MONTRE
m/z	RELATIVE INTENSITY
14	15
15	65
16	11
20	11
25	12
26	63
27	214
29	127
30	20
31	90
38	13
39	152
40	59
42	67
43	102
44	2
45	1810
46	157
47	192
48	22
49	22
50	24
51	52
52	80
53	178
54	35
55	397
56	198
57	233
58	185
59	156
60	89
61	280
62	21
63	31
64	11
65	96
66	280
67	382
68	147
69	117
70	65
71	87
72	278
73	9999
74	877
75	969
76	186
77	206
78	38
79	70
80	18
81	88
82	40
83	2109
84	172
85	123
86	38
87	48
88	34
89	26
90	10
91	33
92	70
93	95
94	143
95	101
96	29
97	203
98	39
99	194
100	42
101	56
102	19
103	46
104	16
105	37
106	13
107	21
108	35
109	40
110	41
111	133
112	83
113	488
114	73
115	104
116	42
117	127
118	28
119	59
120	12
121	11
122	29
123	20
124	28
125	115
126	31
127	606
128	102
129	86
130	31
132	57
133	561
134	85
135	67
136	13
137	11
138	13
139	30
140	69
141	341
142	81
143	58
144	16
145	27
147	5920
148	1132
149	756
150	89
151	107
152	19
153	18
154	17
155	244
156	172
157	433
158	68
159	37
160	13
161	12
163	16
165	37
166	36
167	46
168	28
169	434
170	82
171	117
172	22
173	23
175	10
182	22
183	264
184	1753
185	1397
186	281
187	82
188	14
189	12
190	13
191	14
197	11
198	116
199	108
200	28
201	28
202	12
203	15
204	10
205	13
207	22
208	10
215	26
216	12
217	72
218	121
219	35
220	15
221	10
229	46
230	15
231	62
232	33
233	13
243	62
245	1046
246	254
247	124
248	29
249	13
257	88
259	7354
260	1781
261	763
262	122
263	29
273	184
274	965
275	269
276	92
277	21
