Mass Spectrum: Chenodeoxycholic acid, (3.alpha.,5.beta.,7.alpha.)-, 3TMS
Formula: C33 H64 O4 Si3
CAS: 55320-14-4
Molecular weight: 608
Origin: NIST Mass Spectrometry Data Center
m/z	RELATIVE INTENSITY
15	30
17	170
27	50
29	70
39	80
41	370
43	561
44	450
45	540
46	50
47	330
53	140
54	40
55	2953
56	190
57	270
58	130
59	370
60	120
61	420
62	30
65	40
66	60
67	1081
68	120
69	791
70	70
71	90
72	220
73	9999
74	931
75	6466
76	470
77	561
78	70
79	1081
80	170
81	2362
82	220
83	1041
84	110
85	310
86	40
87	90
89	200
90	50
91	1251
92	280
93	2272
94	661
95	2442
96	240
97	300
98	40
99	140
100	30
101	430
102	80
103	360
104	120
105	2352
106	490
107	2532
108	591
109	1381
110	170
111	230
112	90
113	200
115	220
116	450
117	2572
118	540
119	1882
120	821
121	2132
122	440
123	591
124	110
125	200
126	150
127	190
128	210
129	3894
130	691
131	1902
132	801
133	2112
134	581
135	1501
136	220
137	180
138	90
139	110
140	50
141	190
142	350
143	881
144	410
145	2522
146	661
147	3523
148	1051
149	1491
150	250
151	210
152	40
153	120
154	90
155	350
156	230
157	971
158	370
159	1852
160	991
161	1902
162	400
163	871
164	190
165	190
166	160
167	110
168	370
169	470
170	190
171	671
172	320
173	1481
174	561
175	931
176	200
177	550
178	160
179	200
180	30
181	190
182	180
183	320
184	110
185	591
186	330
187	671
188	160
189	460
190	130
191	140
192	90
193	170
194	30
195	200
196	120
197	220
198	70
199	961
200	591
201	1451
202	310
203	270
204	130
205	60
206	30
207	250
208	80
209	270
210	220
211	390
212	240
213	1621
214	561
215	781
216	240
217	250
218	60
219	80
220	40
221	30
223	90
224	30
225	100
226	40
227	340
228	581
229	591
230	290
231	80
233	90
234	30
235	50
236	60
237	90
238	20
239	260
240	90
241	200
242	150
243	1231
244	270
245	140
246	30
247	30
249	90
250	20
251	80
252	60
253	300
254	360
255	5325
256	1201
257	160
258	60
263	80
264	40
265	160
266	420
267	240
268	90
269	60
271	20
272	20
273	40
274	40
275	40
278	40
279	160
280	70
281	180
282	60
283	260
284	90
287	20
289	30
291	40
292	50
293	70
294	50
295	100
296	120
297	611
298	80
299	30
303	130
305	230
306	140
307	390
308	90
309	40
310	80
311	50
313	40
318	90
319	170
320	340
321	210
322	60
323	220
324	30
331	40
332	40
333	50
334	70
335	40
338	80
339	80
340	40
341	60
344	40
345	681
346	200
347	110
348	50
356	30
361	20
371	70
372	80
373	100
374	160
375	40
376	50
386	100
387	70
388	40
389	20
393	60
400	70
406	20
409	40
410	40
411	20
413	1631
414	520
415	130
416	50
424	50
425	20
427	60
428	6366
429	2793
430	911
431	180
432	40
436	30
462	20
503	130
504	40
516	20
517	50
518	120
519	40
607	20
