Mass Spectrum: Hexanal, 3,3-dimethyl-
Formula: C8 H16 O
CAS: 55320-57-5
Molecular weight: 128
Origin: CARL DJERASSI DEPT OF CHEM STANFORD UNIV STANFORD CALIF 94305
m/z	RELATIVE INTENSITY
27	1600
28	400
29	3200
39	1500
40	200
41	6000
42	500
43	8100
44	300
45	100
53	400
55	1600
56	3400
57	5200
58	200
59	200
67	800
69	8000
70	400
71	600
72	100
82	200
83	200
84	9999
85	6500
86	300
95	900
100	100
110	100
113	100
128	100
