Mass Spectrum: Homogentisic acid, 3TMS derivative
Formula: C17 H32 O4 Si3
CAS: 55334-62-8
Molecular weight: 384
Origin: NIST Mass Spectrometry Data Center
m/z	RELATIVE INTENSITY
15	10
27	10
29	20
31	10
39	10
41	10
42	10
43	140
44	110
45	1151
46	70
47	120
48	10
51	20
52	10
53	10
55	30
56	10
57	50
58	60
59	180
60	30
61	80
62	10
63	20
65	20
66	10
67	10
68	10
69	20
70	20
71	40
73	9999
74	861
75	1151
76	90
77	110
78	20
79	20
81	10
82	10
83	60
84	10
85	30
87	10
88	10
89	50
90	10
91	140
92	20
93	40
94	10
95	50
96	10
97	40
98	10
99	20
101	10
102	20
103	100
104	60
105	140
106	10
107	40
108	10
109	40
110	20
111	80
112	10
113	10
115	90
116	20
117	110
118	30
119	180
120	30
121	80
122	10
123	20
124	10
125	10
126	10
127	10
128	10
129	20
130	10
131	140
132	30
133	520
134	80
135	190
136	40
137	40
138	10
139	10
141	10
143	40
144	10
145	60
147	2843
148	470
149	390
150	60
151	100
152	10
153	10
155	10
157	20
158	10
159	30
160	10
161	150
162	50
163	450
164	90
165	70
166	20
167	30
168	10
169	10
171	10
173	10
174	10
175	40
176	30
177	270
178	200
179	160
180	40
181	50
182	10
183	10
184	40
189	20
190	10
191	160
192	50
193	310
194	270
195	100
196	20
197	10
203	10
204	10
205	20
206	10
207	140
208	30
209	100
210	20
211	10
217	10
218	10
219	40
220	10
221	110
222	70
223	170
224	40
225	60
226	10
227	10
231	10
233	40
234	10
235	110
236	60
237	1181
238	280
239	160
240	30
241	10
247	10
248	10
249	170
250	90
251	360
252	1872
253	550
254	190
255	40
256	10
263	30
264	20
265	450
266	140
267	801
268	420
269	130
270	40
271	10
278	10
279	20
280	10
281	140
282	40
283	20
284	10
293	10
294	110
295	50
296	80
297	210
298	60
299	30
300	10
309	10
310	10
311	50
312	310
313	240
314	90
315	30
316	10
321	10
323	30
324	10
325	210
326	70
327	40
328	10
339	30
341	3803
342	1221
343	571
344	120
345	30
346	10
355	20
356	10
369	500
370	170
371	80
372	20
373	10
384	7176
385	2492
386	1281
387	300
388	70
389	10
