Mass Spectrum: Eicosane, 7-hexyl-
Formula: C26 H54
CAS: 55333-99-8
Molecular weight: 366
m/z	RELATIVE INTENSITY
38	30
39	390
40	100
41	3853
42	911
43	9308
44	100
45	10
46	10
47	10
48	10
49	10
50	10
51	20
52	10
53	160
54	300
55	3093
56	1371
57	9999
58	450
59	10
60	10
61	10
62	10
63	10
64	10
65	30
66	30
67	320
68	250
69	1651
70	831
71	6136
72	340
73	10
74	10
75	10
76	10
77	30
78	10
79	50
80	20
81	150
82	230
83	1061
84	460
85	4044
86	270
87	10
89	10
90	10
91	20
92	10
93	50
94	10
95	70
96	150
97	771
98	250
99	1301
100	110
101	10
102	10
103	10
104	10
105	10
106	10
107	10
108	10
109	20
110	90
111	420
112	170
113	891
114	80
115	10
116	10
117	10
118	10
119	10
120	10
121	10
122	10
123	10
124	50
125	230
126	130
127	621
128	60
129	10
130	10
131	10
132	10
133	10
134	10
135	10
136	10
137	10
138	40
139	110
140	80
141	390
142	40
143	10
148	10
149	10
151	10
152	20
153	70
154	90
155	240
156	30
157	10
165	10
166	20
167	40
168	40
169	180
170	30
171	10
178	10
179	10
180	10
181	30
182	510
183	430
184	60
185	10
194	10
195	20
196	30
197	130
198	20
199	10
200	10
202	10
203	10
208	10
209	10
210	20
211	90
212	20
213	10
222	10
223	10
224	10
225	60
226	10
227	10
236	10
237	10
238	10
239	30
240	10
241	10
249	10
250	10
251	10
252	30
253	10
254	10
266	10
267	10
268	10
280	270
281	360
282	80
283	10
284	10
294	10
295	10
296	10
308	10
309	10
310	10
322	10
323	10
337	10
