Mass Spectrum: Acetic acid, [(3,5,6-trichloro-2-pyridinyl)oxy]-
Formula: C7 H4 Cl3 N O3
CAS: 55335-06-3
Molecular weight: 255
Origin: Pu Leung, NIH, Bethesda, MD
m/z	RELATIVE INTENSITY
41	326
42	1513
43	360
44	246
45	3344
46	51
47	1463
48	412
49	459
50	400
51	190
52	203
53	510
54	99
55	119
56	57
57	82
58	42
59	486
60	495
61	199
62	1207
63	1459
64	253
65	154
66	24
67	68
68	35
69	105
70	67
71	525
72	1280
73	514
74	593
75	1194
76	383
77	101
78	89
79	35
80	33
81	42
82	195
83	352
84	282
85	584
86	222
87	255
88	451
89	88
90	39
91	131
92	84
93	35
94	363
95	139
96	307
97	431
98	3073
99	350
100	839
101	91
102	31
103	18
105	90
106	328
107	2174
108	398
109	1711
110	1519
111	468
112	860
113	93
114	167
115	36
116	25
117	38
118	125
119	491
120	126
121	397
122	76
123	142
124	71
125	83
126	51
127	47
128	56
129	56
130	27
131	35
132	108
133	689
134	912
135	609
136	481
137	123
138	88
139	27
140	45
141	43
142	124
143	46
144	1888
145	737
146	2776
147	769
148	1748
149	422
150	418
151	80
152	40
153	129
154	229
155	104
156	180
157	58
158	109
159	114
160	47
161	602
162	584
163	437
164	282
165	107
166	76
167	25
168	941
169	1692
170	1110
171	1696
172	340
173	374
174	115
175	164
176	268
177	127
178	193
180	3215
181	2276
182	9999
183	2179
184	9534
185	1261
186	3646
187	316
188	423
189	32
192	15
193	19
194	18
195	33
196	48
197	3784
198	502
199	2870
200	284
201	779
202	119
203	122
204	44
205	17
206	29
208	180
209	67
210	4340
211	844
212	4827
213	904
214	1849
215	311
216	234
217	34
220	38
221	18
222	33
223	8
224	15
237	59
238	153
239	84
240	183
241	44
242	77
244	7
246	9
255	2961
256	244
257	2919
258	237
259	961
260	79
261	169
262	19
