Mass Spectrum: Atropine, TMS derivative
Formula: C20 H31 N O3 Si
CAS: 55334-03-7
Molecular weight: 361
Origin: NIST Mass Spectrometry Data Center
m/z	RELATIVE INTENSITY
27	10
28	10
29	10
30	20
32	10
39	40
40	10
41	130
42	420
43	70
44	120
45	130
46	10
47	40
50	10
51	30
52	20
53	50
54	60
55	180
56	110
57	130
58	80
59	60
60	10
61	30
62	10
63	20
64	10
65	80
66	20
67	761
68	190
69	40
70	130
71	20
72	30
73	1141
74	110
75	360
76	30
77	170
78	170
79	60
80	70
81	280
82	1491
83	1461
84	180
85	20
87	10
88	10
89	60
90	90
91	180
92	20
93	140
94	1321
95	701
96	971
97	210
98	60
99	10
101	20
102	40
103	400
104	841
105	110
106	20
107	20
108	90
109	30
110	20
111	10
112	20
115	20
116	10
117	20
118	100
119	20
120	20
121	20
122	140
123	440
124	9999
125	1181
126	60
127	10
129	10
131	20
133	10
135	10
137	10
138	10
140	731
141	70
142	10
143	10
145	30
146	10
147	10
148	50
149	10
159	10
161	30
162	10
163	50
164	10
177	30
178	40
179	10
192	20
193	110
194	20
195	10
200	20
205	10
208	10
223	20
272	50
273	10
346	10
361	821
362	230
363	60
364	10
