Mass Spectrum: 2-Hexenedioic acid, 2-[(trimethylsilyl)oxy]-, bis(trimethylsilyl) ester
Formula: C15 H32 O5 Si3
CAS: 55334-16-2
Molecular weight: 376
Origin: John Halket,Royal Holloway, University of London, UK
m/z	RELATIVE INTENSITY
15	50
27	100
28	90
29	100
30	10
31	40
39	70
40	30
41	110
42	70
43	460
44	370
45	1982
46	130
47	330
48	20
49	10
51	10
52	30
53	170
55	1912
56	80
57	90
58	160
59	310
60	70
61	200
62	20
63	10
65	20
66	50
67	50
68	310
69	180
70	70
71	90
73	9999
74	991
75	2062
76	140
77	70
78	20
79	20
81	160
82	10
83	40
84	10
85	110
86	20
87	50
88	40
89	50
90	10
93	10
94	10
95	80
96	30
97	180
98	60
99	110
100	20
101	80
102	20
103	60
104	10
105	40
107	10
109	10
111	50
112	10
113	60
114	20
115	90
116	240
117	130
118	20
119	70
120	10
121	10
124	10
125	20
126	10
127	100
129	450
130	70
131	350
133	821
134	110
135	100
136	10
137	10
140	70
141	280
142	70
143	70
144	20
145	30
147	5965
148	951
149	821
150	80
151	40
153	30
154	40
155	70
157	400
158	70
159	40
160	10
161	20
162	10
163	10
167	20
168	90
169	160
170	100
171	60
172	10
173	50
174	10
175	20
180	10
181	30
183	10
186	10
188	10
189	30
190	30
191	30
192	10
193	10
197	10
199	20
201	140
202	40
203	170
204	110
205	40
206	20
207	40
209	20
211	20
212	10
213	10
215	310
216	70
217	130
218	20
219	10
221	170
222	30
223	20
225	10
226	10
227	30
228	30
229	60
230	140
231	80
232	20
239	10
240	10
241	30
242	420
243	1191
244	290
245	250
246	50
247	10
255	20
257	1061
258	3133
259	741
260	280
261	60
262	10
271	60
273	90
274	20
275	20
278	10
286	140
287	30
288	30
289	10
291	861
292	220
293	100
294	20
305	10
317	10
318	10
319	140
320	50
321	20
331	60
332	40
333	40
334	20
335	10
359	10
361	2192
362	681
363	330
364	60
365	20
376	510
377	150
378	80
379	20
380	10
