Mass Spectrum: Cyclohexane, 1,1'-dodecylidenebis[4-methyl-
Formula: C26 H50
CAS: 55334-09-3
Molecular weight: 362
m/z	RELATIVE INTENSITY
37	20
39	611
40	140
41	3934
42	571
43	3333
44	110
45	10
48	10
49	10
50	20
51	30
52	30
53	390
54	741
55	9999
56	821
57	1872
58	90
59	10
60	10
61	10
62	10
63	10
64	10
65	80
66	70
67	1321
68	961
69	2682
70	340
71	971
72	60
73	10
74	10
75	10
76	10
77	120
78	30
79	290
80	130
81	2122
82	520
83	2612
84	220
85	691
86	50
87	10
88	10
89	10
90	10
91	90
92	20
93	140
94	90
95	1461
96	2002
97	5435
98	450
99	190
100	10
101	10
102	10
103	10
104	10
105	30
106	10
107	60
108	40
109	420
110	1411
111	2392
112	220
113	120
114	10
115	10
116	10
117	10
118	10
119	10
120	10
121	20
122	50
123	400
124	130
125	821
126	90
127	70
128	10
129	10
130	10
131	10
132	10
133	10
134	10
135	20
136	20
137	100
138	70
139	330
140	40
141	50
142	10
143	10
144	10
145	10
146	10
147	10
148	10
149	20
150	10
151	70
152	60
153	200
154	40
155	40
156	10
157	10
158	10
159	10
160	10
161	10
162	10
163	10
164	10
165	40
166	50
167	150
168	30
169	60
170	10
171	10
172	10
173	10
174	10
175	10
176	10
177	10
178	10
179	10
180	20
181	120
182	20
183	60
184	10
185	10
186	10
187	10
189	10
190	10
191	10
192	10
193	20
194	10
195	90
196	20
197	10
198	10
199	10
200	10
201	10
202	10
203	10
204	10
205	10
206	50
207	190
208	50
209	70
210	10
211	10
212	10
213	10
214	10
215	10
216	10
217	10
218	10
219	10
220	10
221	20
222	20
223	20
224	10
225	10
226	10
227	10
228	10
229	10
230	10
231	10
232	10
233	10
234	10
235	20
236	80
237	20
238	10
239	10
240	10
241	10
242	10
243	10
244	10
245	10
246	10
247	10
248	10
249	30
250	10
251	10
252	10
253	10
254	10
255	10
256	10
257	10
258	10
259	10
260	10
261	10
262	10
263	10
264	1551
265	1051
266	190
267	20
268	10
269	10
270	10
271	10
272	10
273	10
274	10
275	10
276	10
277	10
278	10
279	10
280	10
281	10
282	10
283	10
284	10
285	10
286	10
287	10
288	10
289	10
290	10
291	10
292	10
293	10
294	10
295	10
296	10
297	10
298	10
299	10
300	10
301	10
302	10
303	10
304	10
305	10
306	10
307	10
308	10
309	10
310	10
311	10
312	10
313	10
314	10
315	10
316	10
317	10
318	10
319	10
320	10
321	10
356	10
357	10
358	10
359	10
360	10
361	10
362	10
363	10
