Mass Spectrum: Cyclohexane, 1,1'-tetradecylidenebis-
Formula: C26 H50
CAS: 55334-08-2
Molecular weight: 362
m/z	RELATIVE INTENSITY
41	7267
42	1061
43	5385
44	170
45	10
49	10
50	50
51	70
52	50
53	530
54	1411
55	9999
56	1191
57	3503
58	150
59	10
61	10
62	10
63	20
64	10
65	110
66	150
67	3373
68	951
69	3413
70	480
71	1882
72	100
73	10
74	10
75	10
76	10
77	140
78	60
79	440
80	240
81	2402
82	4334
83	8287
84	731
85	1281
86	80
87	10
89	10
90	10
91	120
92	30
93	150
94	110
95	1161
96	3573
97	5975
98	470
99	330
100	30
103	10
104	10
105	30
106	10
107	60
108	110
109	1141
110	420
111	1932
112	190
113	200
114	20
115	10
117	10
118	10
119	10
120	10
121	30
122	50
123	250
124	150
125	881
126	100
127	130
128	20
129	10
131	10
133	10
134	10
135	30
136	20
137	110
138	130
139	420
140	50
141	110
142	10
143	10
147	10
149	10
150	10
151	60
152	90
153	260
154	40
155	50
156	10
163	10
164	10
165	40
166	20
167	170
168	30
169	40
170	10
175	10
176	10
177	20
178	180
179	621
180	100
181	140
182	50
183	60
184	10
191	10
192	20
193	40
194	30
195	110
196	30
197	60
198	10
206	10
207	20
208	20
209	80
210	10
211	10
220	10
221	10
222	20
223	60
224	10
225	10
234	10
235	10
236	30
237	30
238	10
249	10
250	90
251	30
252	10
264	10
265	20
266	10
274	10
275	10
276	10
277	20
278	3223
279	2152
280	410
281	40
282	10
294	10
295	10
360	10
361	10
362	30
363	10
