Mass Spectrum: Benzene, (ethenylsulfonyl)-
Formula: C8 H8 O2 S
CAS: 5535-48-8
Molecular weight: 168
Origin: Japan AIST/NIMC Database- Spectrum MS-NW-9515
m/z	RELATIVE INTENSITY
26	70
27	589
28	80
29	40
32	10
37	20
38	50
39	289
40	10
41	10
43	10
44	30
45	109
46	10
47	70
48	20
49	30
50	689
51	2489
52	199
53	169
55	10
57	10
58	40
59	40
61	10
62	30
63	90
64	30
65	1079
66	139
69	70
70	10
71	10
73	30
74	229
75	339
76	169
77	6239
78	919
79	50
81	169
82	20
83	50
84	10
85	30
89	10
90	10
91	379
92	99
93	659
94	359
95	30
97	1099
98	70
99	50
102	30
103	119
104	199
105	20
108	20
109	149
110	60
111	10
119	169
120	149
121	30
122	10
123	70
124	10
125	9999
126	899
127	499
128	40
134	10
135	20
136	10
137	10
141	379
142	40
143	20
168	1839
169	219
170	109
171	10
