Mass Spectrum: Pentacosanoic acid, methyl ester
Formula: C26 H52 O2
CAS: 55373-89-2
Molecular weight: 396
Origin: NIST Mass Spectrometry Data Center
m/z	RELATIVE INTENSITY
15	50
26	20
27	190
29	711
30	30
31	40
33	10
38	10
39	230
40	60
41	2622
42	621
43	6126
44	200
45	100
50	10
51	10
52	10
53	150
54	310
55	4234
56	941
57	4644
58	260
59	851
60	50
61	40
65	30
66	20
67	520
68	240
69	2142
70	460
71	1581
72	90
73	130
74	9999
75	3713
76	160
77	40
78	20
79	110
80	40
81	450
82	230
83	1591
84	480
85	861
87	8017
88	631
89	50
91	20
92	10
93	100
94	30
95	410
96	180
97	1341
98	490
99	190
100	30
101	731
102	90
103	10
105	20
106	10
107	90
108	20
109	220
110	90
111	571
112	130
113	100
114	30
115	290
116	180
117	20
119	10
120	10
121	160
122	20
123	120
124	50
125	290
126	50
127	60
128	10
129	921
130	270
131	20
133	10
134	10
135	160
136	20
137	50
138	30
139	170
140	40
141	40
143	2692
144	280
145	20
147	10
149	110
150	20
151	30
152	20
153	80
154	20
155	20
157	230
158	30
159	10
163	60
164	10
165	10
166	10
167	60
168	20
169	10
171	130
172	40
173	10
177	40
178	10
179	10
180	10
181	40
182	10
183	10
185	430
186	80
187	10
191	30
192	10
193	10
194	10
195	30
196	10
197	10
199	591
200	90
201	10
205	20
206	10
208	10
209	20
210	10
213	90
214	20
219	10
220	10
222	10
223	20
224	10
227	90
228	20
229	10
233	10
236	10
237	20
238	10
241	250
242	60
243	10
247	10
251	20
252	10
255	250
256	50
257	10
261	10
264	10
265	10
269	60
270	10
278	10
279	10
280	10
283	90
284	30
285	10
289	10
293	10
294	10
297	470
298	110
299	10
307	10
311	250
312	50
313	10
320	10
321	10
322	10
325	70
326	20
327	10
335	10
339	150
340	40
341	10
345	10
346	10
353	961
354	240
355	40
362	10
363	20
364	10
365	210
366	60
367	160
368	40
369	10
396	2352
397	651
398	100
399	10
