Mass Spectrum: 1-Ethynyl-1-cyclooctanol
Formula: C10 H16 O
CAS: 55373-76-7
Molecular weight: 152
Origin: NIST Mass Spectrometry Data Center, 1994
m/z	RELATIVE INTENSITY
13	74
15	688
17	58
18	90
19	14
24	51
25	181
26	1142
27	6915
28	1655
29	3815
30	123
37	159
38	666
39	9471
40	3127
41	9482
42	2708
43	4539
44	115
50	707
51	2066
52	709
53	7244
54	1425
55	6842
56	1289
57	561
58	102
61	48
62	210
63	588
64	319
65	1004
66	765
67	4305
68	9999
69	3127
70	1258
71	424
72	34
75	63
77	1278
78	593
79	2366
80	946
81	8996
82	2229
83	1575
84	784
85	116
89	75
91	1575
92	418
93	999
94	519
95	4448
96	2038
97	931
98	307
99	33
103	83
104	52
105	552
106	354
107	170
108	33
109	3205
110	948
111	264
115	27
117	46
119	417
121	37
123	1433
124	315
125	39
133	66
134	32
137	396
138	33
151	204
152	37
