Mass Spectrum: Docosane, 7-hexyl-
Formula: C28 H58
CAS: 55373-86-9
Molecular weight: 394
Origin: SHELL OIL CO., HOUSTON, TEXAS, USA
m/z	RELATIVE INTENSITY
37	14
38	25
39	379
40	95
41	3438
42	871
43	8928
44	310
45	5
46	1
47	1
48	1
49	2
50	14
51	20
52	14
53	140
54	302
55	3080
56	1436
57	9999
58	464
59	14
60	1
61	2
62	4
63	7
64	7
65	34
66	34
67	400
68	307
69	1989
70	939
71	6205
72	345
73	9
74	2
75	2
76	3
77	37
78	11
79	62
80	25
81	208
82	279
83	1388
84	541
85	4219
86	289
87	9
89	2
90	1
91	36
92	16
93	56
94	29
95	110
96	179
97	1009
98	318
99	1419
100	109
101	6
102	1
103	3
104	2
105	14
106	5
107	12
108	7
109	44
110	107
111	580
112	228
113	1050
114	91
115	7
116	2
117	4
118	2
119	14
120	4
121	14
122	6
123	23
124	68
125	294
126	197
127	788
128	81
129	8
130	2
131	4
132	1
133	4
134	11
135	5
136	11
137	17
138	45
139	149
140	107
141	527
142	58
143	6
144	2
145	3
146	1
147	2
148	1
149	2
150	1
151	6
152	32
153	98
154	113
155	323
156	39
157	4
158	1
159	2
160	1
161	1
162	1
163	2
164	1
165	5
166	25
167	55
168	65
169	269
170	35
171	3
172	1
173	1
174	1
175	1
176	1
177	1
178	1
179	4
180	20
181	45
182	936
183	776
184	102
185	11
186	2
187	1
189	1
191	1
192	1
193	2
194	16
195	30
196	58
197	200
198	32
199	4
200	3
201	2
202	4
203	1
204	1
205	1
207	4
208	16
209	27
210	43
211	165
212	28
213	3
221	2
222	12
223	20
224	24
225	133
226	24
227	2
228	1
235	2
236	11
237	19
238	20
239	105
240	20
241	4
242	1
248	1
249	2
250	6
251	10
252	20
253	71
254	15
255	3
256	2
263	1
264	4
265	7
266	14
267	40
268	9
269	2
277	1
278	2
279	5
280	48
281	32
282	6
283	1
291	1
292	1
293	1
294	20
295	26
296	6
297	1
305	2
306	2
307	5
308	511
309	757
310	168
311	21
312	2
322	18
323	27
324	7
325	1
336	9
337	17
338	4
350	2
351	5
352	1
363	2
364	2
365	4
379	1
392	2
393	1
394	3
395	2
396	1
