Mass Spectrum: Acetylsalicyloyl chloride
Formula: C9 H7 Cl O3
CAS: 5538-51-2
Molecular weight: 198
Origin: NIST Mass Spectrometry Data Center
m/z	RELATIVE INTENSITY
11	20
12	60
13	250
14	891
15	1752
16	20
18	60
19	10
24	20
25	100
26	240
27	140
28	240
29	130
30	20
31	100
32	60
35	130
36	310
37	921
38	1832
39	1301
40	100
41	190
42	1271
43	5015
44	150
45	70
46	60
47	20
48	50
49	290
50	1211
51	270
53	631
54	40
55	10
61	480
62	1061
63	3723
64	3013
65	1381
66	170
67	30
68	20
73	370
74	470
75	360
76	280
77	170
79	60
85	20
86	20
87	10
89	20
92	7897
93	1111
94	110
99	330
100	20
101	120
102	10
104	30
105	30
111	50
120	9999
121	5815
122	420
123	50
127	60
128	10
129	30
134	30
135	30
138	50
139	30
141	10
156	671
157	80
158	270
159	30
160	10
162	1061
163	721
164	80
198	100
199	10
200	20
