Mass Spectrum: Ergosta-7,24(28)-dien-3-ol, 4-methyl-, acetate, (3.beta.,4.alpha.)-
Formula: C31 H50 O2
CAS: 55399-28-5
Molecular weight: 454
m/z	RELATIVE INTENSITY
228	2889
229	667
230	278
241	1389
242	1000
243	1000
267	1389
268	278
269	2777
270	444
287	667
310	667
311	278
312	278
313	167
327	9999
328	2944
370	3888
371	1222
380	1000
394	667
439	1778
440	611
454	2111
455	611
