Mass Spectrum: Phenol, 4-(2-aminoethyl)-2-methoxy-
Formula: C9 H13 N O2
CAS: 554-52-9
Molecular weight: 167
Origin: Japan AIST/NIMC Database- Spectrum MS-NW-6712
m/z	RELATIVE INTENSITY
14	30
15	179
26	70
27	289
28	589
29	159
30	9999
31	149
32	10
39	819
40	239
41	199
42	119
43	109
44	50
46	10
47	10
49	30
50	309
51	859
52	379
53	269
54	70
55	359
56	20
61	40
62	129
63	239
64	90
65	549
66	629
67	249
68	50
69	20
70	10
73	10
74	60
75	60
76	60
77	699
78	399
79	219
80	70
81	80
82	10
86	10
87	10
89	50
90	40
91	159
92	40
93	70
94	1239
95	479
96	50
104	40
105	159
106	279
107	279
108	50
109	50
110	10
114	10
116	10
117	10
118	10
119	30
120	20
121	50
122	869
123	1099
124	99
125	10
132	10
133	10
134	60
135	80
136	20
137	2159
138	4739
139	459
140	40
148	10
149	10
150	60
151	30
165	20
166	10
167	629
168	70
