Mass Spectrum: Bicyclo[4.1.0]heptane, 3,7,7-trimethyl-
Formula: C10 H18
CAS: 554-59-6
Molecular weight: 138
m/z	RELATIVE INTENSITY
27	1301
29	1101
39	1802
40	300
41	4604
42	400
43	1001
53	1201
54	601
55	3904
56	500
57	500
67	5505
68	1401
69	2202
70	300
77	601
79	1001
80	400
81	7407
82	2702
83	601
91	300
93	400
94	701
95	9999
96	1702
97	300
109	701
110	100
123	2402
124	200
138	2002
139	200
