Mass Spectrum: Benzenamine, 2,4-dichloro-
Formula: C6 H5 Cl2 N
CAS: 554-00-7
Molecular weight: 161
Origin: NIST Mass Spectrometry Data Center, 1994
m/z	RELATIVE INTENSITY
12	29
13	32
15	12
24	27
25	102
26	268
27	236
28	18
29	26
33	16
35	316
36	271
37	1090
38	1008
39	605
40	206
41	515
42	80
45	732
47	335
48	174
49	491
50	544
51	433
52	1311
53	143
54	78
60	355
61	1090
62	1761
63	3028
64	701
65	570
66	133
67	38
68	16
71	162
72	457
73	1208
74	541
75	589
76	160
77	63
78	91
79	23
80	16
81	568
82	350
83	141
84	153
85	190
86	179
87	166
88	268
89	492
90	2884
91	567
92	27
95	48
96	127
97	432
98	744
99	2027
100	430
101	762
102	77
103	46
106	33
107	127
108	63
109	142
110	33
111	42
112	26
114	52
120	25
122	22
123	26
124	234
125	1242
126	1747
127	511
128	535
129	35
133	527
134	550
135	403
136	345
137	78
138	59
144	17
158	13
161	9999
162	700
163	6535
164	455
165	1077
166	75
