Mass Spectrum: Octadecanoic acid, 2-(acetyloxy)-1-[(acetyloxy)methyl]ethyl ester
Formula: C25 H46 O6
CAS: 55401-62-2
Molecular weight: 442
m/z	RELATIVE INTENSITY
26	100
27	400
28	400
29	1201
30	100
31	100
39	400
40	100
41	2402
42	701
43	9999
44	400
45	1601
46	100
51	100
53	200
54	300
55	3103
56	1001
57	4204
58	500
59	200
60	200
61	300
65	100
66	100
67	701
68	400
69	1902
70	701
71	2202
72	200
73	2803
74	300
75	100
76	100
77	100
78	701
79	200
80	200
81	801
82	500
83	1601
84	2402
85	1601
86	200
87	200
88	100
91	100
92	100
93	200
94	200
95	1001
96	500
97	1401
98	3603
99	1001
100	200
101	100
103	200
104	100
105	100
106	100
107	200
108	200
109	601
110	200
111	801
112	1601
113	400
114	100
115	1001
116	1001
117	1301
118	901
119	901
120	100
121	200
122	100
123	300
124	100
125	400
126	500
127	200
128	100
129	200
130	100
133	100
135	200
136	100
137	200
138	100
139	200
140	200
141	200
142	100
143	100
145	100
147	100
149	901
150	100
151	100
152	100
153	100
154	200
155	100
156	100
157	100
158	3003
159	7106
160	601
161	100
163	100
165	100
166	100
167	100
168	200
169	100
170	100
171	1101
172	100
176	100
177	1101
178	200
179	100
180	100
181	100
182	300
183	1201
184	200
185	100
193	100
195	100
196	200
197	100
199	100
205	100
209	100
210	200
211	100
213	100
214	100
218	300
219	100
222	100
223	100
224	100
227	300
228	100
239	100
241	100
255	100
264	100
265	100
266	500
267	3403
268	701
269	100
283	100
285	100
297	100
298	100
338	200
339	100
352	100
353	100
368	200
369	100
381	100
382	601
383	200
384	100
