Mass Spectrum: 3-Methylthiophene-2-carbonitrile
Formula: C6 H5 N S
CAS: 55406-13-8
Molecular weight: 123
Origin: NIST Mass Spectrometry Data Center, 1994
m/z	RELATIVE INTENSITY
12	74
13	32
14	51
15	94
18	10
25	72
26	450
27	646
28	148
32	224
33	56
36	122
37	704
38	584
39	618
40	77
41	1
44	261
45	2033
46	159
47	175
48	74
49	302
50	887
51	999
52	556
53	343
56	96
57	689
58	877
59	80
60	118
61	206
62	257
63	461
64	445
65	109
68	171
69	847
70	1747
71	397
72	102
75	200
76	144
77	43
78	355
79	96
80	57
81	126
82	206
83	106
84	30
86	24
87	34
88	56
90	74
92	42
93	125
94	208
95	596
96	2175
97	778
98	131
99	36
106	45
107	66
120	43
122	9999
123	6360
124	916
125	303
126	27
