Mass Spectrum: 2,3-Dicyanodibenzo(f,h)quinoxaline
Formula: C18 H8 N4
CAS: 55408-49-6
Molecular weight: 280
Origin: G. HOLZMANN, INST. ORG. CHEM., BERLIN, W. GE
m/z	RELATIVE INTENSITY
75	1220
76	1060
87	1070
88	2220
114	1000
127	610
140	1110
149	410
150	290
151	220
200	210
201	850
202	510
203	350
204	220
226	130
227	480
228	1080
229	200
253	190
254	280
255	130
279	2070
280	9999
281	4070
