Mass Spectrum: 4-(3,4-Methylenedioxyphenyl)-2-butanone
Formula: C11 H12 O3
CAS: 55418-52-5
Molecular weight: 192
Origin: NIST Mass Spectrometry Data Center, 1994
m/z	RELATIVE INTENSITY
13	25
14	157
15	634
16	3
18	6
26	95
27	423
29	241
30	54
31	55
37	57
38	196
39	794
40	82
41	185
42	54
43	2815
44	79
45	31
50	398
51	1144
52	184
53	283
54	28
55	132
56	7
58	10
60	17
61	90
62	334
63	767
64	252
65	1016
66	102
67	40
68	8
69	12
71	10
73	45
74	182
75	110
76	8
77	1419
78	212
79	500
80	40
81	10
85	9
86	34
87	38
89	543
91	1828
92	211
93	36
94	14
95	9
102	20
103	65
105	543
106	83
107	28
115	62
116	25
117	58
118	20
119	2374
120	328
121	348
122	615
123	54
131	17
133	61
135	9999
136	915
137	84
143	23
144	24
145	77
146	17
147	725
148	391
149	2178
150	223
151	27
159	60
160	10
161	58
162	28
173	15
174	12
175	22
177	287
178	29
192	6632
193	774
194	69
195	9
