Mass Spectrum: Campesterol, TMS derivative
Formula: C31 H56 O Si
CAS: 55429-62-4
Molecular weight: 472
Origin: John Halket,Royal Holloway, University of London, UK
m/z	RELATIVE INTENSITY
15	20
26	30
27	210
29	450
30	20
31	10
37	20
38	30
39	280
40	70
41	2222
42	430
43	7477
44	300
45	410
46	30
47	180
48	10
49	10
50	30
51	50
52	30
53	320
54	90
55	3924
56	360
57	3853
58	210
59	300
60	70
61	330
62	30
63	40
64	10
65	160
66	70
67	1962
68	270
69	2552
70	320
71	3503
72	300
73	7096
74	671
75	5015
76	370
77	771
78	170
79	2032
80	290
81	3673
82	360
83	1491
84	240
85	1261
86	100
87	50
88	30
89	230
91	2402
92	490
93	2492
94	550
95	3853
96	370
97	1351
98	120
99	210
100	30
101	350
102	50
103	300
104	190
105	2923
106	711
107	3083
108	591
109	1942
110	290
111	651
112	60
113	140
114	40
115	470
116	300
117	1051
118	420
119	2863
120	1591
121	2772
122	450
123	831
124	120
125	310
126	40
127	150
128	250
129	9999
130	1631
131	1892
132	581
133	1892
134	500
135	1221
136	240
137	410
138	60
139	120
140	20
141	220
142	220
143	1441
144	490
145	2542
146	711
147	1511
148	440
149	811
150	110
151	270
152	50
153	90
154	60
155	581
156	190
157	701
158	410
159	1822
160	1011
161	1401
162	320
163	921
164	140
165	240
166	50
167	90
168	100
169	310
170	100
171	450
172	190
173	1001
174	320
175	550
176	100
177	440
178	90
179	180
180	60
181	200
182	130
183	170
184	70
185	390
186	140
187	330
188	110
189	410
190	70
191	200
192	40
193	130
194	60
195	140
196	160
197	250
198	80
199	440
200	160
201	360
202	80
203	500
204	90
205	160
206	40
207	170
208	60
209	60
210	30
211	80
212	50
213	871
214	270
215	520
216	130
217	520
218	100
219	170
220	120
221	160
222	40
223	20
224	10
225	50
226	30
227	200
228	180
229	240
230	50
231	110
232	40
233	250
234	70
235	70
236	20
237	10
238	10
239	90
240	40
241	160
242	50
243	60
244	30
245	160
246	40
247	250
248	60
249	40
250	50
251	20
253	100
254	60
255	1151
256	250
257	80
258	20
259	280
260	190
261	911
262	200
263	30
267	40
268	10
269	50
270	10
271	40
272	20
273	210
274	130
275	90
276	30
281	20
282	10
283	130
284	40
285	50
286	20
287	110
288	200
289	440
290	100
291	20
296	10
297	40
298	20
299	30
300	40
301	70
302	30
303	40
304	20
311	30
312	20
313	50
314	50
315	320
316	90
317	20
318	10
325	90
326	30
327	90
328	70
329	90
330	30
331	10
339	100
340	300
341	340
342	1381
343	5705
344	1511
345	250
346	30
353	80
354	210
355	60
356	30
357	20
365	10
367	2242
368	681
369	110
370	10
371	10
373	30
374	10
380	20
382	4574
383	1431
384	230
385	30
386	10
415	10
429	10
430	50
431	20
439	20
440	10
443	30
444	40
445	10
457	711
458	270
459	80
460	10
470	40
472	2232
473	881
474	240
475	50
