Mass Spectrum: Cyclopentane, 1,1'-[4-(3-cyclopentylpropyl)-1,7-heptanediyl]bis-
Formula: C25 H46
CAS: 55429-35-1
Molecular weight: 346
m/z	RELATIVE INTENSITY
36	10
37	10
38	20
39	831
40	270
41	8988
42	931
43	1732
44	60
50	10
51	30
52	30
53	561
54	981
55	8868
56	831
57	1191
58	50
61	10
62	10
63	10
64	10
65	100
66	340
67	3763
68	1481
69	8508
70	621
71	490
72	30
74	10
75	10
76	10
77	90
78	30
79	260
80	190
81	1521
82	2752
83	9999
84	711
85	200
86	10
87	10
88	10
89	10
91	50
92	20
93	100
94	180
95	1902
96	681
97	6986
98	540
99	30
100	10
105	10
106	10
107	30
108	70
109	801
110	270
111	2642
112	240
113	20
117	10
119	10
120	10
121	50
122	70
123	581
124	220
125	1121
126	130
127	10
135	40
136	60
137	540
138	180
139	1101
140	130
141	10
149	10
150	30
151	240
152	120
153	510
154	70
155	10
163	10
164	10
165	150
166	40
167	40
168	10
169	10
177	30
178	40
179	120
180	20
181	10
191	10
192	30
193	60
194	10
195	10
206	10
207	80
208	30
209	10
220	10
221	50
222	30
223	10
224	10
234	10
235	1692
236	981
237	140
238	10
249	40
250	20
251	10
252	10
263	10
264	10
277	10
278	10
346	10
347	10
