Mass Spectrum: Tetracosane, 11-decyl-
Formula: C34 H70
CAS: 55429-84-0
Molecular weight: 478
m/z	RELATIVE INTENSITY
36	10
37	10
38	20
39	310
40	80
41	2803
42	781
43	8628
44	300
45	10
49	10
50	10
51	20
52	10
53	110
54	320
55	3043
56	1491
57	9999
58	450
59	10
61	10
62	10
63	10
64	10
65	20
66	30
67	370
68	320
69	2002
70	921
71	6136
72	340
73	10
75	10
76	10
77	20
78	10
79	40
80	30
81	220
82	340
83	1561
84	500
85	4034
86	270
87	10
90	10
91	30
92	10
93	20
94	10
95	120
96	210
97	1181
98	290
99	1401
100	110
101	10
103	10
104	10
105	10
106	10
107	10
108	10
109	50
110	100
111	591
112	190
113	951
114	90
115	10
116	10
117	10
118	10
119	10
120	10
121	10
122	10
123	20
124	70
125	310
126	140
127	691
128	70
129	10
130	10
131	10
132	10
133	10
134	10
135	10
136	10
137	10
138	60
139	170
140	120
141	510
142	60
143	10
144	10
145	10
146	10
147	10
149	10
150	10
151	10
152	50
153	110
154	80
155	390
156	50
157	10
158	10
159	10
165	10
166	40
167	100
168	70
169	310
170	40
171	10
172	10
175	10
179	10
180	30
181	60
182	70
183	250
184	40
185	10
193	10
194	30
195	50
196	40
197	200
198	30
199	10
207	10
208	20
209	40
210	30
211	160
212	30
213	10
221	10
222	20
223	30
224	30
225	130
226	20
227	10
235	10
236	10
237	20
238	20
239	100
240	20
241	10
250	10
251	10
252	20
253	80
254	20
255	10
264	10
265	10
266	30
267	50
268	10
269	10
278	10
279	10
280	20
281	40
282	10
283	10
292	10
293	10
294	220
295	260
296	60
297	10
298	10
306	10
307	10
308	30
309	20
310	10
311	10
322	10
323	10
324	10
325	10
333	10
334	10
335	10
336	270
337	380
338	100
339	10
340	10
350	10
351	10
352	10
364	10
365	10
366	10
378	10
379	10
380	10
392	10
393	10
394	10
406	10
407	10
408	10
420	10
421	10
422	10
