Mass Spectrum: Morphine, 2TMS derivative
Formula: C23 H35 N O3 Si2
CAS: 55449-66-6
Molecular weight: 429
Origin: Drug Lab
m/z	RELATIVE INTENSITY
42	821
43	170
44	911
45	1351
55	130
56	90
57	550
58	370
59	871
70	290
73	9999
74	911
75	1772
77	160
78	150
80	110
81	290
82	270
91	180
94	360
96	320
103	100
105	90
107	90
109	100
115	70
116	100
117	280
118	110
126	90
127	110
128	210
129	140
130	100
131	130
132	90
133	170
134	100
142	50
144	240
146	2933
147	450
148	150
149	100
151	130
152	220
153	90
154	110
157	100
162	250
163	100
164	120
165	540
166	230
167	260
168	100
177	230
179	400
180	140
181	220
186	130
189	110
193	220
194	100
195	140
196	1902
197	480
200	100
201	170
202	110
203	711
205	210
207	330
210	120
212	90
215	290
216	721
217	210
219	250
220	1371
221	480
229	310
230	100
231	110
234	1551
235	180
236	2192
237	1361
238	150
240	90
241	130
242	100
244	90
246	180
247	110
248	200
250	150
253	581
254	120
255	370
256	150
266	530
267	310
269	330
270	290
272	490
280	210
281	260
283	110
284	70
285	160
287	1111
289	120
293	110
295	90
298	90
300	90
312	150
324	460
340	130
356	390
357	140
358	100
371	250
372	150
401	821
414	1011
415	270
416	150
428	330
429	1952
430	711
431	110
