Mass Spectrum: 2,5-Furandicarboxylic acid, 2TMS derivative
Formula: C12 H20 O5 Si2
CAS: 55494-09-2
Molecular weight: 300
Origin: MO-120
m/z	RELATIVE INTENSITY
15	348
17	426
18	1697
28	840
38	409
43	755
44	568
45	1964
47	432
59	595
66	640
71	1609
72	649
73	8665
74	820
75	1702
85	351
95	320
98	414
99	347
133	735
135	921
147	9999
148	1616
149	916
183	313
197	383
211	392
241	576
285	6879
286	1622
287	745
300	447
