Mass Spectrum: Glycine, N-(2-methyl-1-oxobutyl)-, trimethylsilyl ester
Formula: C10 H21 N O3 Si
CAS: 55493-99-7
Molecular weight: 231
Origin: S.MARKEY UNIV OF COLO. MED CENTER,DENCER COL.USA
m/z	RELATIVE INTENSITY
26	120
27	1570
29	2530
30	2040
39	1140
40	90
41	3220
42	830
43	1320
44	710
45	2680
47	1260
49	50
53	210
54	200
55	1160
56	2370
57	4490
58	540
59	500
60	150
61	440
68	400
69	910
70	160
71	310
72	340
73	3860
74	550
75	9999
76	760
77	1070
82	210
84	270
85	2820
86	450
87	170
93	90
97	90
98	290
99	420
102	240
104	50
113	2050
114	150
116	150
117	170
130	50
131	540
132	170
133	60
145	250
146	60
147	710
148	100
149	40
158	530
159	240
172	3120
173	480
174	110
187	160
189	140
203	760
216	1530
217	130
