Mass Spectrum: Pentanedioic acid, 2TMS derivative
Formula: C11 H24 O4 Si2
CAS: 55494-07-0
Molecular weight: 276
Origin: NIST Mass Spectrometry Data Center
m/z	RELATIVE INTENSITY
15	20
26	10
27	80
28	30
29	70
30	10
31	30
39	110
40	30
41	240
42	230
43	611
44	230
45	1451
46	110
47	661
48	30
49	20
51	20
52	10
53	50
55	3623
56	150
57	130
58	310
59	420
60	150
61	550
62	40
63	20
66	30
67	10
68	110
69	210
70	80
71	80
72	871
73	7557
74	981
75	5065
76	390
77	230
78	10
81	10
83	20
85	370
86	60
87	70
88	200
89	130
90	20
91	20
95	30
97	1581
98	120
99	200
100	40
101	440
102	60
103	80
104	10
105	30
109	10
111	30
113	50
114	20
115	210
116	1491
117	741
118	130
119	80
120	10
121	10
123	300
125	10
127	160
129	2272
130	951
131	450
132	130
133	821
134	120
135	80
136	10
142	40
143	250
144	40
145	330
147	9999
148	2432
149	1872
150	220
151	80
152	10
158	3413
159	891
160	210
161	40
162	120
163	60
164	20
165	10
169	10
171	110
172	20
173	20
175	10
186	1081
187	621
188	120
189	280
190	60
191	50
192	10
201	40
203	811
204	1431
205	320
206	120
207	20
217	130
218	30
219	50
220	10
221	10
233	981
234	200
235	90
236	10
245	10
261	5065
262	1141
263	520
264	80
265	10
276	30
277	10
