Mass Spectrum: Pentalene, 1,2,3,3a,4,6a-hexahydro-
Formula: C8 H12
CAS: 5549-09-7
Molecular weight: 108
Origin: D.HENNEBERG, MAX-PLANCK INSTITUTE, MULHEIM, WEST GERMANY
m/z	RELATIVE INTENSITY
27	853
28	351
29	50
38	80
39	2068
40	271
41	1064
50	210
51	622
52	522
53	401
54	140
62	6
63	150
65	752
66	2640
67	2640
68	60
77	2008
78	903
79	9999
80	5993
81	321
91	682
93	2259
94	80
107	80
108	2781
109	140
