Mass Spectrum: Lanosterol, TMS derivative
Formula: C33 H58 O Si
CAS: 55493-84-0
Molecular weight: 498
Origin: BAY 0371
m/z	RELATIVE INTENSITY
51	200
53	400
55	3904
56	400
57	901
59	200
61	200
65	200
67	1702
68	200
69	9999
70	701
71	500
73	5105
74	400
75	3303
76	300
77	500
79	1101
81	2903
82	500
83	1902
84	200
85	200
91	1501
92	200
93	1902
94	300
95	3803
96	500
97	801
103	200
105	1802
106	300
107	1902
108	300
109	4604
110	500
111	601
115	300
117	801
119	2102
120	400
121	2002
122	400
123	1702
124	200
128	200
129	1601
130	300
131	1201
132	300
133	1401
134	400
135	1902
136	500
137	801
141	200
142	200
143	801
144	300
145	1301
146	300
147	1301
148	300
149	1201
150	200
151	300
155	200
156	200
157	901
158	200
159	1101
160	400
161	1201
162	200
163	701
165	300
169	300
171	701
172	200
173	1101
174	300
175	1001
176	200
177	300
183	300
185	500
186	200
187	1401
188	300
189	1301
190	400
191	601
197	300
199	500
201	701
202	200
203	701
205	300
211	300
213	601
214	400
215	1101
216	200
217	300
225	300
227	1201
228	300
229	1001
231	200
239	200
241	1201
242	300
243	601
253	200
255	901
256	200
257	400
269	400
271	400
272	200
283	400
297	200
309	200
311	500
323	200
393	8408
394	2803
395	601
483	2402
484	1001
485	300
498	1802
499	701
