Mass Spectrum: Decanoic acid, TMS derivative
Formula: C13 H28 O2 Si
CAS: 55494-15-0
Molecular weight: 244
Origin: NIST Mass Spectrometry Data Center
m/z	RELATIVE INTENSITY
15	10
26	20
27	270
28	90
29	581
30	20
31	20
39	310
40	70
41	1491
42	350
43	1361
44	180
45	941
46	70
47	520
48	30
49	20
50	10
51	20
52	10
53	170
54	110
55	1892
56	320
57	460
58	290
59	390
60	160
61	781
62	50
63	30
65	30
66	10
67	350
68	70
69	751
70	140
71	170
72	490
73	9849
74	1131
75	9469
76	701
77	430
78	20
79	80
81	561
82	60
83	250
84	190
85	220
86	140
87	110
88	100
89	210
90	50
91	70
92	10
93	80
94	10
95	561
96	50
97	230
98	280
99	250
100	40
101	210
102	40
103	50
105	310
106	30
107	40
108	10
109	30
110	20
111	130
112	100
113	40
114	10
115	110
116	721
117	9909
118	971
119	420
120	20
121	10
123	10
125	60
126	50
127	50
129	4364
130	581
131	2292
132	3743
133	571
134	170
135	50
136	10
137	10
139	10
141	20
142	20
143	380
145	1952
146	240
147	90
148	10
153	20
154	20
155	50
156	10
157	140
158	20
159	310
160	40
161	20
169	10
171	140
172	20
173	60
174	30
175	10
185	520
186	90
187	190
188	30
189	10
199	50
201	540
202	90
203	30
215	100
216	10
227	20
229	9999
230	1772
231	480
232	60
243	30
244	220
245	50
246	10
