Mass Spectrum: Hexanoylglycine, TMS derivative
Formula: C11 H23 N O3 Si
CAS: 55494-05-8
Molecular weight: 245
Origin: S. MARKEY UNIV. OF COLO. MED. CTR., DENVER, COLORADO, USA
m/z	RELATIVE INTENSITY
39	370
41	1880
42	600
43	5490
44	810
45	1890
47	570
55	1380
56	520
58	430
59	110
61	530
69	220
71	2330
72	600
73	9999
74	910
75	4360
77	110
87	230
88	130
99	3060
102	510
104	520
116	130
129	100
130	760
131	290
132	380
145	1580
147	230
148	150
158	5480
159	1190
172	2450
173	360
186	180
189	2000
190	80
230	2780
231	230
