Mass Spectrum: Trimyristin
Formula: C45 H86 O6
CAS: 555-45-3
Molecular weight: 722
Origin: R.T.HOLMAN,UNIVERSITY OF MINNESOTA
m/z	RELATIVE INTENSITY
26	60
27	800
28	250
29	1600
30	60
31	100
38	20
39	400
40	100
41	4000
42	920
43	8400
44	280
45	260
46	10
47	10
50	10
51	20
52	10
53	180
54	440
55	5800
56	1200
57	9999
58	480
59	220
60	3200
61	760
62	30
63	10
65	20
66	40
67	1000
68	490
69	3600
70	800
71	5000
72	310
73	3760
74	420
75	60
76	10
77	40
78	20
79	210
80	110
81	1160
82	460
83	2280
84	1680
85	3000
86	230
87	640
88	80
89	20
90	10
91	40
92	20
93	210
94	100
95	1480
96	400
97	1800
98	2800
99	680
100	260
101	300
102	90
103	20
104	10
105	40
106	10
107	170
108	60
109	880
110	230
111	1120
112	880
113	480
114	80
115	410
116	470
117	190
118	20
119	20
120	20
121	220
122	40
123	430
124	130
125	310
126	220
127	210
128	40
129	1440
130	150
131	20
132	10
133	20
134	20
135	160
136	30
137	200
138	100
139	140
140	120
141	80
142	30
143	260
144	30
145	10
147	10
148	10
149	70
150	20
151	70
152	30
153	80
154	140
155	60
156	20
157	110
158	1080
159	150
160	20
161	10
162	10
163	30
164	20
165	20
166	140
167	90
168	100
169	80
170	80
171	1760
172	260
173	40
174	10
175	10
176	10
177	10
178	10
179	20
180	20
181	40
182	20
183	340
184	70
185	880
186	140
187	30
188	10
189	10
190	10
191	70
192	40
193	60
194	20
195	20
196	10
197	90
198	20
199	200
200	60
201	10
202	10
203	10
204	10
205	10
206	10
207	10
208	60
209	130
210	360
211	7600
212	1120
213	360
214	70
215	20
216	10
217	10
218	10
219	10
220	10
221	10
222	10
223	20
224	30
225	100
226	40
227	680
228	370
229	110
230	10
231	10
232	10
233	10
234	10
235	10
236	10
237	20
238	10
239	110
240	20
241	240
242	60
243	20
251	10
252	140
253	140
254	30
255	160
256	40
257	10
260	10
261	10
262	10
263	10
264	10
265	20
266	40
267	70
268	40
269	220
270	50
271	70
272	10
273	10
279	10
280	40
281	50
282	40
283	640
284	280
285	3040
286	590
287	90
288	10
293	10
294	10
295	40
296	20
297	180
298	40
299	10
301	10
302	10
303	110
304	20
307	10
308	10
309	30
310	20
311	140
312	30
313	30
314	10
321	10
322	10
323	20
324	10
325	40
326	1080
327	680
328	140
329	30
337	50
338	30
339	6800
340	1480
341	220
342	30
343	10
344	10
345	30
346	10
351	20
352	20
353	450
354	120
355	20
356	10
357	10
364	10
365	30
366	10
367	120
368	60
369	20
371	10
379	10
380	10
381	680
382	210
383	40
384	10
386	10
391	10
392	10
393	20
394	10
395	1800
396	580
397	110
398	20
399	10
407	10
408	10
409	400
410	140
411	40
412	10
413	10
414	10
419	10
420	20
421	20
422	10
423	230
424	90
425	20
426	10
427	10
428	10
435	10
436	10
437	300
438	100
439	20
440	10
441	10
442	10
449	10
450	10
451	920
452	310
453	60
454	10
455	10
456	10
463	10
464	10
465	290
466	120
467	30
468	10
469	10
479	40
480	20
481	60
482	40
483	10
484	10
491	10
492	20
493	190
494	1040
495	2800
496	920
497	180
498	30
499	10
513	10
514	10
536	80
537	30
538	10
539	40
540	20
549	10
550	10
554	20
555	10
564	20
565	10
578	10
592	10
606	10
620	10
634	10
648	10
649	10
704	10
705	10
722	14
