Mass Spectrum: 5-Nitro-2-furaldoxime
Formula: C5 H4 N2 O4
CAS: 555-15-7
Molecular weight: 156
Origin: NIST Mass Spectrometry Data Center
m/z	RELATIVE INTENSITY
12	20
13	30
14	10
15	90
16	140
17	100
18	380
24	30
25	190
26	1061
27	1641
28	440
29	831
30	3733
31	40
32	40
36	220
37	2602
38	5295
39	1722
40	310
41	440
42	290
43	821
44	2602
45	360
46	350
48	40
49	300
50	1732
51	4734
52	2432
53	971
54	2062
55	2122
56	120
57	40
61	10
62	170
63	540
64	2072
65	1131
66	260
67	230
68	801
69	280
70	190
71	1321
72	2412
73	70
74	20
75	10
77	60
78	80
79	3863
80	1101
81	310
82	1421
83	150
84	10
85	80
91	30
92	40
93	540
94	180
95	30
96	1922
97	180
98	470
99	1902
100	80
106	40
108	470
109	190
110	320
111	50
122	40
123	20
124	20
126	9999
127	591
128	80
138	520
139	160
140	540
141	40
156	8207
157	510
158	70
