Mass Spectrum: Hydrazine, (phenylmethyl)-
Formula: C7 H10 N2
CAS: 555-96-4
Molecular weight: 122
Origin: Japan AIST/NIMC Database- Spectrum MS-IW-1751
m/z	RELATIVE INTENSITY
26	10
27	50
28	229
29	30
30	30
31	149
32	10
39	349
40	30
41	99
42	10
43	159
44	70
45	149
49	10
50	189
51	439
52	119
53	20
61	20
62	70
63	229
64	50
65	1149
66	80
73	10
74	50
75	40
76	70
77	509
78	169
79	80
86	10
87	10
89	189
90	80
91	9999
92	1509
93	289
94	30
103	20
104	199
105	40
106	119
107	70
119	30
120	50
121	80
122	3709
123	319
124	10
