Mass Spectrum: .beta.-Phellandrene
Formula: C10 H16
CAS: 555-10-2
Molecular weight: 136
m/z	RELATIVE INTENSITY
27	591
28	90
29	170
39	801
40	130
41	1101
42	60
43	550
50	70
51	300
52	150
53	360
54	50
55	150
63	130
64	70
65	500
66	130
67	150
69	500
77	2742
78	540
79	1682
80	891
81	130
89	150
90	50
91	2472
92	831
93	9999
94	1511
95	110
103	60
105	140
107	180
108	80
119	110
121	520
136	1772
137	200
