Mass Spectrum: Tris(2-chloroethyl)amine
Formula: C6 H12 Cl3 N
CAS: 555-77-1
Molecular weight: 203
Origin: VERIFINN
m/z	RELATIVE INTENSITY
27	2292
28	811
29	200
30	300
41	330
42	1591
43	260
44	130
49	170
54	200
55	170
56	2492
57	270
63	4234
64	130
65	1341
70	330
76	50
78	80
84	70
90	190
91	80
92	1101
93	60
94	340
104	80
106	120
118	140
120	50
126	270
128	170
140	50
154	9999
155	540
156	6506
157	350
158	1061
168	350
170	220
172	50
203	120
205	120
