Mass Spectrum: Benzeneacetonitrile, 4-nitro-
Formula: C8 H6 N2 O2
CAS: 555-21-5
Molecular weight: 162
Origin: Japan AIST/NIMC Database- Spectrum MS-NW-1720
m/z	RELATIVE INTENSITY
14	30
15	10
16	30
25	10
26	129
27	219
28	40
29	10
30	1919
31	30
32	30
36	10
37	329
38	619
39	1909
40	169
41	109
42	10
43	50
44	149
46	149
48	20
49	139
50	1949
51	1229
52	319
53	50
54	10
60	30
61	389
62	1099
63	2969
64	799
65	539
66	159
69	10
73	99
74	599
75	589
76	689
77	1869
78	359
79	20
80	10
84	20
85	99
86	199
87	359
88	669
89	8729
90	1649
91	109
92	70
98	20
99	20
100	20
101	10
102	159
103	149
104	2249
105	239
106	40
107	10
108	30
110	10
111	30
112	20
114	349
115	369
116	9999
117	939
118	40
130	10
131	40
132	2539
133	229
134	10
145	30
146	179
147	10
162	6459
163	609
164	50
