Mass Spectrum: Neburon
Formula: C12 H16 Cl2 N2 O
CAS: 555-37-3
Molecular weight: 274
Origin: S.I.M. SKINNER & R. GREENHALGH, CHEMISTRY & BIOLOGY RESEARCH INST., AGRICULTURE, CANADA
m/z	RELATIVE INTENSITY
36	546
37	156
38	351
39	859
40	390
41	5546
42	2539
43	1367
44	8515
45	234
49	117
50	156
51	156
52	117
53	117
54	117
55	468
56	859
57	9999
58	4296
59	117
60	39
61	117
62	312
63	468
64	156
65	78
66	39
68	39
69	39
70	117
71	39
72	234
73	273
74	195
75	312
76	78
77	117
78	39
80	78
83	78
84	117
85	78
86	195
87	468
88	156
89	78
90	312
91	39
97	156
98	39
99	156
100	39
101	39
107	39
109	234
110	78
111	78
112	78
113	117
114	5781
115	468
116	78
124	429
125	1250
126	226
127	109
128	39
129	15
131	7
132	187
133	62
134	171
135	31
136	31
137	7
138	23
139	15
140	31
141	7
145	109
146	15
147	78
148	7
149	31
151	39
152	15
153	46
154	15
155	23
156	7
157	7
158	7
159	125
160	203
161	382
162	140
163	187
164	31
165	31
166	7
167	15
168	23
169	7
174	39
175	7
176	23
177	7
178	7
180	7
181	23
182	39
183	23
184	23
185	7
186	15
187	312
188	78
189	226
190	46
191	39
192	15
194	7
195	15
196	15
197	7
198	7
200	23
201	7
202	23
203	7
204	15
207	7
215	7
216	7
217	23
218	23
219	15
220	7
221	7
223	7
231	93
232	31
233	62
234	15
235	15
238	7
239	15
240	7
241	7
242	7
245	7
273	15
274	671
275	109
276	390
277	62
278	70
