Mass Spectrum: 3,24-Bis[(trimethylsilyl)oxy]cholest-5-ene, (3.beta.,24R)-
Formula: C33 H62 O2 Si2
CAS: 55517-69-6
Molecular weight: 546
Origin: BROOKS/HORNING, INST. LIPID RES., BAYLOR U.C., HOUSTON TEXAS
m/z	RELATIVE INTENSITY
60	1600
73	500
75	750
81	600
83	600
95	600
103	400
107	450
109	450
111	750
119	500
121	700
123	300
129	3200
130	500
131	400
133	700
135	400
143	400
145	9999
146	1400
147	1000
159	4800
160	1000
161	600
189	400
213	400
243	700
245	400
253	400
255	450
257	320
281	400
296	720
323	1600
324	450
327	1900
328	500
343	240
351	420
352	120
365	240
366	340
367	120
371	180
386	1300
387	460
413	8000
414	2900
415	800
416	500
417	300
441	460
442	180
456	1200
457	500
458	160
503	2400
504	1000
505	400
531	200
532	100
546	650
547	300
