Mass Spectrum: Mannonic acid, .gamma.-lactone, 4TMS derivavative
Formula: C18 H42 O6 Si4
CAS: 55515-30-5
Molecular weight: 466
m/z	RELATIVE INTENSITY
41	100
43	100
44	200
45	601
55	100
59	300
69	100
72	200
73	9999
74	801
75	801
81	200
89	100
101	100
102	100
103	1001
104	100
116	100
117	400
129	601
130	100
131	300
133	601
143	200
147	2502
148	400
149	300
157	100
189	601
190	100
191	200
197	100
204	601
205	601
206	100
217	5905
218	1201
219	701
220	100
221	100
229	100
230	200
231	300
243	300
245	200
271	100
292	100
305	300
307	100
317	100
322	100
332	100
333	300
334	100
335	300
348	80
349	30
350	10
351	10
360	20
361	320
362	100
363	120
364	20
365	20
376	10
423	20
424	10
451	120
452	50
453	20
454	10
466	170
467	70
468	40
469	10
