Mass Spectrum: Pentaric acid, 2,3-dideoxy-4-O-(trimethylsilyl)-3-[[(trimethylsilyl)oxy]carbonyl]-, bis(trimethylsilyl) ester
Formula: C18 H40 O7 Si4
CAS: 55517-57-2
Molecular weight: 480
Origin: M.G.HORNING,INST.FOR LIPID RES,BAYLOR COLL.OF MED,HOUSTON,TEX
m/z	RELATIVE INTENSITY
43	200
44	300
45	1100
46	100
47	150
55	550
58	100
59	200
61	100
67	150
72	350
73	9999
74	850
75	1400
76	100
83	400
95	150
113	100
116	150
117	200
129	400
131	250
133	500
134	100
143	250
147	4150
148	650
149	600
150	100
157	150
161	100
191	200
203	100
204	450
205	150
207	100
211	250
213	100
217	300
219	100
221	250
245	1900
246	400
247	150
259	100
272	100
273	3250
274	650
275	300
285	200
303	100
305	300
306	100
318	100
319	850
320	250
321	150
347	550
348	150
349	100
363	750
364	200
365	150
375	900
376	250
377	150
390	100
465	850
466	350
467	200
480	100
