Mass Spectrum: Benzoic acid, 5-methoxy-2-[(trimethylsilyl)oxy]-, trimethylsilyl ester
Formula: C14 H24 O4 Si2
CAS: 55517-47-0
Molecular weight: 312
Origin: S. MARKEY UNIV. OF COLO. MED. CTR., DENVER, COLORADO, USA
m/z	RELATIVE INTENSITY
40	1740
41	80
44	400
45	500
69	270
73	4180
74	390
75	390
121	80
137	80
147	250
149	340
150	320
165	370
180	440
209	300
223	400
224	260
239	270
296	140
297	9999
298	2630
299	900
312	360
