Mass Spectrum: Heptadecanoic acid, TMS derivative
Formula: C20 H42 O2 Si
CAS: 55517-58-3
Molecular weight: 342
Origin: O A MAMER, MCGILL UNIVERSITY, MONTREid, trimet
m/z	RELATIVE INTENSITY
14	77
15	174
18	119
26	145
27	550
28	425
29	1437
32	88
39	327
40	105
41	2574
42	599
43	3820
44	208
45	658
47	342
52	142
53	162
54	213
55	2637
56	554
57	1523
58	225
59	301
60	106
61	513
67	496
68	175
69	1188
70	254
71	434
72	322
73	9999
74	1002
75	6975
76	510
77	348
79	284
81	473
82	134
83	665
84	297
85	225
86	79
87	81
89	253
91	93
93	133
95	408
96	113
97	455
98	367
99	158
101	109
105	197
109	158
111	199
112	126
116	536
117	7126
118	709
119	322
121	94
129	2861
130	401
131	898
132	4846
133	892
134	260
135	87
143	202
145	2963
146	398
147	199
154	49
159	240
171	153
172	53
173	74
185	193
187	346
188	98
201	470
202	101
213	65
227	80
257	93
283	237
284	65
299	219
300	71
311	77
327	4143
328	1124
329	328
330	69
342	665
343	191
344	68
