Mass Spectrum: Glycine, N-(2-methyl-1-oxo-2-butenyl)-, trimethylsilyl ester, (E)-
Formula: C10 H19 N O3 Si
CAS: 55517-35-6
Molecular weight: 229
Origin: NIST Mass Spectrometry Data Center
m/z	RELATIVE INTENSITY
15	20
26	20
27	330
28	180
29	641
30	130
31	20
38	20
39	591
40	70
41	120
42	120
43	340
44	170
45	951
46	70
47	440
48	20
49	20
50	50
51	110
52	80
53	751
54	751
55	5365
56	450
57	100
58	400
59	360
60	110
61	400
62	30
63	20
64	10
65	20
66	20
67	100
68	60
69	150
70	60
71	40
72	340
73	7327
74	741
75	2392
76	180
77	140
79	10
80	80
81	80
82	791
83	9999
84	641
85	70
86	170
87	180
88	260
89	50
90	10
91	10
92	10
93	10
94	110
95	50
96	220
97	50
98	50
100	110
101	110
102	260
103	40
104	40
105	10
107	30
108	10
109	20
110	210
111	220
112	561
113	150
114	30
115	20
116	140
117	80
118	20
123	10
124	20
125	20
126	100
127	60
128	30
129	20
130	100
131	40
132	20
139	450
140	80
141	310
142	260
143	60
144	20
145	10
146	30
147	10
148	10
152	20
153	10
154	821
155	260
156	240
157	120
158	30
159	10
166	20
167	10
168	90
170	9799
171	1461
172	450
173	40
174	20
182	10
183	10
184	230
185	150
186	30
187	10
211	10
212	10
214	1311
215	200
216	60
217	10
229	821
230	140
231	40
