Mass Spectrum: Benzene, 1,4-dihexadecyl-
Formula: C38 H70
CAS: 55517-88-9
Molecular weight: 526
m/z	RELATIVE INTENSITY
39	400
40	90
41	2732
42	661
43	6996
44	250
50	30
51	40
52	30
53	130
54	150
55	1922
56	591
57	4134
58	200
63	20
64	20
65	40
66	30
67	210
68	110
69	911
70	280
71	1581
72	100
77	90
78	80
79	110
80	40
81	140
82	90
83	510
84	140
85	851
86	60
89	20
90	20
91	1641
92	380
93	90
94	40
95	80
96	60
97	270
98	80
99	140
100	20
101	20
102	20
103	80
104	1902
105	9999
106	1241
107	110
108	20
109	30
110	40
111	100
112	40
113	90
114	10
115	80
116	60
117	1161
118	420
119	881
120	140
121	30
122	10
123	10
124	10
125	30
126	40
127	60
128	40
129	90
130	100
131	561
132	120
133	200
134	30
135	10
136	10
137	10
138	10
139	20
140	20
141	60
142	20
143	40
144	40
145	250
146	60
147	120
148	30
153	10
154	20
155	40
156	10
157	10
159	100
160	40
161	60
162	10
165	10
166	10
167	20
168	20
169	30
170	10
171	10
172	20
173	70
174	20
175	50
176	10
179	10
180	10
181	10
182	20
183	30
187	30
188	20
189	40
190	20
196	10
197	20
200	10
201	20
202	20
203	50
204	20
210	10
211	10
215	20
216	10
217	20
218	10
224	10
225	10
229	10
231	20
238	10
239	10
243	10
244	10
245	10
253	10
257	10
258	10
259	10
267	10
301	10
302	20
313	10
314	20
315	250
316	290
317	70
318	10
328	40
329	30
330	30
331	10
341	10
342	20
343	40
344	40
345	10
355	10
356	20
357	40
358	10
498	20
499	10
512	80
513	30
524	80
526	3904
527	1692
528	370
529	70
