Mass Spectrum: Glycine, N-(trimethylsilyl)-N-[4-[(trimethylsilyl)oxy]benzoyl]-, trimethylsilyl ester
Formula: C18 H33 N O4 Si3
CAS: 55517-55-0
Molecular weight: 411
Origin: S. MARKEY UNIV. OF COLO. MED. CTR., DENVER, COLORADO, USA
m/z	RELATIVE INTENSITY
73	5840
74	470
75	2710
76	150
77	390
91	170
121	150
133	140
135	320
147	700
149	290
150	250
176	180
177	140
179	340
191	240
192	320
193	9999
194	1610
195	460
205	110
223	110
249	170
265	330
266	590
267	290
292	160
293	650
294	3170
295	820
296	300
321	520
322	150
324	260
339	380
396	940
397	330
398	150
410	220
411	810
412	290
413	110
