Mass Spectrum: Gulonic acid, .gamma.-lactone, 4TMS derivavative
Formula: C18 H42 O6 Si4
CAS: 55528-75-1
Molecular weight: 466
Origin: G. Peterson, Chalmers Univ. of Tech., Gothenburg, Sweden
m/z	RELATIVE INTENSITY
41	100
44	200
45	701
55	100
59	300
72	200
73	9999
74	901
75	901
81	500
89	100
101	200
103	1501
104	200
116	100
117	500
129	701
130	100
131	300
133	701
134	100
135	100
143	200
147	2502
148	500
149	400
157	200
189	1101
190	300
191	400
193	100
203	200
204	1301
205	1301
206	400
207	200
215	100
217	2502
218	601
219	1301
220	300
221	200
229	200
230	200
231	200
243	601
244	100
245	200
246	200
271	200
291	100
292	100
305	601
306	100
307	100
317	100
318	200
319	200
331	100
332	300
333	801
334	500
335	500
336	200
348	220
349	70
350	40
360	30
361	711
362	220
363	230
364	60
365	50
376	50
377	20
378	20
393	40
394	20
423	60
424	30
425	20
451	210
452	90
453	40
466	981
467	380
468	230
469	60
470	30
