Mass Spectrum: Galactonic acid, .gamma.-lactone, 4TMS derivavative
Formula: C18 H42 O6 Si4
CAS: 55528-74-0
Molecular weight: 466
Origin: B.R. PETTIT, QUEEN CHARLOTTE'S MAT. HOSP., LONDON, U.K.
m/z	RELATIVE INTENSITY
45	440
59	230
72	150
73	9999
74	770
75	460
81	210
88	50
89	80
99	80
101	110
102	50
103	2800
104	170
105	80
116	100
117	740
118	80
119	50
127	80
129	390
130	60
131	220
133	640
134	110
135	90
141	50
142	60
143	300
144	60
147	3070
148	490
153	50
155	190
156	50
159	70
169	110
171	110
173	50
175	90
177	50
189	1970
190	350
191	300
192	80
193	110
197	130
203	170
204	1020
205	2630
206	560
215	100
216	60
217	9340
218	1830
219	1950
220	100
227	190
230	210
231	170
232	70
233	110
243	550
244	450
245	580
246	200
247	70
259	140
260	50
261	80
262	130
271	420
272	110
273	80
277	120
278	50
291	190
292	270
293	80
304	70
305	1370
306	390
307	430
308	100
309	50
317	150
318	160
322	70
331	110
332	100
333	910
334	1290
335	1160
336	410
337	150
348	330
349	100
350	50
354	30
361	770
362	240
363	210
364	50
369	30
393	110
394	30
423	50
451	270
452	100
453	50
466	710
467	270
468	150
469	40
