Mass Spectrum: N-Isovalerylglycine, 2TMS derivative
Formula: C13 H29 N O3 Si2
CAS: 55520-90-6
Molecular weight: 303
Origin: ORVAL A. MAMER, ROYAL VICTORIA HOSPITAL, MONTREAL, CANADA
m/z	RELATIVE INTENSITY
15	127
27	354
28	374
29	653
30	327
31	100
39	232
41	1212
42	255
43	895
44	422
45	1901
46	138
47	384
53	84
54	339
55	589
56	256
57	2016
58	334
59	841
60	116
61	272
68	69
69	288
70	98
71	112
72	472
73	9999
74	961
75	2239
76	168
77	104
82	262
83	132
84	64
85	871
86	510
87	141
88	116
96	115
98	74
99	196
100	1030
101	501
102	4961
103	568
104	255
114	72
115	102
116	1111
117	286
118	79
119	66
124	80
128	66
129	244
130	1882
131	644
132	211
133	434
134	71
137	69
142	73
143	423
144	288
145	151
147	2074
148	361
149	219
156	149
157	116
158	212
170	543
171	1210
172	460
173	152
174	152
176	1381
177	250
178	120
186	1717
187	294
188	143
189	129
198	265
204	164
205	79
213	178
214	102
216	148
218	280
219	98
246	127
261	1172
262	275
263	120
288	2335
289	581
290	244
303	370
