Mass Spectrum: Palmitic Acid, TMS derivative
Formula: C19 H40 O2 Si
CAS: 55520-89-3
Molecular weight: 328
Origin: NIST Mass Spectrometry Data Center
m/z	RELATIVE INTENSITY
15	10
26	10
27	190
28	60
29	641
30	10
31	20
39	240
40	60
41	2072
42	470
43	3043
44	200
45	631
46	40
47	300
48	20
49	10
51	10
52	10
53	150
54	190
55	2973
56	581
57	1511
58	260
59	320
60	110
61	550
62	30
63	20
65	30
66	10
67	430
68	120
69	1001
70	210
71	340
72	350
73	8608
74	911
75	6706
76	490
77	320
78	20
79	130
80	20
81	430
82	100
83	651
84	260
85	250
86	90
87	90
88	70
89	260
90	40
91	80
92	10
93	120
94	20
95	430
96	80
97	460
98	360
99	220
100	30
101	130
102	20
103	40
105	210
106	20
107	70
108	10
109	140
110	40
111	230
112	130
113	200
114	30
115	90
116	671
117	9999
118	1001
119	430
120	20
121	70
122	10
123	40
124	10
125	60
126	30
127	110
129	4674
130	611
131	1341
132	4994
133	961
134	250
135	80
136	10
137	10
138	10
139	30
140	20
141	30
142	20
143	320
145	3153
146	400
147	140
148	10
149	30
151	10
152	10
153	20
154	40
155	30
156	10
157	80
158	20
159	230
160	40
161	10
163	10
167	20
168	10
169	10
171	220
172	30
173	90
174	60
175	10
177	10
181	20
182	30
183	10
185	300
186	50
187	260
188	70
189	20
190	10
191	10
194	10
195	30
196	10
199	190
200	30
201	561
202	90
203	50
204	10
209	10
210	10
213	80
214	20
215	100
216	40
217	10
219	10
227	90
228	20
229	90
230	20
231	30
239	10
241	50
242	10
243	110
244	20
245	10
255	40
256	10
257	70
258	10
269	330
270	70
271	60
272	10
283	50
284	10
285	310
286	70
287	20
299	80
300	20
301	10
310	10
311	20
313	6896
314	1682
315	450
316	70
317	10
327	30
328	611
329	150
330	40
331	10
