Mass Spectrum: 3-Methyladipic acid, 2TMS derivative
Formula: C13 H28 O4 Si2
CAS: 55520-93-9
Molecular weight: 304
Origin: NIST Mass Spectrometry Data Center
m/z	RELATIVE INTENSITY
15	20
26	10
27	70
28	50
29	160
30	10
31	30
39	130
40	30
41	561
42	170
43	520
44	240
45	1471
46	110
47	681
48	30
49	20
51	20
52	10
53	140
54	70
55	2242
56	260
57	130
58	310
59	490
60	150
61	651
62	40
63	30
65	20
66	20
67	100
69	3113
70	260
71	80
72	460
73	9999
74	1051
75	7307
76	530
77	340
78	20
79	90
80	20
81	420
82	160
83	691
84	50
85	160
86	130
87	70
88	80
89	110
90	20
91	30
93	10
95	80
96	100
97	1621
98	120
99	270
100	40
101	180
102	30
103	60
104	10
105	20
107	20
109	50
110	10
111	50
112	40
113	250
114	40
115	110
116	320
117	2022
118	210
119	120
120	10
123	20
125	5295
126	430
127	70
129	1591
130	260
131	280
132	140
133	530
134	80
135	60
137	190
139	30
141	20
142	200
143	581
144	110
145	260
147	3523
148	571
149	691
150	90
151	40
152	10
153	10
155	2142
156	360
157	440
158	90
159	260
160	190
161	30
162	20
163	10
168	20
169	60
170	40
171	410
172	190
173	2302
174	330
175	110
176	10
186	1421
187	250
188	70
189	30
190	20
191	10
197	10
199	460
200	70
201	30
203	30
204	741
205	150
206	60
207	10
213	10
214	70
215	100
217	480
218	130
219	60
220	10
229	30
230	10
231	240
232	90
233	30
234	10
243	30
244	10
245	150
246	30
247	20
261	50
262	10
263	10
271	10
289	1832
290	450
291	190
292	30
293	10
304	10
