Mass Spectrum: Altronic acid, .gamma.-lactone, 4TMS derivavative
Formula: C18 H42 O6 Si4
CAS: 55528-73-9
Molecular weight: 466
m/z	RELATIVE INTENSITY
31	100
43	100
44	200
45	701
59	300
72	200
73	9999
74	901
75	1101
81	200
101	100
103	1201
104	100
117	601
129	701
130	200
131	200
133	500
143	200
147	2302
148	300
149	300
189	601
190	100
191	300
193	100
203	100
204	701
205	1101
206	300
207	100
217	4404
218	901
219	701
220	200
221	100
229	100
230	200
231	200
243	300
244	300
245	200
271	100
292	100
305	300
307	100
333	300
334	300
335	300
348	120
349	40
350	20
361	280
362	90
363	70
364	20
393	20
423	20
424	10
451	40
452	20
453	10
466	370
467	170
468	90
469	20
470	10
