Mass Spectrum: Cyclohexane, 1-(1-tetradecylpentadecyl)-
Formula: C35 H70
CAS: 55521-27-2
Molecular weight: 490
Origin: CONTINENTAL OIL CO., PONCA CITY, OKLA, USA
m/z	RELATIVE INTENSITY
13	27
14	63
15	151
16	73
24	12
25	32
26	179
27	1149
28	551
29	2564
30	69
36	12
37	46
38	72
39	747
40	190
41	5040
42	1140
43	9528
44	482
45	16
48	11
49	13
50	48
51	68
52	41
53	272
54	949
55	7996
56	2211
57	9999
58	446
59	14
61	10
62	12
63	20
64	18
65	62
66	114
67	2152
68	816
69	4125
70	1385
71	5712
72	319
73	18
74	11
75	12
76	16
77	83
78	59
79	195
80	128
81	1140
82	7446
83	7722
84	1102
85	3772
86	252
87	8
88	3
89	8
90	6
91	214
92	39
93	83
94	58
95	684
96	1039
97	3554
98	541
99	693
100	55
101	5
102	4
103	12
104	30
105	121
106	26
107	36
108	39
109	463
110	230
111	1528
112	319
113	459
114	41
115	17
116	8
117	32
118	25
119	30
120	9
121	21
122	25
123	126
124	140
125	684
126	194
127	331
128	42
129	15
130	8
131	17
132	8
133	18
134	5
135	17
136	11
137	61
138	80
139	303
140	126
141	246
142	30
143	8
144	3
145	16
146	4
147	13
148	4
149	9
150	8
151	32
152	63
153	193
154	101
155	187
156	25
157	4
158	2
159	6
160	3
161	9
162	3
163	4
164	4
165	19
166	44
167	151
168	90
169	157
170	25
171	5
173	3
175	8
176	3
177	4
178	5
179	15
180	43
181	123
182	78
183	128
184	19
185	3
187	3
189	6
190	3
191	5
192	8
193	15
194	58
195	117
196	80
197	128
198	23
199	4
200	4
201	3
202	6
203	5
204	3
205	3
206	3
207	15
208	53
209	108
210	68
211	117
212	19
215	4
217	5
219	3
220	4
221	12
222	46
223	88
224	60
225	77
226	14
229	2
231	4
233	2
235	11
236	46
237	76
238	53
239	69
240	15
245	3
249	10
250	49
251	59
252	38
253	59
254	13
258	3
260	9
261	3
264	112
265	117
266	44
267	54
268	12
274	5
278	90
279	121
280	44
281	55
282	13
285	3
286	3
287	13
288	8
289	8
290	11
291	31
292	1572
293	2328
294	498
295	92
296	13
303	5
304	5
305	16
306	93
307	112
308	41
309	46
310	11
317	2
320	35
321	45
322	31
323	45
324	12
333	8
334	24
335	25
336	17
337	35
338	10
348	15
349	19
350	52
351	58
352	19
362	9
363	13
364	13
365	19
376	8
378	80
379	40
390	3
392	13
393	14
404	25
406	1700
407	1582
408	423
409	60
420	19
421	19
434	8
435	8
488	16
489	10
490	8
