Mass Spectrum: m-Methoxymandelic acid, 2TMS derivative
Formula: C15 H26 O4 Si2
CAS: 55530-67-1
Molecular weight: 326
Origin: MO-40
m/z	RELATIVE INTENSITY
15	110
18	290
28	261
29	102
43	329
44	286
45	1384
46	106
47	144
51	117
58	126
59	283
72	160
73	9907
74	878
75	867
76	107
77	278
89	133
91	252
92	112
105	138
107	100
119	122
131	137
133	328
134	159
135	336
141	252
147	2113
148	508
149	312
151	117
163	365
178	330
179	376
193	245
194	154
209	9999
210	1782
211	547
267	303
283	737
284	195
311	231
326	122
