Mass Spectrum: Phenylpyruvic acid oxime, 2TMS derivative
Formula: C15 H25 N O3 Si2
CAS: 55530-64-8
Molecular weight: 323
Origin: O A MAMER, MCGILL UNIVERSITY, MONTRE
m/z	RELATIVE INTENSITY
1	77
14	104
27	55
28	64
29	83
31	66
39	111
41	54
43	296
44	180
45	874
46	67
47	213
51	81
57	64
58	135
59	541
60	69
61	88
63	71
65	272
72	119
73	9999
74	918
75	998
76	89
77	96
84	154
89	376
90	178
91	1102
92	99
103	67
116	237
117	245
131	97
133	176
135	53
146	83
147	844
148	161
149	95
163	75
174	83
189	611
190	154
191	60
206	133
279	165
281	50
308	462
309	130
310	55
323	169
324	52
