Mass Spectrum: Pentanedioic acid, 2-[(trimethylsilyl)oxy]-, bis(trimethylsilyl) ester
Formula: C14 H32 O5 Si3
CAS: 55530-62-6
Molecular weight: 364
Origin: MO-22
m/z	RELATIVE INTENSITY
15	125
27	127
28	313
29	246
41	312
43	516
44	389
45	1728
46	141
47	358
55	522
56	138
57	206
58	199
59	578
61	264
69	182
72	625
73	9999
74	949
75	2681
76	203
77	122
85	1204
88	102
95	126
101	279
115	270
116	539
117	242
129	6922
130	882
131	634
133	872
134	140
147	4044
148	673
149	1076
150	163
157	1141
158	172
159	279
163	126
187	213
189	69
203	1330
204	482
205	188
218	144
221	101
231	436
232	102
247	3509
248	780
249	342
321	117
349	950
350	304
351	158
