Mass Spectrum: 2,2-Dimethylsuccinic acid, 2TMS derivative
Formula: C12 H26 O4 Si2
CAS: 55530-54-6
Molecular weight: 290
Origin: ORVAL A. MAMER, ROYAL VICTORIA HOSPITAL, MONTREAL, CANADA
m/z	RELATIVE INTENSITY
15	154
17	98
18	383
26	56
27	149
28	406
29	268
31	67
39	206
40	73
41	700
42	147
43	560
44	432
45	1751
46	125
47	575
52	52
53	82
55	799
56	288
57	136
58	216
59	410
60	99
61	304
66	77
67	46
69	2675
70	197
71	73
72	541
73	9999
74	943
75	2944
76	207
77	144
82	96
83	830
84	73
85	67
89	42
99	119
101	68
103	50
113	174
115	74
116	97
117	436
118	47
128	58
129	109
130	224
131	226
133	372
134	59
143	508
144	85
147	9132
148	1483
149	851
150	97
157	243
158	46
159	110
172	159
173	76
175	130
176	27
185	78
190	398
191	85
192	40
200	99
201	82
204	247
205	77
206	21
231	1865
232	403
233	179
246	192
247	49
275	1232
276	284
277	126
290	25
