Mass Spectrum: 4-Methoxymandelic acid, 2TMS derivative
Formula: C15 H26 O4 Si2
CAS: 55556-95-1
Molecular weight: 326
Origin: G.S. KING, CHEM. PATHOL. DEP., QUEEN CHARLOTTE'S HOSP., LONDON
m/z	RELATIVE INTENSITY
41	120
43	240
44	440
45	640
47	240
73	5040
74	440
75	1240
76	120
77	840
78	120
91	120
93	240
95	120
105	120
133	240
135	520
147	1440
148	240
149	120
163	120
179	120
193	120
207	440
209	9999
210	1720
211	440
283	840
284	240
