Mass Spectrum: 3-Methylbutanoic acid, TMS derivative
Formula: C8 H18 O2 Si
CAS: 55557-13-6
Molecular weight: 174
Origin: ORVAL A. MAMER, ROYAL VICTORIA HOSPITAL, MONTREAL, CANADA
m/z	RELATIVE INTENSITY
15	207
27	560
28	91
29	473
31	24
39	488
40	78
41	923
42	208
43	627
44	185
45	1085
46	84
47	722
55	167
56	335
57	481
58	345
60	106
61	565
69	361
71	9
72	280
73	6013
74	724
75	9999
76	778
77	423
83	188
85	111
88	61
91	68
99	75
101	77
116	165
117	1508
118	166
119	77
132	612
143	212
159	4442
160	591
161	208
174	75
