Mass Spectrum: 2-Methylbutanoic acid, TMS derivative
Formula: C8 H18 O2 Si
CAS: 55557-14-7
Molecular weight: 174
Origin: ORVAL A. MAMER, ROYAL VICTORIA HOSPITAL, MONTREAL, CANADA
m/z	RELATIVE INTENSITY
15	59
27	516
28	18
29	715
39	265
41	625
42	11
43	77
44	48
45	365
46	32
47	518
55	235
56	325
57	492
58	127
60	37
61	437
69	255
72	13
73	9999
74	989
75	7531
76	618
77	368
83	122
84	108
86	123
115	20
117	554
129	113
130	232
143	179
146	431
159	4148
160	565
161	205
