Mass Spectrum: Glycine, N-(2-methyl-1-oxo-2-propenyl)-N-(trimethylsilyl)-, trimethylsilyl ester
Formula: C12 H25 N O3 Si2
CAS: 55557-27-2
Molecular weight: 287
Origin: MO-148
m/z	RELATIVE INTENSITY
15	227
27	214
28	413
29	253
31	151
39	426
40	190
41	2580
42	285
43	638
44	425
45	2208
46	155
47	383
53	133
55	977
56	128
57	136
58	239
59	643
61	185
69	2749
70	202
72	263
73	9999
74	902
75	1663
76	119
80	169
81	362
82	121
86	180
100	189
127	103
131	108
133	201
142	254
147	1802
148	297
149	171
154	390
156	229
168	118
169	217
170	3535
171	573
172	200
242	111
244	343
272	823
273	195
287	397
288	109
