Mass Spectrum: Butanoic acid, 2-methyl-3-[(trimethylsilyl)oxy]-, trimethylsilyl ester
Formula: C11 H26 O3 Si2
CAS: 55557-17-0
Molecular weight: 262
Origin: MO-52
m/z	RELATIVE INTENSITY
15	119
27	169
28	228
29	205
39	106
41	228
43	572
44	359
45	1607
46	128
47	570
55	500
56	726
57	197
58	259
59	619
60	115
61	301
66	603
72	361
73	9999
74	929
75	2477
76	183
77	116
83	106
88	1083
89	124
101	163
115	268
117	8223
118	920
119	385
129	219
130	122
131	391
133	559
144	375
147	6245
148	996
149	563
157	257
191	844
192	166
203	137
218	1152
219	253
220	117
247	671
248	156
