Mass Spectrum: Tetradecanoic acid, 2-methyl-, methyl ester
Formula: C16 H32 O2
CAS: 55554-09-1
Molecular weight: 256
Origin: F. TURECEK,HEYROVSKY INST PHYS CHEM & ELECTROCHEM,PRAGUE,CZECH
m/z	RELATIVE INTENSITY
27	390
29	1040
39	360
40	130
41	2270
42	540
43	2540
44	150
45	150
51	60
53	150
54	150
55	2390
56	720
57	2990
58	120
59	920
60	40
67	330
68	130
69	1640
70	300
71	940
72	60
73	330
74	210
77	90
79	120
81	270
82	90
83	870
84	180
85	510
87	840
88	9999
89	840
90	90
91	90
95	210
97	570
98	450
99	220
101	7310
102	540
109	120
110	310
111	310
112	150
113	180
115	610
119	60
121	60
123	70
125	90
127	300
130	120
135	70
139	60
141	150
143	1630
144	210
157	1550
158	180
165	60
171	360
172	60
185	330
197	240
198	60
199	1310
200	180
213	3150
214	450
215	180
217	60
241	60
256	600
257	120
