Mass Spectrum: Methylsuccinic acid, 2TMS derivative
Formula: C11 H24 O4 Si2
CAS: 55557-26-1
Molecular weight: 276
Origin: NIST Mass Spectrometry Data Center
m/z	RELATIVE INTENSITY
15	10
27	50
28	100
29	60
31	30
37	10
38	10
39	90
40	20
41	430
42	210
43	310
44	260
45	1061
46	90
47	430
48	10
49	20
52	20
53	20
55	1241
56	80
57	70
58	190
59	280
60	80
61	270
62	20
66	20
67	20
68	30
69	771
70	280
71	50
72	280
73	5845
74	561
75	2332
76	170
77	80
85	80
86	30
87	20
88	20
89	30
96	20
97	40
98	20
99	200
100	30
101	60
102	20
103	50
104	10
105	10
106	10
111	10
113	20
114	10
115	100
116	60
117	130
118	20
119	30
120	10
123	150
124	10
125	10
127	30
128	20
129	500
130	70
131	160
132	40
133	350
134	50
135	20
142	40
143	611
144	100
145	90
147	9999
148	1511
149	901
150	90
151	20
157	50
158	120
159	60
160	10
162	10
163	10
170	20
171	20
173	10
175	10
186	300
187	160
188	30
189	30
190	20
191	30
201	10
204	160
205	30
206	10
217	801
218	170
219	80
220	10
231	10
232	260
233	50
234	10
261	911
262	210
263	90
264	10
