Mass Spectrum: D-Ribo-Hexonic acid, 3-deoxy-2,5,6-tris-O-(trimethylsilyl)-, lactone
Formula: C15 H34 O5 Si3
CAS: 55570-78-0
Molecular weight: 378
m/z	RELATIVE INTENSITY
73	9999
74	1390
75	2220
101	690
103	1880
117	1300
129	3140
130	910
131	1090
133	1160
147	1820
148	750
149	1060
155	1500
189	950
191	520
205	1530
206	570
219	900
245	950
246	1830
247	1150
273	1920
274	450
275	210
276	30
291	10
292	1170
293	320
294	170
295	30
305	60
306	10
307	60
308	10
317	60
318	20
319	10
322	350
323	100
324	50
325	130
333	60
334	10
335	100
336	30
337	10
363	450
364	140
365	70
366	10
378	760
379	250
380	120
381	30
