Mass Spectrum: Lanosta-9(11),24-dien-3-ol, acetate, (3.beta.)-
Formula: C32 H52 O2
CAS: 55570-91-7
Molecular weight: 468
Origin: R. I. REED UNIVERSITY OF GLASGOW
m/z	RELATIVE INTENSITY
39	200
41	2090
42	170
43	4700
44	170
45	120
53	210
55	3100
56	260
57	2290
58	110
67	1200
68	180
69	3760
70	280
71	1220
72	100
77	330
79	980
80	180
81	2230
82	1240
83	1840
84	190
85	450
91	1140
92	230
93	1910
94	2320
95	4110
96	490
97	1150
98	110
99	110
105	2110
106	570
107	480
108	730
109	2620
110	790
115	120
117	450
118	210
119	2740
120	880
121	2420
122	670
123	1430
124	180
125	350
127	160
128	120
129	270
130	140
131	1010
132	470
133	1780
134	790
135	2090
136	800
137	670
138	110
139	100
142	110
143	430
144	200
145	1360
146	460
147	1460
148	460
149	1080
150	300
151	120
153	110
155	120
156	100
157	520
158	210
159	1500
160	370
161	1950
162	390
163	680
164	120
165	230
169	150
171	540
172	210
173	1170
174	340
175	1900
176	490
177	380
179	220
183	110
185	420
186	160
187	1070
188	400
189	950
190	260
191	260
193	760
195	120
197	120
199	350
200	100
201	740
202	220
203	520
204	120
205	260
206	120
207	300
211	110
213	540
214	280
215	1000
216	250
217	190
219	400
220	130
221	300
225	120
227	760
228	260
229	920
230	200
231	180
233	210
239	180
241	730
242	180
243	470
244	120
245	140
247	190
248	570
249	140
255	700
256	170
257	540
258	140
259	480
260	180
261	310
269	230
270	190
271	230
272	300
273	1050
274	750
275	900
276	270
281	150
283	340
285	150
286	120
287	330
288	420
289	650
290	160
297	470
298	110
299	290
301	440
302	160
303	150
313	160
315	330
317	600
318	340
325	120
327	130
330	110
332	250
337	100
341	250
342	110
343	210
344	100
353	100
357	240
358	100
367	100
393	8710
394	2810
395	570
407	100
408	330
409	220
410	120
411	160
453	9999
454	3790
455	720
468	3630
469	1390
470	400
