Mass Spectrum: Ethanethioic acid, S-(1-ethylbutyl) ester
Formula: C8 H16 O S
CAS: 55590-84-6
Molecular weight: 160
Origin: W. UTILIZATION R & D DIV., U.S. DEPT. OF AGRIC., ALBANY, CAL.
m/z	RELATIVE INTENSITY
27	403
29	499
35	44
39	461
40	51
41	2019
42	734
43	9999
44	263
45	287
46	72
47	424
53	225
54	143
55	2186
56	1657
57	707
58	130
59	321
60	225
61	475
67	133
69	1028
70	96
71	109
72	434
73	161
74	205
75	775
76	314
77	977
78	58
79	89
83	369
84	4267
85	1158
86	475
87	92
88	898
89	724
90	85
91	58
99	68
103	130
116	126
117	656
118	130
127	150
131	126
142	11
160	806
161	79
162	38
