Mass Spectrum: 2-Methoxyphenylacetic acid, TMS derivative
Formula: C12 H18 O3 Si
CAS: 55590-71-1
Molecular weight: 238
Origin: W.T.RAINEY OAK RIDGE NATIONAL LABORATORY,OAK RIDGE,TN.USA
m/z	RELATIVE INTENSITY
73	9999
75	1499
89	1249
90	374
91	558
121	374
148	141
149	191
163	708
164	416
165	249
179	5832
180	1666
181	416
194	541
195	541
208	108
209	33
223	1916
224	333
225	83
238	2416
239	416
240	124
