Mass Spectrum: 2-Butenoic acid, 2-[(trimethylsilyl)oxy]-, trimethylsilyl ester
Formula: C10 H22 O3 Si2
CAS: 55590-70-0
Molecular weight: 246
Origin: John Halket,Royal Holloway, University of London, UK
m/z	RELATIVE INTENSITY
15	60
27	150
28	170
29	200
30	20
31	60
39	60
40	20
41	30
42	70
43	540
44	270
45	1501
46	100
47	210
48	10
51	30
52	100
53	70
54	50
55	240
56	90
57	110
58	320
59	410
60	60
61	140
62	10
66	440
68	10
69	30
70	40
71	60
73	3833
74	380
75	671
76	50
77	20
79	10
81	10
83	30
84	10
85	30
86	70
87	50
88	10
89	20
94	70
97	20
99	110
101	30
102	20
103	50
104	10
105	30
107	10
111	10
113	150
115	80
117	100
118	20
119	40
120	10
127	10
128	40
129	30
131	270
133	440
134	50
135	40
141	10
143	20
144	10
147	9999
148	1591
149	821
150	80
151	20
155	10
156	10
157	20
158	40
159	20
160	10
175	10
187	20
188	10
201	20
203	130
204	20
205	10
215	60
217	10
229	10
231	2102
232	440
233	190
234	30
245	20
246	40
247	10
