Mass Spectrum: Octanethioic acid, S-hexyl ester
Formula: C14 H28 O S
CAS: 55590-85-7
Molecular weight: 244
Origin: W. UTILIZATION R & D DIV., U.S. DEPT. OF AGRIC., ALBANY, CAL.
m/z	RELATIVE INTENSITY
29	341
39	114
40	15
41	1765
42	237
43	1532
44	54
47	94
53	69
55	2041
56	306
57	9999
58	321
59	104
61	104
67	410
68	64
69	227
70	119
71	124
81	84
82	84
83	277
84	302
85	173
97	84
98	242
99	49
100	89
109	1008
116	84
117	99
127	9525
128	801
142	49
145	35
159	1532
160	124
161	183
184	40
244	40
