Mass Spectrum: Prenol
Formula: C5 H10 O
CAS: 556-82-1
Molecular weight: 86
Origin: NIST Mass Spectrometry Data Center
m/z	RELATIVE INTENSITY
14	10
15	90
19	20
25	10
26	130
27	1191
28	200
29	1141
30	50
31	691
32	10
36	10
37	150
38	370
39	2933
40	681
41	5365
42	641
43	4254
44	530
45	300
46	10
48	10
49	80
50	490
51	641
52	220
53	3453
54	300
55	711
56	140
57	380
58	150
59	90
60	10
61	40
62	60
63	80
64	10
65	360
66	110
67	1461
68	1461
69	550
71	9999
72	480
73	30
82	10
83	140
84	30
85	370
86	2232
87	130
88	10
