Mass Spectrum: Thiocyanic acid, methyl ester
Formula: C2 H3 N S
CAS: 556-64-9
Molecular weight: 73
Origin: Japan AIST/NIMC Database- Spectrum MS-NW- 994
m/z	RELATIVE INTENSITY
12	60
13	60
14	169
15	2219
16	20
26	159
27	60
28	729
29	219
32	529
33	80
34	40
35	20
38	20
39	10
40	80
41	249
44	619
45	3629
46	3289
47	1319
48	169
49	60
56	20
57	40
58	749
59	50
60	30
70	219
71	299
72	5899
73	9999
74	569
75	459
76	70
