Mass Spectrum: 1-Propene, 3-iodo-
Formula: C3 H5 I
CAS: 556-56-9
Molecular weight: 168
Origin: Japan AIST/NIMC Database- Spectrum MS-NW-6072
m/z	RELATIVE INTENSITY
13	10
14	30
15	179
25	20
26	119
27	159
28	30
29	40
31	20
36	20
37	229
38	489
39	3849
40	479
41	9999
42	369
43	30
54	30
55	20
56	20
57	70
58	30
63	20
67	20
69	20
81	10
83	10
127	739
128	209
139	20
140	20
141	60
167	10
168	3179
169	119
170	10
