Mass Spectrum: Nitroguanidine
Formula: C H4 N4 O2
CAS: 556-88-7
Molecular weight: 104
Origin: Japan AIST/NIMC Database- Spectrum MS-NW-5851
m/z	RELATIVE INTENSITY
12	10
13	90
14	30
15	10
16	119
17	579
18	50
26	30
27	139
28	1349
29	199
30	819
31	1869
32	20
41	169
42	1199
43	1419
44	1149
45	30
46	389
57	40
58	9999
59	259
74	919
75	30
88	10
104	3639
105	119
106	20
