Mass Spectrum: o-Ethyl S-2-(ethylthio)ethyl methylphosphonothiolate
Formula: C7 H17 O2 P S2
CAS: 556-75-2
Molecular weight: 228
Origin: VERIFINN
m/z	RELATIVE INTENSITY
27	410
29	741
35	190
41	110
45	350
46	120
47	781
55	170
59	661
60	4824
61	1221
62	280
63	190
65	180
73	330
75	571
77	100
78	120
79	2652
80	130
87	100
88	9999
89	1261
90	470
95	581
96	2072
97	400
98	100
107	330
108	50
111	110
112	861
113	1031
139	220
140	1011
141	550
142	90
155	80
167	80
183	70
228	100
