Mass Spectrum: 1,4-Cyclohexanediol
Formula: C6 H12 O2
CAS: 556-48-9
Molecular weight: 116
Origin: Japan AIST/NIMC Database- Spectrum MS-NW-6820
m/z	RELATIVE INTENSITY
14	40
15	329
16	10
17	80
18	319
19	189
25	10
26	229
27	1489
28	429
29	1389
30	259
31	2269
32	40
33	10
36	10
37	60
38	139
39	1579
40	339
41	3539
42	2789
43	2719
44	2709
45	649
46	30
47	799
48	20
49	30
50	139
51	199
52	99
53	479
54	7449
55	2979
56	769
57	3769
58	9999
59	2839
60	189
61	20
62	60
63	40
65	119
66	40
67	409
68	229
69	2209
70	1889
71	179
72	40
73	80
74	20
75	10
77	329
78	119
79	889
80	1689
81	349
82	50
83	1919
84	109
85	20
86	10
87	30
94	20
95	20
96	30
97	819
98	3279
99	229
100	20
115	30
116	60
