Mass Spectrum: Methane, isothiocyanato-
Formula: C2 H3 N S
CAS: 556-61-6
Molecular weight: 73
Origin: Japan AIST/NIMC Database- Spectrum MS-IW-3839
m/z	RELATIVE INTENSITY
12	10
13	10
14	20
15	159
26	20
27	80
28	329
29	50
32	289
33	30
34	20
35	409
36	50
38	159
39	149
40	229
41	90
44	929
45	1779
46	419
47	139
48	20
57	10
58	359
59	80
60	20
70	859
71	489
72	5149
73	9999
74	569
75	479
76	30
