Mass Spectrum: 3-Hydroxy-L-tyrosine, 4TMS derivative
Formula: C21 H43 N O4 Si4
CAS: 55638-45-4
Molecular weight: 485
Origin: S. MARKEY UNIV. OF COLO. MED. CTR., DENVER, COLORADO, USA
m/z	RELATIVE INTENSITY
43	240
44	160
45	910
47	240
49	40
58	60
59	150
63	90
65	30
72	110
73	9999
74	850
75	790
77	400
93	310
95	60
100	560
101	60
130	30
131	170
132	20
133	200
147	680
148	110
149	130
179	720
180	120
181	90
203	30
218	4640
219	870
220	350
267	930
268	310
269	110
280	490
281	170
295	40
367	40
368	300
369	80
380	50
470	60
