Mass Spectrum: 2-Butenoic acid, 2-(acetylamino)-
Formula: C6 H9 N O3
CAS: 55649-71-3
Molecular weight: 143
Origin: H.FR.GRUTZMACHER HAMBURG UNIV., HAMBURG, GERMANY, F.R.G.
m/z	RELATIVE INTENSITY
14	310
15	1830
25	40
26	520
27	1280
28	4840
29	680
30	310
31	100
32	250
38	230
39	700
40	240
41	420
42	880
43	9999
44	940
45	730
46	70
50	20
51	130
52	470
53	200
54	3730
55	7710
56	2940
57	550
58	190
59	210
60	230
61	80
66	270
67	50
68	110
69	40
70	50
71	30
72	30
73	60
74	40
80	50
81	80
82	80
83	5600
84	300
85	30
96	110
97	300
98	80
99	90
100	600
101	2640
102	180
103	10
110	170
124	20
125	1340
126	220
127	30
128	120
143	1130
144	120
