Mass Spectrum: Glycine, N-(2-methyl-1-oxo-2-butenyl)-, methyl ester, (E)-
Formula: C8 H13 N O3
CAS: 55649-53-1
Molecular weight: 171
Origin: NIST Mass Spectrometry Data Center
m/z	RELATIVE INTENSITY
14	10
15	170
18	10
26	50
27	651
28	420
29	1011
30	330
31	70
32	10
33	30
37	20
38	60
39	1081
40	130
41	200
42	190
43	140
44	190
45	150
49	10
50	160
51	290
52	180
53	1161
54	1521
55	8338
56	1101
57	50
58	30
59	320
60	20
62	10
63	10
64	10
65	20
66	30
67	100
68	50
69	70
70	20
72	10
73	10
74	20
78	10
80	40
81	90
82	2332
83	9999
84	651
85	40
86	10
88	300
89	20
90	50
92	10
94	30
95	20
96	100
97	20
98	60
99	10
109	10
110	170
111	220
112	1842
113	130
114	30
116	100
117	10
124	20
126	10
128	10
139	701
140	260
141	20
142	10
143	10
153	80
154	10
156	330
157	30
171	1852
172	180
173	20
