Mass Spectrum: Asparagine, 3TMS derivative
Formula: C13 H32 N2 O3 Si3
CAS: 55649-62-2
Molecular weight: 348
Origin: NIST Mass Spectrometry Data Center
m/z	RELATIVE INTENSITY
15	10
27	10
28	20
29	30
30	10
31	20
41	30
42	110
43	240
44	250
45	1021
46	90
47	190
48	10
52	10
53	10
54	20
55	90
56	50
57	90
58	180
59	500
60	110
61	180
62	10
63	10
66	40
67	10
68	20
69	30
70	140
71	60
72	450
73	9999
74	1351
75	2312
76	180
77	100
80	10
82	20
83	20
84	80
85	50
86	130
87	60
88	30
89	40
90	100
91	30
92	10
95	10
96	10
97	10
98	130
99	70
100	1661
101	230
102	190
103	150
104	20
105	30
110	10
111	10
112	20
113	50
114	490
115	661
116	9258
117	1231
118	530
119	100
120	10
121	10
125	140
126	40
127	40
128	350
129	140
130	480
131	1431
132	4484
133	1081
134	280
135	70
136	10
139	10
140	50
141	1511
142	340
143	190
144	300
145	50
146	170
147	2712
148	510
149	430
150	60
151	20
153	20
154	20
155	10
156	20
157	30
158	90
159	781
160	130
161	50
162	10
163	40
164	10
169	120
170	40
171	20
172	290
173	70
174	160
175	30
176	40
177	20
184	10
185	10
186	20
188	2903
189	571
190	420
191	70
192	30
198	10
199	70
200	40
201	40
202	871
203	220
204	320
205	70
206	60
207	10
213	50
214	70
215	350
216	260
217	120
218	1161
219	230
220	120
221	30
222	10
227	10
228	10
229	60
231	5135
232	1191
233	500
234	80
235	10
241	10
242	70
243	190
244	80
245	80
246	20
247	10
258	530
259	160
260	60
261	10
262	40
263	10
264	10
292	20
293	10
303	10
304	10
305	20
306	10
315	10
316	130
317	40
318	20
331	10
333	370
334	110
335	60
336	10
348	320
349	110
350	50
351	10
