Mass Spectrum: Camphenone, 6-
Formula: C10 H14 O
CAS: 55659-42-2
Molecular weight: 150
Origin: Mark Whitten, Florida Museum of Natural History, U. of Florida
m/z	RELATIVE INTENSITY
41	2244
42	483
43	257
44	36
45	34
46	19
50	488
51	1257
52	587
53	1106
54	165
55	294
56	31
57	119
58	55
59	93
60	26
61	39
62	134
63	422
65	1171
66	273
67	348
68	61
69	46
70	18
71	18
74	61
75	55
77	2280
78	479
79	1707
80	285
81	102
82	37
86	18
87	24
89	93
91	4368
92	770
93	9999
94	879
95	96
102	36
103	134
105	799
107	3623
108	7034
109	637
110	36
115	74
116	23
117	106
118	14
119	21
121	47
122	117
123	12
131	20
132	71
133	18
135	53
136	15
150	587
151	73
