Mass Spectrum: Titanium, .eta.8-cyclooctatetraene-.eta.5-methylcyclopentadienyl
Formula: C14 H15 Ti
CAS: 55672-83-8
Molecular weight: 231
Origin: M.VELDMAN, DEP. INORG. CHEM., UNIV. GRONINGEN, GRONINGEN,NET_
m/z	RELATIVE INTENSITY
39	700
48	1200
73	1000
77	900
78	1500
79	1100
87	700
103	1000
104	1400
113	2600
126	2100
127	5100
128	700
150	1300
191	700
203	800
205	900
215	1000
216	2100
229	3700
231	9999
