Mass Spectrum: 4,6-Decadiene
Formula: C10 H18
CAS: 55682-65-0
Molecular weight: 138
Origin: J.VOTH UNIV. OF CALIFORNIA, DAVIS, CALIFORNIA, 95616, USA
m/z	RELATIVE INTENSITY
2	45
12	3
13	6
14	28
15	267
16	7
18	3
25	4
26	159
27	2184
28	236
29	1257
30	27
37	21
38	96
39	1029
40	232
41	2659
42	178
43	536
44	19
45	4
49	3
50	111
51	336
52	212
53	668
54	2152
55	2318
56	146
57	44
58	5
61	21
62	75
63	235
64	55
65	685
66	303
67	9999
68	1519
69	612
70	57
71	19
73	4
74	33
75	31
76	18
77	901
78	265
79	1265
80	527
81	2108
82	1665
83	170
84	25
85	5
86	6
87	8
89	19
90	8
91	367
92	54
93	723
94	95
95	2493
96	866
97	77
98	6
102	3
103	14
104	4
105	26
106	5
107	49
108	17
109	2029
110	212
111	74
112	8
115	3
123	48
124	4
137	6
138	2125
139	234
140	15
