Mass Spectrum: 3,5-Decadiyne, 2,2-dimethyl-
Formula: C12 H18
CAS: 55682-73-0
Molecular weight: 162
Origin: J.VOTH UNIV. OF CALIFORNIA, DAVIS, CALIFORNIA, 95616, USA
m/z	RELATIVE INTENSITY
12	27
13	45
14	206
15	1702
16	41
17	22
18	72
25	18
26	363
27	5080
28	517
29	1958
30	46
37	35
38	310
39	3920
40	407
41	6684
42	335
43	1021
44	47
49	46
50	1371
51	3408
52	887
53	2094
54	175
55	2321
56	204
57	276
58	47
60	26
61	352
62	1209
63	3569
64	1051
65	2815
66	479
67	1894
68	131
69	2590
70	53
73	113
74	979
75	1419
76	803
77	4826
78	1494
79	2590
80	323
81	393
82	39
83	59
84	53
85	152
86	436
87	740
88	296
89	1203
90	341
91	7217
92	1122
93	1813
94	626
95	127
96	34
97	65
98	256
99	147
100	46
101	221
102	510
103	2033
104	1752
105	9999
106	1318
107	889
108	120
109	36
110	52
111	37
113	71
114	93
115	1359
116	724
117	2365
118	1048
119	5347
120	2399
121	396
122	37
127	98
128	230
129	236
130	184
131	656
132	430
133	3257
134	530
135	65
141	20
143	27
144	22
145	141
146	63
147	4179
148	512
149	29
161	76
162	5268
163	694
164	43
