Mass Spectrum: Maleamic acid
Formula: C4 H5 N O3
CAS: 557-24-4
Molecular weight: 115
Origin: Japan AIST/NIMC Database- Spectrum MS-NW-5011
m/z	RELATIVE INTENSITY
12	139
13	189
14	179
15	289
16	1099
17	2679
18	1999
19	20
24	219
25	1009
26	7709
27	4679
28	2539
29	789
30	669
31	20
32	10
34	10
35	10
36	129
37	169
38	199
39	149
40	299
41	479
42	449
43	979
44	8289
45	4009
46	709
47	30
49	20
50	169
51	729
52	1639
53	2289
54	4639
55	4269
56	329
57	20
58	10
60	10
62	10
63	10
66	10
67	60
68	199
69	1199
70	869
71	9999
72	1209
73	70
74	40
76	10
77	40
78	70
79	50
80	739
81	209
82	289
83	20
84	10
87	99
95	10
96	30
97	3829
98	1289
99	5759
100	299
101	50
115	869
116	69
117	10
