Mass Spectrum: Urea, 2-propenyl-
Formula: C4 H8 N2 O
CAS: 557-11-9
Molecular weight: 100
Origin: Japan AIST/NIMC Database- Spectrum MS-NW- 243
m/z	RELATIVE INTENSITY
15	40
16	119
17	269
18	169
25	20
26	239
27	559
28	2359
29	449
30	3659
31	99
37	90
38	209
39	1099
40	159
41	1239
42	179
43	209
44	1969
45	159
46	40
51	40
52	139
53	40
54	559
55	229
56	6219
57	9999
58	409
60	249
61	30
68	20
69	40
70	40
71	80
72	20
73	80
74	20
81	40
82	30
83	10
84	20
85	139
97	20
98	20
99	50
100	659
101	40
