Mass Spectrum: Isopropenyl bromide
Formula: C3 H5 Br
CAS: 557-93-7
Molecular weight: 120
Origin: NIST Mass Spectrometry Data Center, 1990.
m/z	RELATIVE INTENSITY
12	48
13	51
14	81
15	182
24	42
25	158
26	376
27	203
36	228
37	1127
38	1904
39	7678
40	879
41	9999
42	316
60	12
79	385
80	110
81	411
82	95
91	19
92	18
93	68
94	15
95	49
104	38
105	165
106	51
107	165
116	7
117	19
120	3196
121	116
122	3083
123	116
