Mass Spectrum: Octane, 2-iodo-
Formula: C8 H17 I
CAS: 557-36-8
Molecular weight: 240
Origin: RADIAN CORP
m/z	RELATIVE INTENSITY
15	40
26	110
27	1610
29	2630
30	60
38	80
39	2370
40	440
41	7490
42	1850
43	7760
44	280
50	70
51	180
52	90
53	630
54	250
55	3130
56	1210
57	9999
58	450
63	50
65	120
66	30
67	240
68	60
69	770
70	450
71	9960
72	570
77	70
79	70
81	30
82	30
83	210
84	90
85	60
97	20
112	90
113	2840
114	240
127	800
128	280
141	60
155	310
169	140
183	10
