Mass Spectrum: Methyl propyl ether
Formula: C4 H10 O
CAS: 557-17-5
Molecular weight: 74
Origin: Japan AIST/NIMC Database- Spectrum MS-NW-1331
m/z	RELATIVE INTENSITY
14	30
15	599
16	10
18	10
26	109
27	739
28	189
29	769
30	30
31	209
32	50
33	129
37	20
38	60
39	359
40	70
41	879
42	319
43	529
44	40
45	9999
46	229
47	20
55	10
56	30
57	70
58	20
59	70
71	20
73	179
74	1519
75	70
