Mass Spectrum: Butanoic acid, 3-methyl-, propyl ester
Formula: C8 H16 O2
CAS: 557-00-6
Molecular weight: 144
m/z	RELATIVE INTENSITY
27	1191
29	1181
31	240
39	1101
40	110
41	4314
42	1892
43	5025
44	200
45	410
53	120
55	440
56	681
57	6776
58	420
59	1211
60	3393
61	4894
62	130
69	330
74	410
85	9999
86	591
87	2762
102	1902
103	8628
104	430
115	621
116	240
129	100
143	160
