Mass Spectrum: Arsine, chlorodimethyl-
Formula: C2 H6 As Cl
CAS: 557-89-1
Molecular weight: 140
Origin: Dennis Rohrbaugh, CBDCOM/ERDEC, Edgewood, MD
m/z	RELATIVE INTENSITY
75	1340
76	429
77	251
87	125
88	2903
89	9999
90	1459
100	237
101	1703
102	666
103	2592
105	2814
110	1540
111	414
112	555
123	214
124	429
125	7406
127	2621
140	5614
141	177
142	1881
