Mass Spectrum: Ethane, 1,1-dibromo-
Formula: C2 H4 Br2
CAS: 557-91-5
Molecular weight: 186
Origin: Japan AIST/NIMC Database- Spectrum MS-NW-4429
m/z	RELATIVE INTENSITY
12	10
13	10
14	30
15	30
24	20
25	159
26	1129
27	9999
28	389
29	10
79	409
80	159
81	409
82	159
83	10
91	50
92	40
93	60
94	40
95	10
104	80
105	249
106	179
107	7449
108	269
109	6989
110	159
170	10
171	99
172	20
173	199
174	20
175	90
186	629
187	20
188	1189
189	40
190	589
191	10
