Mass Spectrum: 1,1'-Biphenyl, 2,3,4-trichloro-
Formula: C12 H7 Cl3
CAS: 55702-46-0
Molecular weight: 256
Origin: Organic Synthesis Lab, MSU, Moscow.TRC 1366
m/z	RELATIVE INTENSITY
43	37
44	88
47	53
49	183
50	824
51	833
52	161
56	31
60	57
61	410
62	577
63	412
64	38
67	50
71	32
72	88
73	392
74	891
75	1704
76	352
77	258
78	58
79	154
80	247
81	66
84	244
85	288
86	482
87	292
88	69
89	45
93	1637
94	535
96	85
97	467
98	729
99	509
100	145
101	116
102	221
103	72
107	83
108	288
109	345
110	1357
111	954
112	181
113	64
114	43
115	85
116	74
119	41
120	94
121	153
122	241
123	283
124	117
125	230
126	145
127	48
128	381
129	368
130	122
131	47
132	53
133	176
134	87
135	88
136	84
137	37
138	32
143	40
144	58
145	77
146	80
147	113
148	84
149	441
150	2334
151	1417
152	176
157	46
158	75
159	109
160	201
161	59
162	107
169	78
170	36
171	62
172	45
181	61
182	68
183	96
184	275
185	463
186	6225
187	1063
188	2066
189	258
194	57
195	50
196	71
197	34
204	56
206	57
207	29
217	45
219	73
220	608
221	203
222	348
223	109
224	89
230	53
256	9999
257	1460
258	9370
259	1241
260	3267
261	396
262	332
263	51
