Mass Spectrum: 2-Phenylethyl tiglate
Formula: C13 H16 O2
CAS: 55719-85-2
Molecular weight: 204
Origin: Insect Chem. Ecol. Lab., USDA, Beltsville, MD 20705
m/z	RELATIVE INTENSITY
41	101
42	14
43	104
44	3
45	23
50	108
51	366
52	117
53	399
54	211
55	3106
56	138
57	15
62	26
63	119
64	35
65	375
66	28
67	14
69	19
71	16
74	20
75	22
76	34
77	614
78	340
79	337
80	22
81	14
82	61
83	2946
84	155
85	20
89	77
90	38
91	642
92	88
93	7
102	60
103	469
104	9999
105	1532
106	85
118	4
121	37
134	3
145	7
204	28
205	8
