Mass Spectrum: Naphthalene, 1,4,6,7-tetrachloro-
Formula: C10 H4 Cl4
CAS: 55720-43-9
Molecular weight: 264
Origin: D.HENNEBERG, MAX-PLANCK INSTITUTE, MULHEIM, WEST GERMANY
m/z	RELATIVE INTENSITY
26	128
28	622
29	23
35	63
36	732
37	15
38	260
39	19
41	24
42	9
43	21
44	176
50	56
51	33
52	10
55	14
56	10
57	17
60	19
62	12
63	8
69	10
73	15
74	106
75	128
76	16
77	11
78	40
79	7
84	31
85	60
86	29
87	30
95	16
96	11
97	60
98	139
99	124
100	17
108	69
109	158
110	60
111	57
112	16
114	19
115	20
116	12
119	8
120	23
121	41
122	117
123	512
124	236
125	21
130	21
131	23
132	382
133	453
134	212
135	81
136	8
143	27
144	27
145	27
146	19
147	17
149	54
157	163
158	367
159	623
160	192
161	247
162	26
164	27
165	22
166	18
167	24
171	13
178	7
191	17
192	36
193	215
194	3323
195	453
196	2115
197	265
198	357
199	76
200	35
202	24
203	16
204	21
206	14
217	16
219	15
228	275
229	886
230	380
231	846
232	201
233	288
234	52
235	29
263	19
264	7713
265	800
266	9999
267	1065
268	4798
269	442
270	1018
271	106
272	86
