Mass Spectrum: Butanoic acid, 4-butoxy-
Formula: C8 H16 O3
CAS: 55724-73-7
Molecular weight: 160
Origin: CARL DJERASSI DEPT OF CHEM STANFORD UNIV STANFORD CALIF 94305
m/z	RELATIVE INTENSITY
41	4900
42	1200
43	4600
44	900
45	5100
46	200
50	100
51	100
53	100
54	100
55	1100
56	2500
57	9999
58	600
59	200
60	2100
61	200
68	200
69	500
70	800
71	400
72	600
73	900
74	800
75	100
77	100
83	200
84	100
85	6600
86	800
87	8500
88	1400
89	100
99	200
100	400
101	300
103	2400
104	100
105	100
114	100
117	300
142	100
