Mass Spectrum: 2,3,5-Trichloro-1,1'-biphenyl
Formula: C12 H7 Cl3
CAS: 55720-44-0
Molecular weight: 256
Origin: Organic Synthesis Lab, MSU, Moscow.TRC 1362
m/z	RELATIVE INTENSITY
51	552
52	113
55	53
61	242
62	369
63	236
67	52
72	56
73	261
74	576
75	1074
77	177
79	56
80	148
81	94
82	44
83	57
84	149
85	194
86	272
87	196
93	1234
94	397
96	61
97	321
98	534
99	364
100	124
101	87
102	139
107	60
108	162
109	233
110	1113
111	861
112	189
113	61
114	84
115	76
116	59
120	108
121	103
122	233
123	286
124	85
125	181
126	139
128	253
129	316
130	120
133	128
134	64
135	59
136	52
138	73
146	77
147	92
148	71
149	456
150	1796
151	1279
152	159
158	99
159	98
160	152
161	84
162	81
172	58
181	49
182	59
183	117
184	298
185	451
186	5739
187	895
188	1534
189	198
194	67
195	58
196	79
204	44
205	57
219	61
220	543
221	229
222	316
223	140
224	102
230	73
232	44
254	41
256	9999
257	1285
258	9525
259	1369
260	3273
261	481
262	474
263	60
