Mass Spectrum: 2-sec-Butylaniline
Formula: C10 H15 N
CAS: 55751-54-7
Molecular weight: 149
Origin: NIST Mass Spectrometry Data Center
m/z	RELATIVE INTENSITY
15	220
16	10
17	20
18	120
26	170
27	1071
28	571
29	711
30	130
37	40
38	170
39	971
40	140
41	370
42	370
43	30
44	20
45	10
46	10
50	210
51	601
52	340
53	250
54	180
55	70
56	10
59	80
61	20
62	110
63	350
64	170
65	791
66	270
67	90
68	10
74	60
75	100
77	1361
78	270
79	260
80	120
81	10
86	10
87	20
89	250
90	190
91	951
92	280
93	781
94	490
95	30
101	30
102	190
103	811
104	200
106	1111
107	110
115	230
116	100
117	410
118	801
120	9999
121	881
122	30
127	10
128	30
129	10
130	90
131	40
132	130
133	70
134	460
135	40
149	1972
150	230
151	10
