Mass Spectrum: Methyl 2,6-dimethoxy-3-nitrobenzoate
Formula: C10 H11 N O6
CAS: 55776-20-0
Molecular weight: 241
Origin: NIST Mass Spectrometry Data Center, 1994
m/z	RELATIVE INTENSITY
12	46
13	51
15	3316
17	69
18	155
30	1169
37	195
38	562
39	1295
40	48
42	43
44	17
45	1654
46	183
49	164
50	1274
51	848
52	466
53	1115
54	208
55	179
56	52
59	369
60	59
61	448
62	907
63	1034
64	427
65	1424
66	660
67	187
68	215
69	430
70	33
75	788
76	1741
77	2271
78	2105
79	1115
80	442
81	172
82	96
83	186
85	54
89	97
90	317
91	476
92	461
93	678
94	320
95	281
96	221
97	50
104	413
105	754
106	971
107	1083
108	215
109	319
110	83
118	540
119	340
120	313
121	1200
122	418
123	186
125	46
126	587
132	37
133	246
134	794
135	1009
136	285
137	1930
138	158
145	234
146	124
147	154
148	37
149	736
150	1420
151	332
152	127
153	71
162	259
163	282
164	649
165	843
166	133
177	50
179	9999
180	1545
181	211
183	209
192	487
193	286
194	488
195	97
196	92
207	40
208	39
210	3311
211	532
212	81
224	783
225	137
241	2761
242	299
243	63
