Mass Spectrum: 3-Cyclohexene-1-ethanol, .alpha.-ethenyl-.alpha.,3-dimethyl-6-(1-methylethylidene)-
Formula: C15 H24 O
CAS: 55780-93-3
Molecular weight: 220
m/z	RELATIVE INTENSITY
91	4300
93	3000
105	2600
107	1600
119	9999
120	1000
131	500
133	6399
134	3700
135	1100
145	400
146	600
147	400
159	400
175	300
187	500
220	300
