Mass Spectrum: Isobutylene epoxide
Formula: C4 H8 O
CAS: 558-30-5
Molecular weight: 72
Origin: Japan AIST/NIMC Database- Spectrum MS-NW-1577
m/z	RELATIVE INTENSITY
13	20
14	139
15	499
16	10
17	50
18	189
25	40
26	399
27	3569
28	309
29	1519
30	50
31	669
32	90
33	10
36	20
37	229
38	409
39	2579
40	1739
41	9999
42	7739
43	4889
44	289
45	189
49	20
50	70
51	50
52	10
53	119
54	60
55	109
56	50
57	829
58	60
59	30
69	30
70	40
71	129
72	4959
73	239
74	10
