Mass Spectrum: tert-Butyl iodide
Formula: C4 H9 I
CAS: 558-17-8
Molecular weight: 184
Origin: ATLANTIC REFINING CO., PHILADELPHIA, PENNSYLVANIA
m/z	RELATIVE INTENSITY
27	1547
28	24
29	4005
31	43
36	597
37	155
38	455
39	2315
41	5289
42	574
43	1320
44	64
45	200
50	111
51	142
52	48
53	224
54	62
55	864
56	353
57	9999
58	429
127	798
139	17
155	13
169	158
184	146
