Mass Spectrum: 2,3-Dimethylbenzamide
Formula: C9 H11 N O
CAS: 5580-34-7
Molecular weight: 149
Origin: NIST Mass Spectrometry Data Center
m/z	RELATIVE INTENSITY
15	250
16	230
17	300
18	150
19	70
26	290
27	1812
28	270
29	250
30	170
32	60
37	230
38	540
39	2752
40	350
41	420
42	140
43	270
44	2502
50	1491
51	3463
52	1181
53	1011
54	160
59	120
60	70
61	250
62	701
63	1782
64	450
65	1411
66	440
67	90
74	581
75	410
76	651
77	6085
78	2762
79	3763
80	300
85	100
86	160
87	130
89	540
90	290
91	2833
92	310
93	90
101	180
102	641
103	3503
104	3883
105	9368
106	1341
107	100
116	520
117	200
118	170
120	110
128	70
129	60
130	410
132	7397
133	9699
134	1181
135	60
149	9999
150	1111
151	60
