Mass Spectrum: 3-Methyl-4-decanol
Formula: C11 H24 O
CAS: 55816-17-6
Molecular weight: 172
Origin: NIST Mass Spectrometry Data Center, 1990.
m/z	RELATIVE INTENSITY
27	1418
28	1091
29	3055
30	151
31	499
39	1068
41	4086
42	604
43	2998
44	1088
45	3047
53	351
55	9999
56	1178
57	2444
58	427
59	192
67	284
69	3472
70	602
71	476
72	230
81	334
83	276
85	284
86	289
87	2122
88	127
97	8430
98	704
113	251
114	775
115	2582
116	203
