Mass Spectrum: Mepronil
Formula: C17 H19 N O2
CAS: 55814-41-0
Molecular weight: 269
Origin: S.M. Lee, CA Export Lab. Services, CA, USA
m/z	RELATIVE INTENSITY
51	50
52	30
53	30
54	10
62	20
63	90
64	70
65	500
66	40
67	10
77	30
78	10
79	20
80	40
81	70
82	10
89	160
90	170
91	2422
92	210
93	20
94	10
105	40
106	10
107	10
108	20
109	60
110	10
117	20
119	9999
120	871
121	60
122	10
135	20
136	10
148	20
149	10
180	20
181	20
182	10
183	20
184	10
196	20
197	10
198	50
199	10
208	10
209	30
210	370
211	70
212	10
226	50
227	280
228	50
229	10
254	20
255	10
269	1892
270	360
271	40
272	10
