Mass Spectrum: Hexadecanoic acid, 15-hydroxy-, methyl ester
Formula: C17 H34 O3
CAS: 55823-13-7
Molecular weight: 286
m/z	RELATIVE INTENSITY
41	1040
42	240
43	2560
44	280
45	5559
46	120
67	600
68	520
69	2680
70	480
71	800
73	280
74	8159
75	1320
81	880
82	640
83	2000
84	1360
85	520
87	7879
88	640
136	160
137	200
138	240
141	200
143	1520
144	120
199	1120
200	160
236	2160
237	640
239	960
240	160
242	9999
243	1920
244	200
286	40
