Mass Spectrum: N-Methacryloylglycine, TMS derivative
Formula: C9 H17 N O3 Si
CAS: 55836-40-3
Molecular weight: 215
Origin: ORVAL A. MAMER, ROYAL VICTORIA HOSPITAL, MONTREAL, CANADA
m/z	RELATIVE INTENSITY
14	49
15	354
26	84
27	210
28	690
29	280
30	513
31	113
38	127
39	1823
40	597
41	5963
42	446
43	823
44	422
45	2002
46	154
47	859
48	49
49	36
53	109
54	71
55	204
56	263
57	143
58	517
59	538
60	165
61	578
62	49
68	273
69	8147
70	502
71	88
72	393
73	9999
74	1017
75	3247
76	243
77	194
80	47
81	147
82	181
83	42
84	36
85	61
86	198
87	191
88	211
89	52
96	79
97	163
98	464
99	128
100	165
101	96
102	304
103	58
104	35
112	56
113	38
116	127
117	107
125	52
126	73
127	118
128	74
130	114
131	48
140	122
143	262
144	60
147	46
154	451
155	120
156	1991
157	280
158	100
170	3446
171	2083
172	407
173	94
200	1919
201	290
202	102
