Mass Spectrum: 3,3-Diphenylpropylamine
Formula: C15 H17 N
CAS: 5586-73-2
Molecular weight: 211
Origin: Japan AIST/NIMC Database- Spectrum MS-NW-5665
m/z	RELATIVE INTENSITY
14	10
15	40
16	10
26	30
27	179
28	329
29	50
30	8649
31	329
32	40
38	40
39	459
40	30
41	80
42	149
43	209
44	719
45	20
50	209
51	629
52	139
53	60
54	30
55	30
56	109
57	50
58	289
59	20
61	10
62	99
63	339
64	60
65	279
66	40
67	10
69	30
70	10
71	20
72	10
73	10
74	90
75	129
76	169
77	999
78	379
79	189
80	20
81	20
82	70
83	30
85	10
86	40
87	60
88	40
89	259
90	70
91	509
92	80
93	329
94	40
96	10
98	20
99	10
100	10
101	50
102	209
103	1039
104	539
105	129
106	949
107	119
110	10
111	10
113	40
114	30
115	1009
116	1849
117	759
118	109
119	40
120	20
121	10
122	10
125	10
126	70
127	70
128	229
129	50
130	70
131	20
132	269
133	229
134	30
135	10
137	10
138	20
139	189
140	40
141	139
142	20
146	10
150	40
151	139
152	1039
153	349
154	80
155	20
162	10
163	129
164	189
165	2639
166	969
167	3299
168	2009
169	299
170	30
174	10
175	10
176	80
177	90
178	699
179	1509
180	389
181	159
182	40
183	10
187	10
189	30
190	30
191	70
192	119
193	4849
194	9999
195	1489
196	119
197	10
204	30
205	30
206	20
207	40
208	40
209	40
210	20
211	1089
212	199
213	20
