Mass Spectrum: p-(Chlorophenyl)acetone
Formula: C9 H9 Cl O
CAS: 5586-88-9
Molecular weight: 168
Origin: NIST Mass Spectrometry Data Center, 1994
m/z	RELATIVE INTENSITY
13	16
14	89
15	549
16	10
26	47
27	109
29	34
35	19
36	17
37	68
38	187
39	558
40	53
41	51
42	17
43	9999
44	266
47	14
48	6
49	66
50	302
51	326
52	42
53	17
57	13
60	22
61	118
62	353
63	911
64	150
65	148
66	14
72	25
73	250
74	123
75	228
76	47
77	117
78	17
79	13
84	23
85	68
86	95
87	95
88	13
89	1206
90	337
91	236
92	15
97	34
99	320
100	23
101	122
102	31
103	35
104	8
115	19
118	21
123	18
125	1804
126	452
127	597
128	139
129	9
131	7
168	573
169	63
170	211
171	17
