Mass Spectrum: Propane, 1,1'-thiobis[3-chloro-
Formula: C6 H12 Cl2 S
CAS: 55882-21-8
Molecular weight: 186
Origin: Dennis Rohrbaugh, CBDCOM/ERDEC, Edgewood, MD
m/z	RELATIVE INTENSITY
41	9999
45	3619
46	2115
47	3660
49	2636
51	702
59	570
60	322
61	8263
62	380
63	553
73	644
74	487
75	727
76	1148
77	495
81	471
83	165
87	239
95	123
108	239
109	454
110	2545
111	305
112	999
123	3941
124	256
125	1487
127	33
137	165
139	49
151	115
186	1090
187	140
188	752
