Mass Spectrum: Mesoridazine
Formula: C21 H26 N2 O S2
CAS: 5588-33-0
Molecular weight: 386
Origin: AAFS Toxicology Section MS DB Committee, U. Alberta, Canada
m/z	RELATIVE INTENSITY
30	80
31	10
32	20
37	50
39	90
40	10
41	240
42	960
43	110
44	230
45	70
46	30
47	30
49	10
50	20
53	40
54	60
55	160
56	70
57	120
58	110
59	10
61	20
62	10
63	60
64	20
65	30
67	90
68	230
69	160
70	1651
71	110
73	10
75	50
76	20
77	60
79	30
80	40
81	30
82	160
83	70
84	100
86	30
88	10
89	20
90	20
91	20
92	10
93	60
94	100
95	100
96	390
98	9999
99	660
100	20
101	10
102	20
103	10
105	50
106	20
108	80
109	80
110	90
111	110
112	170
114	80
115	40
117	20
119	30
120	40
122	90
123	10
124	210
125	180
126	730
127	90
128	20
136	30
138	30
139	100
140	70
141	40
142	40
143	30
145	40
146	30
147	30
149	30
151	70
152	100
153	180
154	50
155	10
158	30
159	40
160	20
162	20
164	60
165	40
166	50
167	190
168	30
169	60
170	100
171	110
172	40
173	10
177	40
178	120
179	330
180	100
181	10
182	30
183	50
184	100
185	350
186	100
187	30
190	30
191	80
192	50
193	70
194	10
195	60
196	550
197	620
198	260
199	100
200	30
201	20
203	20
209	90
210	320
211	350
212	170
213	40
214	10
222	60
223	240
224	190
225	180
226	110
227	120
228	80
229	130
230	70
232	10
236	20
239	20
241	90
243	170
245	570
246	200
248	20
252	10
254	60
256	90
258	170
259	470
260	230
261	170
263	10
270	140
272	130
273	260
274	280
275	260
276	10
287	200
288	40
290	10
302	20
315	40
318	10
323	20
327	10
356	30
360	10
367	30
369	170
370	190
371	90
372	30
384	30
386	1090
387	300
388	130
389	30
390	10
391	10
