Mass Spectrum: Benzenepropanoic acid, 3-methoxy-.alpha.,4-bis[(trimethylsilyl)oxy]-, trimethylsilyl ester
Formula: C19 H36 O5 Si3
CAS: 55887-61-1
Molecular weight: 428
Origin: ORVAL A. MAMER, ROYAL VICTORIA HOSPITAL, MONTREAL, CANADA
m/z	RELATIVE INTENSITY
14	65
15	135
18	163
28	705
29	59
32	126
44	179
45	1245
46	81
47	110
55	86
58	105
59	405
61	65
69	165
72	121
73	9667
74	854
75	772
77	104
89	168
91	77
103	67
105	62
117	112
119	85
131	177
133	240
135	80
147	1755
148	311
149	441
150	71
163	106
165	69
177	124
179	1115
180	205
181	85
191	79
192	160
193	194
204	71
207	199
209	9999
210	1768
211	528
212	70
219	95
221	330
222	97
223	210
249	110
267	71
281	283
282	97
292	173
295	168
311	242
312	75
323	219
324	71
338	1260
339	375
340	174
355	142
385	136
413	411
415	116
428	484
431	64
