Mass Spectrum: 3-(3-Hydroxyphenyl)propanoic acid, 2TMS derivative
Formula: C15 H26 O3 Si2
CAS: 55887-87-1
Molecular weight: 310
Origin: MO-109
m/z	RELATIVE INTENSITY
15	139
27	157
28	319
29	126
39	116
43	520
44	316
45	1912
46	141
47	660
51	132
55	756
57	115
58	173
59	532
60	131
61	474
63	113
65	113
72	230
73	7247
74	776
75	5996
76	528
77	719
78	197
79	128
89	293
90	219
91	430
102	117
103	413
104	200
105	759
115	255
116	141
117	233
119	140
121	147
129	149
131	262
133	316
135	458
140	560
147	995
148	233
149	711
151	435
161	448
163	585
166	233
177	3093
178	756
179	1487
180	321
181	151
192	8143
193	3587
194	861
195	205
205	9999
206	1821
207	604
220	191
221	188
253	171
279	152
295	577
296	172
310	4595
311	1283
312	516
313	109
