Mass Spectrum: 3-Morpholinone, 5-methyl-6-phenyl-
Formula: C11 H13 N O2
CAS: 5588-29-4
Molecular weight: 191
Origin: Finnigan MAT: Toxicological Library (LIBR-TX)
m/z	RELATIVE INTENSITY
42	687
43	588
44	3860
51	566
57	7680
63	315
65	305
77	808
85	9999
86	511
89	494
90	594
91	1137
103	99
105	592
106	96
107	95
115	200
117	415
118	195
119	193
191	103
