Mass Spectrum: Cyclopentene, octafluoro-
Formula: C5 F8
CAS: 559-40-0
Molecular weight: 212
Origin: S.Huang, Org.Mass Spectrom. 24, 1065 (1989)
m/z	RELATIVE INTENSITY
50	460
55	510
62	420
69	1441
71	370
72	370
74	1021
86	420
93	9999
94	370
100	561
105	420
112	1631
113	280
117	320
124	1071
131	510
143	6025
144	510
162	8878
163	561
174	370
193	5845
194	370
212	3924
213	210
