Mass Spectrum: D:A-Friedooleanane
Formula: C30 H52
CAS: 559-73-9
Molecular weight: 412
Origin: CARL DJERASSI DEPT OF CHEM STANFORD UNIV STANFORD CALIF 94305
m/z	RELATIVE INTENSITY
40	198
41	5149
42	1089
43	5644
44	1485
45	297
47	198
51	198
52	99
53	1287
54	693
55	5446
56	2079
57	3960
58	99
60	396
65	297
66	198
67	5149
68	3663
69	6040
70	1980
71	1782
73	99
74	99
77	1089
78	297
79	3168
80	891
81	5545
82	3861
83	4158
84	792
85	990
88	198
91	2079
92	594
93	3960
94	1881
95	5842
96	4653
97	3564
98	594
99	99
105	1980
106	693
107	3762
108	2475
109	5743
110	2277
111	2475
112	297
113	99
116	198
117	198
119	1485
120	693
121	3762
122	2475
123	4653
124	2178
125	3267
126	495
127	99
128	198
129	198
131	198
132	99
133	1089
134	792
135	3762
136	2178
137	3960
138	1089
139	297
140	99
142	99
143	99
145	396
146	99
147	1089
148	1188
149	7327
150	3168
151	1683
152	495
153	198
159	99
161	594
162	990
163	2574
164	1089
165	792
173	99
175	594
176	297
177	2574
178	1584
179	3366
180	594
187	99
189	990
190	2574
191	2475
192	792
193	297
194	198
203	1485
204	5545
205	3465
206	1980
207	891
208	198
215	99
216	198
217	3366
218	3366
219	1089
220	1386
221	396
222	99
230	99
231	693
232	2475
233	4455
234	2673
235	594
243	99
245	396
247	99
248	99
257	99
258	99
259	5050
260	2277
261	1782
262	396
263	99
273	396
274	198
275	99
284	99
287	198
288	792
289	99
301	99
302	99
330	99
395	198
396	198
397	3168
398	1188
399	297
410	198
411	198
412	9999
413	3366
414	594
