Mass Spectrum: Vanadium, oxotris(trimethylsilanolato)-, (T-4)-
Formula: C9 H27 O4 Si3 V
CAS: 5590-56-7
Molecular weight: 334
m/z	RELATIVE INTENSITY
44	100
73	500
75	3000
147	500
257	500
258	1000
259	700
260	300
272	2000
273	2300
274	700
275	300
288	2000
289	1900
290	700
291	300
319	9999
320	2400
321	1300
