Mass Spectrum: Cyclopropanecarbonitrile, 2-phenyl-, trans-
Formula: C10 H9 N
CAS: 5590-14-7
Molecular weight: 143
Origin: MASS SPECTROMETRY CENTER, UNIV. OF UTAH ALDRICH C09430-0
m/z	RELATIVE INTENSITY
26	458
27	547
37	400
38	881
39	2525
40	523
41	473
50	1315
51	2582
52	689
53	162
57	627
58	599
61	315
62	672
63	1660
64	566
65	879
66	70
70	263
74	667
75	551
76	471
77	1346
78	538
86	128
87	297
88	248
89	1396
90	614
91	1676
92	195
101	153
102	417
103	687
104	162
113	294
114	537
115	6712
116	6606
117	1164
126	122
128	322
140	548
141	389
142	1731
143	9999
144	1114
