Mass Spectrum: 2H-1,3-Benzoxazine, 6-(1,1-dimethylethyl)-3,4-dihydro-3-phenyl-
Formula: C18 H21 N O
CAS: 55955-97-0
Molecular weight: 267
m/z	RELATIVE INTENSITY
12	18
13	18
14	96
15	392
16	35
17	154
18	658
19	18
25	18
26	98
27	294
28	1490
29	1018
30	203
31	2090
32	1650
33	39
36	60
37	232
38	426
39	1094
40	318
41	471
42	147
43	211
44	441
45	501
46	124
47	50
48	16
49	99
50	813
51	1811
52	1173
53	264
54	262
55	177
56	83
57	158
58	71
59	124
60	56
61	166
62	271
63	564
64	296
65	1633
66	2584
67	354
68	67
69	67
70	49
71	73
72	37
73	132
74	360
75	241
76	305
77	5394
78	824
79	154
80	39
81	75
82	88
83	75
84	35
85	56
86	49
87	75
88	56
89	130
90	88
91	2384
92	2475
93	9999
94	764
95	71
96	41
97	56
98	45
99	39
100	18
101	22
102	37
103	132
104	5413
105	6300
106	782
107	305
108	94
109	111
110	169
111	99
112	22
113	20
115	79
116	28
117	111
118	88
119	328
120	215
121	226
122	56
123	22
124	11
125	20
126	33
127	41
128	33
129	37
130	18
131	28
132	41
133	84
134	50
135	58
136	30
137	35
138	79
139	33
140	32
141	22
142	54
143	26
144	16
145	24
146	24
147	603
148	122
149	481
150	71
151	18
152	15
154	37
155	26
156	28
157	13
159	18
161	120
162	335
163	271
164	150
165	41
166	11
167	11
169	18
170	24
171	13
172	11
173	11
175	18
176	49
177	66
178	41
179	18
183	18
191	64
192	20
193	11
194	11
196	26
197	26
198	30
199	13
200	18
201	16
202	22
203	30
204	18
205	22
206	20
207	22
208	18
210	18
211	37
212	15
215	15
216	15
217	22
218	18
219	18
220	13
221	18
222	11
223	11
224	11
236	18
237	18
238	226
239	56
244	18
251	16
252	64
253	111
254	18
255	24
267	60
268	18
