Mass Spectrum: 2-Butenamide, N,N-dicyclohexyl-
Formula: C16 H27 N O
CAS: 55955-94-7
Molecular weight: 249
m/z	RELATIVE INTENSITY
15	35
17	62
18	297
26	26
27	396
28	280
29	646
30	329
31	93
38	32
39	967
40	170
41	5160
42	421
43	725
44	810
45	130
46	53
50	39
51	116
52	59
53	455
54	609
55	3566
56	2598
57	313
58	98
59	75
60	71
61	17
62	21
63	62
64	25
65	166
66	89
67	648
68	754
69	9999
70	842
71	161
72	59
73	82
74	35
76	23
77	143
78	59
79	333
80	344
81	1025
82	1322
83	1913
84	421
85	252
86	2347
87	164
88	672
89	64
91	462
92	306
93	111
94	163
95	175
96	917
97	528
98	4838
99	616
100	582
101	87
103	21
104	34
106	28
107	39
108	209
109	170
110	3621
111	688
112	482
113	143
114	30
115	19
117	28
120	19
121	34
122	179
123	143
124	2275
125	691
126	322
127	111
128	73
129	26
131	17
132	17
133	17
134	17
135	26
136	197
137	59
138	3519
139	1645
140	170
141	75
145	35
148	17
149	17
150	349
151	91
152	2462
153	376
154	145
155	322
156	62
164	636
165	243
166	5034
167	1290
168	2670
169	329
170	80
173	125
174	21
176	17
178	573
179	195
180	716
181	313
182	71
192	4587
193	1143
194	170
195	26
201	50
205	37
206	1756
207	333
208	89
220	342
221	145
235	3781
236	68
240	19
242	34
247	71
248	141
249	3781
250	727
251	78
