Mass Spectrum: Bicyclo[3.2.0]heptane, trans
Formula: C7 H12
CAS: 5597-72-8
Molecular weight: 96
Origin: R.Herzschuh ET AL. J.Prakt.Chem.,322,450(1980)
m/z	RELATIVE INTENSITY
39	5825
40	1201
41	3423
42	701
51	380
52	190
53	2532
54	9659
55	5825
56	250
65	440
66	631
67	9999
68	6206
69	380
77	250
78	701
81	3733
82	380
95	440
96	220
