Mass Spectrum: Benzenepropanoic acid, 4-hydroxy-, methyl ester
Formula: C10 H12 O3
CAS: 5597-50-2
Molecular weight: 180
Origin: NIST Mass Spectrometry Data Center
m/z	RELATIVE INTENSITY
15	70
26	20
27	120
28	10
29	80
30	10
31	30
33	10
37	10
38	60
39	450
40	60
41	70
42	110
43	60
44	10
45	60
46	20
49	10
50	130
51	390
52	190
53	310
54	30
55	240
56	10
59	210
61	40
62	110
63	300
64	100
65	591
66	150
67	40
68	10
69	10
74	50
75	50
76	40
77	1391
78	360
79	170
80	20
81	50
82	10
86	10
87	20
89	120
90	50
91	1021
92	150
93	100
94	370
95	100
96	10
101	20
102	40
103	290
104	30
105	100
107	9999
108	851
109	70
110	10
115	10
118	40
119	490
120	4504
121	681
122	60
123	300
124	20
131	20
135	10
136	10
137	130
138	10
147	60
148	20
149	310
150	30
163	10
164	10
165	20
180	2042
181	230
182	20
