Mass Spectrum: Phosphoric acid, diethyl 3,5,6-trichloro-2-pyridyl ester
Formula: C9 H11 Cl3 N O4 P
CAS: 5598-15-2
Molecular weight: 333
Origin: NIST Mass Spectrometry Data Center, 1990.
m/z	RELATIVE INTENSITY
12	18
13	47
15	878
18	70
19	102
24	27
25	126
26	1030
27	5371
28	18
29	9999
30	279
35	109
36	202
37	384
38	88
39	66
41	141
42	150
43	934
44	86
45	963
46	66
47	1792
48	128
49	348
50	59
51	103
52	87
53	307
54	43
55	19
59	22
60	144
61	67
62	373
63	794
64	290
65	986
66	31
67	44
69	17
71	258
72	794
73	298
74	434
75	492
76	120
77	76
78	29
79	52
80	17
81	8491
82	242
83	358
84	282
85	206
86	168
87	133
88	61
89	52
90	29
91	2896
92	125
93	235
94	114
95	53
96	124
97	344
98	3074
99	750
100	981
101	121
102	36
105	31
106	282
107	2376
108	31
109	8467
110	840
111	440
112	221
114	242
115	51
116	123
117	71
118	69
119	199
120	62
121	146
122	39
123	78
124	45
125	269
126	80
127	168
128	53
129	58
132	193
133	1206
134	1013
135	1008
136	681
137	539
138	120
139	29
140	19
141	66
142	122
143	110
144	756
145	302
146	554
147	159
148	143
149	71
150	308
151	29
152	204
153	75
154	56
155	49
156	19
161	1378
162	577
163	955
164	336
165	208
166	66
167	19
168	1807
169	2370
170	1907
171	2161
172	772
173	718
174	148
175	92
176	22
177	22
178	443
179	19
180	1226
181	249
182	1088
183	192
184	389
185	71
186	40
188	18
189	63
190	316
191	61
192	190
193	36
194	54
197	7681
198	1263
199	7100
200	856
201	2389
202	206
203	269
204	20
205	81
206	172
207	995
208	317
209	904
210	417
211	330
212	254
213	80
214	71
215	200
217	146
218	23
219	50
224	459
225	152
226	488
227	111
228	184
229	30
230	25
231	35
233	31
239	16
242	6371
243	706
244	4152
245	319
246	712
247	37
252	87
253	30
254	115
255	24
256	73
259	529
260	1561
261	601
262	1523
263	270
264	464
265	62
266	63
268	147
270	7276
271	1100
272	4793
273	476
274	746
275	66
276	30
277	30
278	347
279	63
280	302
281	32
282	151
283	23
284	36
286	13
288	456
289	100
290	502
291	70
292	211
293	32
294	30
295	18
298	5242
299	861
300	3705
301	431
302	676
303	82
304	48
305	51
306	127
307	43
308	88
309	20
318	28
333	929
334	232
335	1039
336	162
337	334
338	50
339	27
