Mass Spectrum: 3-Ethylcarbazole
Formula: C14 H13 N
CAS: 5599-49-5
Molecular weight: 195
Origin: NIST Mass Spectrometry Data Center, 1990.
m/z	RELATIVE INTENSITY
27	233
28	358
32	1
39	249
50	138
51	289
62	181
63	459
64	131
70	149
74	180
75	327
76	388
77	809
82	185
84	393
87	178
88	157
89	336
90	898
96	242
97	155
98	383
101	154
102	109
113	184
126	194
127	269
128	233
138	120
139	468
140	304
150	166
151	420
152	969
153	318
154	114
164	213
165	185
166	305
167	580
168	226
177	182
178	729
180	9999
181	1392
190	134
191	339
192	292
193	355
194	820
195	3406
196	543
