Mass Spectrum: Tributyltin acetate
Formula: C14 H30 O2 Sn
CAS: 56-36-0
Molecular weight: 350
Origin: Japan AIST/NIMC Database- Spectrum MS-NW-2629
m/z	RELATIVE INTENSITY
12	10
13	20
14	90
15	319
16	30
17	60
18	369
25	10
26	189
27	1159
28	609
29	4319
30	99
31	10
32	20
34	10
38	30
39	529
40	70
41	3339
42	159
43	699
44	40
45	379
50	20
51	30
52	10
53	90
54	30
55	339
56	269
57	3779
58	189
60	289
69	20
71	20
83	10
97	10
111	10
112	10
113	60
115	40
116	189
117	759
118	639
119	1279
120	789
121	1569
122	109
123	399
124	60
125	289
127	40
129	50
130	30
131	109
132	99
133	779
134	439
135	1199
136	429
137	1539
138	30
139	289
141	289
143	50
144	20
145	129
146	60
147	189
148	60
149	179
150	20
151	50
153	50
154	10
155	40
157	20
159	20
160	10
161	30
162	10
163	20
165	10
167	10
169	119
170	10
171	289
172	80
173	1719
174	1039
175	5329
176	2509
177	8419
178	2479
179	8599
180	509
181	2479
182	90
183	1419
184	60
185	209
186	20
187	20
188	20
189	40
190	40
191	60
192	40
193	60
194	20
195	30
196	10
197	20
198	10
199	20
200	10
201	20
203	30
204	20
205	30
206	10
207	30
208	10
209	30
210	20
211	50
212	20
213	60
214	10
215	20
216	10
217	10
220	10
221	10
223	10
225	50
226	10
227	50
228	40
229	609
230	379
231	1119
232	569
233	1609
234	429
235	739
236	209
237	489
238	70
239	99
240	30
241	50
248	10
249	20
250	10
251	30
252	10
253	30
254	10
255	10
256	10
257	10
259	20
260	10
261	30
262	10
263	40
264	10
265	60
266	30
267	90
268	40
269	99
270	20
271	40
272	10
273	30
275	10
277	10
278	10
279	10
280	10
281	10
282	10
283	20
284	10
285	339
286	50
287	359
288	229
289	4539
290	2859
291	7809
292	3419
293	9999
294	1079
295	1449
296	159
297	1649
298	179
299	10
311	20
313	20
315	10
