Mass Spectrum: Serine
Formula: C3 H7 N O3
CAS: 56-45-1
Molecular weight: 105
Origin: Japan AIST/NIMC Database- Spectrum MS-NW-2507
m/z	RELATIVE INTENSITY
12	10
13	30
14	99
15	1439
16	50
17	49
18	419
19	10
25	20
26	80
27	279
28	5719
29	2459
30	1879
31	1209
32	60
33	20
38	30
39	50
40	159
41	509
42	4359
43	859
44	409
45	439
46	989
47	60
53	10
54	20
55	40
56	149
57	2649
58	289
59	219
60	9999
61	259
62	20
68	10
69	109
70	90
71	50
74	6109
75	3579
76	119
77	10
82	10
87	129
88	10
104	20
