Mass Spectrum: Quinidine
Formula: C20 H24 N2 O2
CAS: 56-54-2
Molecular weight: 324
Origin: Sigma Chemical Company
m/z	RELATIVE INTENSITY
41	2430
42	2579
43	677
44	898
51	406
52	380
53	967
54	599
55	1121
56	1109
57	358
65	246
66	325
67	630
68	499
69	519
70	294
77	403
79	1377
80	480
81	1749
82	1269
89	389
90	297
91	292
94	567
95	972
96	366
108	410
109	321
116	662
117	1112
122	450
126	283
128	407
134	321
136	9999
137	1121
138	547
141	275
145	358
154	277
158	761
159	817
160	876
172	1005
173	1677
174	1124
182	316
184	291
186	767
187	343
188	975
189	2994
190	428
198	456
199	320
200	388
202	231
214	260
240	208
283	696
309	615
323	303
324	3900
325	679
326	450
