Mass Spectrum: Chloramphenicol
Formula: C11 H12 Cl2 N2 O5
CAS: 56-75-7
Molecular weight: 322
Origin: MASS SPECTROMETRY CENTER, UNIV. OF UTAH ALDRICH 85744-0
m/z	RELATIVE INTENSITY
12	79
13	28
14	128
15	702
19	148
26	234
27	924
28	3024
29	1509
30	3063
31	1992
35	331
36	1315
37	238
38	754
39	1229
40	366
41	576
42	2074
43	1863
44	831
45	241
46	89
47	127
48	488
49	568
50	1441
51	2771
52	1091
53	347
54	331
55	482
56	143
57	169
58	327
59	544
60	7616
61	401
62	331
63	911
64	484
65	832
66	711
67	124
68	30
69	198
70	5135
71	310
72	121
73	231
74	426
75	619
76	2031
77	3801
78	2910
79	814
80	164
81	96
82	26
83	2277
84	105
85	1431
86	405
87	349
88	203
89	908
90	922
91	716
92	613
93	239
94	733
95	181
98	7
99	22
100	81
101	78
102	298
103	344
104	871
105	1666
106	3008
107	386
108	244
110	48
111	144
112	37
113	86
115	126
116	346
117	923
118	2517
119	511
120	835
121	343
122	605
123	316
124	353
126	193
128	171
129	154
130	265
131	191
132	173
133	138
134	235
135	808
136	2778
137	505
138	193
140	40
142	45
144	73
145	243
146	223
147	202
148	98
149	67
150	668
151	601
152	1855
153	9999
154	1402
155	3589
156	311
157	590
160	117
161	45
163	63
164	374
165	296
166	37
169	8
170	3748
171	305
172	2377
173	194
174	509
175	144
176	14
177	48
178	24
179	24
180	32
181	246
190	24
191	305
192	35
195	87
207	59
209	158
211	38
221	73
239	15
273	32
274	47
275	29
276	7
291	285
293	191
