Mass Spectrum: Aspartic acid
Formula: C4 H7 N O4
CAS: 56-84-8
Molecular weight: 133
Origin: Japan AIST/NIMC Database- Spectrum MS-IW- 985
m/z	RELATIVE INTENSITY
13	10
14	60
15	399
16	30
17	229
18	919
19	10
25	10
26	70
27	339
28	2919
29	209
30	619
31	30
32	10
35	20
36	30
38	20
39	30
40	129
41	349
42	1339
43	4659
44	589
45	539
46	1549
47	30
53	40
54	20
55	109
56	50
57	10
59	10
60	339
61	20
68	50
69	90
70	5809
71	289
72	40
73	50
74	1129
75	30
86	60
87	639
88	9999
89	439
90	50
98	20
99	30
115	199
116	40
132	30
133	109
134	50
