Mass Spectrum: 1H-3a,7-Methanoazulene, 2,3,6,7,8,8a-hexahydro-1,4,9,9-tetramethyl-, (1.alpha.,3a.alpha.,7.alpha.,8a.beta.)-
Formula: C15 H24
CAS: 560-32-7
Molecular weight: 204
m/z	RELATIVE INTENSITY
27	871
28	731
29	981
30	80
39	1171
40	190
41	3323
42	190
43	1141
44	50
51	330
52	160
53	1011
54	110
55	2552
56	140
57	220
63	140
64	160
65	711
66	190
67	981
68	110
69	1331
70	110
71	50
72	50
75	50
76	30
77	1682
78	430
79	2392
80	380
81	1361
82	160
83	110
84	50
85	140
89	80
91	2772
92	571
93	7507
94	1031
95	821
96	220
97	50
102	50
103	300
104	160
105	3323
106	651
107	6146
108	4084
109	761
110	80
115	380
116	190
117	490
118	140
119	2552
120	651
121	1031
122	380
123	220
124	50
127	110
128	190
129	190
130	110
131	330
132	140
133	1201
134	1091
135	9999
136	1301
137	80
141	50
143	50
144	50
145	240
146	80
147	821
148	380
149	140
150	50
151	50
159	110
160	80
161	2172
162	460
163	50
175	220
176	80
187	50
188	50
189	1301
190	160
204	2362
205	380
