Mass Spectrum: Methane, bromotrinitro-
Formula: C Br N3 O6
CAS: 560-95-2
Molecular weight: 229
Origin: J.T.LARKINS, U.S. DEPT. OF COMMERCE, WASHINGTON, D.C., USA
m/z	RELATIVE INTENSITY
30	81
42	81
46	3049
79	2561
81	2480
104	691
137	854
139	813
150	3984
183	9999
185	9837
