Mass Spectrum: 2-Pentenedioic acid, 2-methoxy-, dimethyl ester
Formula: C8 H12 O5
CAS: 56009-33-7
Molecular weight: 188
Origin: NIST Mass Spectrometry Data Center
m/z	RELATIVE INTENSITY
14	150
15	3483
16	50
25	10
26	410
27	1631
28	1321
29	1621
30	230
31	591
32	50
33	180
34	10
35	20
37	100
38	310
39	2062
40	550
41	2322
42	2762
43	1581
44	170
45	7377
46	150
47	40
49	20
50	140
51	200
52	150
53	1331
54	661
55	7247
56	841
57	370
58	110
59	6005
60	130
61	110
62	10
63	10
65	30
66	70
67	160
68	611
69	2012
70	320
71	831
72	80
73	270
74	390
75	110
77	10
79	40
80	40
81	701
82	470
83	901
84	160
85	591
86	60
87	1521
88	80
89	10
93	10
94	30
95	270
96	871
97	1491
98	591
99	460
100	661
101	891
102	110
103	20
108	20
109	160
110	30
111	721
112	1772
113	1832
114	70
115	9999
116	601
117	80
123	140
124	30
125	2612
126	290
127	280
128	2362
129	3513
130	260
131	40
133	30
138	10
139	50
140	1161
141	1692
142	170
143	80
144	20
145	10
146	10
155	170
156	130
157	340
158	420
159	30
160	10
169	10
170	10
173	110
174	10
188	60
189	10
