Mass Spectrum: Pentanoic acid, 3-hydroxy-, methyl ester
Formula: C6 H12 O3
CAS: 56009-31-5
Molecular weight: 132
Origin: INST.OF CLINICAL BIOCHEM,RIKSHOSP,UNIV.OF OSLO,E.JELLUM,ET.A
m/z	RELATIVE INTENSITY
27	800
29	2800
31	2900
33	800
39	500
41	2000
42	1100
43	9999
44	1000
45	500
55	1200
57	3600
59	6200
61	4500
71	8600
72	800
74	7200
75	500
83	800
99	500
101	2300
103	9600
104	500
114	500
