Mass Spectrum: Lanosta-7,9(11)-dien-3-ol, acetate, (3.beta.)-
Formula: C32 H52 O2
CAS: 5600-01-1
Molecular weight: 468
Origin: C.J.W.BROOKS, GLASGOW UNIV., UK
m/z	RELATIVE INTENSITY
43	500
55	300
57	650
69	600
71	600
81	350
83	1300
95	700
97	600
107	600
109	500
111	400
119	600
121	400
123	550
131	400
132	600
133	600
134	400
135	500
145	650
146	450
147	400
157	400
159	650
161	300
171	600
173	800
185	400
187	500
193	300
199	450
201	650
213	700
225	700
226	270
227	800
228	550
239	900
240	4000
241	1700
242	400
253	4300
254	1300
255	450
257	350
273	500
286	750
287	450
288	700
295	1200
296	350
300	600
301	750
302	300
313	2700
314	1000
339	400
355	800
356	300
365	400
393	2600
394	850
408	2000
409	1000
453	1700
454	550
468	9999
469	3800
