Mass Spectrum: Glycine, N-(3-methyl-1-oxo-2-butenyl)-, methyl ester
Formula: C8 H13 N O3
CAS: 56009-34-8
Molecular weight: 171
Origin: INST.OF CLINICAL BIOCHEM,RIKSHOSP,UNIV.OF OSLO,E.JELLUM,ET.A
m/z	RELATIVE INTENSITY
41	1100
42	500
43	500
44	1000
53	1300
54	1800
55	4700
56	800
71	500
82	8100
83	9999
84	800
101	800
112	500
171	2100
