Mass Spectrum: Glycine, N-(3-methyl-1-oxobutyl)-, methyl ester
Formula: C8 H15 N O3
CAS: 56009-37-1
Molecular weight: 173
Origin: INST.OF CLINICAL BIOCHEM,RIKSHOSP,UNIV.OF OSLO,E.JELLUM,ET.A
m/z	RELATIVE INTENSITY
27	1300
29	2900
30	9999
39	1200
41	3500
42	1200
43	2100
44	3300
55	700
56	2100
57	6400
59	600
69	1000
72	600
85	4200
88	2100
89	1000
90	2400
99	1000
103	1000
114	1500
131	7100
173	300
