Mass Spectrum: 4-(4-Nitrophenyl)butyric acid
Formula: C10 H11 N O4
CAS: 5600-62-4
Molecular weight: 209
Origin: NIST Mass Spectrometry Data Center, 1994
m/z	RELATIVE INTENSITY
14	13
15	65
16	25
18	13
26	119
27	554
28	354
29	288
30	1210
31	79
37	60
38	153
39	1058
40	147
41	364
42	399
43	176
44	60
45	1092
46	88
47	24
50	440
51	805
52	289
53	150
55	270
56	35
57	101
58	148
59	24
60	3081
61	158
62	272
63	811
64	326
65	502
66	62
67	65
73	47
74	158
75	208
76	239
77	1210
78	1460
79	231
80	9
81	28
85	31
86	69
87	86
88	9
89	1638
90	997
91	1372
92	170
93	36
94	13
95	26
98	15
101	43
102	269
103	1332
104	800
105	193
106	427
107	250
108	31
113	42
115	1034
116	413
117	610
118	120
119	485
120	511
121	82
122	27
127	62
128	7
131	19
133	2053
134	219
135	34
136	188
137	47
144	34
145	28
147	23
149	1798
150	9999
151	920
152	109
161	107
163	261
164	74
165	25
179	20
191	4582
192	5563
193	743
194	72
195	46
209	1284
210	148
211	7
