Mass Spectrum: Heptanoic acid, phenyl ester
Formula: C13 H18 O2
CAS: 56052-14-3
Molecular weight: 206
Origin: CARL DJERASSI DEPT OF CHEM STANFORD UNIV STANFORD CALIF 94305
m/z	RELATIVE INTENSITY
40	100
41	1800
42	300
43	9999
44	300
51	400
55	1100
56	200
57	1300
59	100
60	100
65	800
66	300
67	600
68	400
71	200
73	300
77	700
83	100
84	200
85	2000
86	100
91	100
92	200
93	2800
94	8400
95	900
99	300
106	200
113	6200
114	500
121	100
134	100
136	100
163	700
206	1100
207	100
