Mass Spectrum: Brallobarbital
Formula: C10 H11 Br N2 O3
CAS: 561-86-4
Molecular weight: 286
Origin: R RYHAGE MS-LAB KAROLINSKA INSTITUTET STOCKHOLM SWEDEN
m/z	RELATIVE INTENSITY
15	93
28	64
30	70
39	140
40	93
41	1129
42	239
43	280
44	128
49	64
50	93
53	111
54	123
55	251
56	88
66	128
67	58
68	93
77	88
78	117
79	228
80	198
81	29
82	47
91	29
93	438
94	140
95	128
96	414
98	123
103	123
104	58
106	117
108	5
112	58
115	93
116	58
117	53
118	169
119	327
120	76
121	467
122	508
123	496
124	1383
125	134
127	82
129	29
136	420
137	35
138	111
139	88
141	251
142	105
146	257
147	443
149	88
151	82
157	41
159	70
160	41
161	47
162	123
163	123
164	385
165	1622
166	618
167	718
168	128
178	41
179	298
184	70
185	64
186	41
189	82
195	64
201	41
202	23
203	88
204	82
205	111
206	146
207	9999
208	1441
209	123
210	35
