Mass Spectrum: Dihexyverine
Formula: C20 H35 N O2
CAS: 561-77-3
Molecular weight: 321
Origin: Finnigan MAT: Toxicological Library (LIBR-TX)
m/z	RELATIVE INTENSITY
54	111
55	605
67	152
68	97
69	183
70	94
79	149
81	254
82	200
83	320
93	58
97	2163
98	9999
110	54
111	4647
113	418
125	34
128	42
154	43
155	35
156	24
164	48
165	57
166	20
238	39
239	42
240	33
