Mass Spectrum: Diacetylmorphine
Formula: C21 H23 N O5
CAS: 561-27-3
Molecular weight: 369
Origin: NIST Mass Spectrometry Data Center
m/z	RELATIVE INTENSITY
14	20
15	280
25	10
26	20
27	90
28	190
29	90
30	240
31	280
32	20
38	20
39	220
40	40
41	270
42	3423
43	9479
44	1912
45	80
50	50
51	230
52	90
53	360
54	100
55	561
56	290
57	460
58	811
59	1121
60	170
61	10
62	30
63	190
64	70
65	340
66	100
67	220
68	200
69	100
70	1601
71	130
72	60
73	20
74	40
75	100
76	110
77	801
78	310
79	300
80	240
81	2642
82	751
83	260
84	100
85	20
86	60
87	40
88	50
89	290
90	110
91	871
92	160
93	180
94	1922
95	310
96	540
97	70
98	40
99	60
100	30
101	260
102	310
103	490
104	280
105	701
106	270
107	450
108	390
109	310
110	260
111	40
112	150
113	90
114	140
115	2112
116	490
117	520
118	330
119	220
120	300
121	170
122	260
123	220
124	2212
125	220
126	220
127	971
128	1231
129	601
130	310
131	831
132	581
133	330
134	721
135	260
136	160
137	120
138	120
139	601
140	240
141	1001
142	290
143	320
144	1191
145	571
146	2983
147	791
148	370
149	110
150	130
151	440
152	1792
153	1301
154	540
155	460
156	220
157	470
158	230
159	210
160	490
161	741
162	2512
163	591
164	691
165	1411
166	891
167	631
168	540
169	550
170	310
171	591
172	330
173	601
174	1411
175	1071
176	651
177	260
178	430
179	430
180	300
181	1181
182	591
183	340
184	561
185	390
186	280
187	190
188	130
189	150
190	130
191	150
192	90
193	280
194	280
195	320
196	340
197	681
198	500
199	360
200	470
201	180
202	390
203	430
204	3723
205	581
206	200
207	280
208	360
209	581
210	961
211	1071
212	280
213	190
214	591
215	3233
216	771
217	120
218	70
219	80
220	90
221	100
222	150
223	230
224	370
225	370
226	701
227	330
228	420
229	120
230	30
231	10
232	20
233	20
234	70
235	90
236	130
237	170
238	390
239	280
240	260
241	120
242	170
243	40
244	30
245	10
246	10
247	10
248	40
249	30
250	220
251	110
252	320
253	420
254	210
255	60
256	140
257	160
258	90
259	10
263	10
264	40
265	40
266	1481
267	1702
268	6045
269	1171
270	360
271	60
272	10
279	10
280	10
281	10
282	90
283	50
284	861
285	280
286	40
287	10
292	10
294	30
295	10
296	20
297	10
298	70
299	60
300	10
308	220
309	330
310	5335
311	1131
312	210
313	30
324	30
325	40
326	1391
327	9999
328	2072
329	290
330	30
340	10
341	10
352	20
354	40
355	10
367	40
368	851
369	7317
370	1672
371	260
372	30
