Mass Spectrum: Metanephrine, 3TMS derivative
Formula: C19 H39 N O3 Si3
CAS: 56114-63-7
Molecular weight: 413
Origin: NIST Mass Spectrometry Data Center
m/z	RELATIVE INTENSITY
29	10
31	10
42	60
43	80
44	100
45	611
46	40
47	40
53	10
55	20
56	10
57	40
58	70
59	320
60	30
61	20
65	10
66	10
69	10
70	20
71	30
73	6586
74	651
75	380
76	20
77	30
78	10
79	10
83	10
84	10
85	10
86	110
87	20
88	20
89	90
90	10
91	60
92	10
93	10
95	10
99	10
100	90
101	50
102	30
103	40
104	20
105	30
106	10
107	10
109	10
113	10
114	50
116	9999
117	2652
118	951
119	110
120	10
121	30
123	10
126	10
128	10
129	10
130	30
131	70
132	20
133	170
134	30
135	60
136	20
137	30
138	10
139	10
143	10
144	10
145	20
146	40
147	631
148	120
149	120
150	20
151	30
152	10
155	10
159	10
160	90
161	50
162	70
163	80
164	20
165	50
166	20
167	10
172	10
173	10
174	20
175	20
176	20
177	90
178	30
179	140
180	140
181	30
182	10
188	10
189	10
190	20
191	30
192	270
193	280
194	180
195	50
196	10
203	10
204	20
205	30
206	20
207	70
208	20
209	120
210	20
211	10
218	20
219	40
220	40
221	60
222	50
223	180
224	40
225	10
233	10
234	10
235	20
236	30
237	60
238	10
239	10
248	10
249	10
250	40
251	130
252	50
253	50
254	30
255	10
262	10
263	10
264	10
265	60
266	20
267	200
268	50
269	20
278	10
279	20
280	20
281	110
282	30
283	20
292	10
293	10
294	20
295	30
297	2162
298	581
299	220
300	40
301	10
308	10
309	10
310	20
311	10
322	10
323	30
324	80
325	20
326	20
355	20
370	10
383	20
384	10
396	10
398	851
399	310
400	150
401	30
402	10
411	10
412	20
413	10
414	10
