Mass Spectrum: 5-Hydroxytryptophol, 3TMS derivative
Formula: C19 H35 N O2 Si3
CAS: 56114-64-8
Molecular weight: 393
Origin: WASHINGTON UNIVERSITY MEDICAL SCHOOL W.R. SHERMAN
m/z	RELATIVE INTENSITY
43	51
44	56
45	389
47	32
58	32
59	95
73	4559
74	379
75	242
77	105
103	61
115	56
129	32
131	32
133	51
142	32
147	144
156	51
184	32
186	81
188	46
189	61
200	56
201	37
202	242
203	51
214	46
215	42
216	144
217	42
218	408
219	90
230	76
231	42
232	71
233	37
244	32
258	32
260	139
261	46
262	32
274	71
288	223
290	9999
291	2505
292	951
293	179
302	183
303	110
304	276
305	90
306	76
321	86
378	580
379	198
380	86
393	2143
394	805
395	369
396	90
