Mass Spectrum: Benzoic acid, 4-ethyl-, 4-cyanophenyl ester
Formula: C16 H13 N O2
CAS: 56131-48-7
Molecular weight: 251
Origin: Zaikin V.G., TIPS RAS, Moscow, Russia
m/z	RELATIVE INTENSITY
27	70
28	60
39	110
50	60
51	140
52	30
53	40
63	130
64	90
65	70
75	30
76	50
77	651
78	140
79	701
80	40
89	170
90	240
91	80
102	50
103	480
104	170
105	1031
106	100
118	50
119	100
131	30
132	40
133	9999
134	901
135	60
