Mass Spectrum: 2-Ethyl-2,3-dihydro-1H-indene
Formula: C11 H14
CAS: 56147-63-8
Molecular weight: 146
Origin: V.G.Zaikin, TIPS, Russian Acad. Sci.
m/z	RELATIVE INTENSITY
51	400
52	100
53	230
63	400
64	200
65	500
74	100
75	200
76	100
77	700
78	600
79	150
89	500
90	150
91	2602
92	480
102	230
103	450
104	250
105	350
115	3403
116	1601
117	9999
118	1351
119	200
127	280
128	550
129	600
130	300
131	4103
132	600
143	100
144	110
145	1901
146	6235
147	740
148	40
