Mass Spectrum: CH3NHCH2CN
Formula: C3 H6 N2
CAS: 5616-32-0
Molecular weight: 70
Origin: Japan AIST/NIMC Database- Spectrum MS-NW-2846
m/z	RELATIVE INTENSITY
12	139
13	139
14	329
15	2849
16	60
25	10
26	979
27	6679
28	2099
29	129
30	339
31	60
32	40
38	379
39	519
40	1619
41	2139
42	9999
43	4999
44	1279
45	30
51	10
53	99
55	80
56	10
66	10
67	60
68	40
69	1899
70	1159
71	40
