Mass Spectrum: 3-Mercapto-2-methylpropanol
Formula: C4 H10 O S
CAS: 56160-79-3
Molecular weight: 106
Origin: P.Bouchilloux ET AL.JAFC., 46,3095(1998)
m/z	RELATIVE INTENSITY
37	280
38	631
39	4904
40	591
41	3643
42	1061
43	3143
44	470
45	4064
46	1271
47	3483
48	230
53	540
54	2002
55	6856
56	500
57	6536
58	841
59	1481
60	1271
61	781
62	190
63	230
65	30
67	170
68	30
69	330
70	240
71	1481
72	9999
73	2042
74	561
75	1411
76	310
77	120
79	90
81	90
87	520
88	380
89	3013
90	170
91	310
93	120
103	70
104	90
105	540
106	1501
107	300
108	30
