Mass Spectrum: 1H-Inden-2-ol, 2,3-dihydro-1-methoxy-, cis-
Formula: C10 H12 O2
CAS: 56175-44-1
Molecular weight: 164
Origin: J.E. WILKINSON S-CUBED, SAN DIEGO, CA.
m/z	RELATIVE INTENSITY
41	366
43	228
45	347
50	454
51	1595
52	253
53	176
55	278
57	29
58	19
59	19
61	80
62	168
63	904
65	1505
66	77
74	235
75	443
77	3216
78	1029
79	569
81	1
86	52
87	43
89	757
91	2948
92	192
93	236
101	42
103	3255
104	9999
105	1957
106	87
113	11
115	696
116	165
117	128
119	556
121	5597
122	288
129	4
131	2425
132	1511
133	739
134	85
135	58
136	287
146	55
147	36
149	60
164	1116
165	71
