Mass Spectrum: Methyl 2-hydroxystearate, TMS derivative
Formula: C22 H46 O3 Si
CAS: 56196-58-8
Molecular weight: 386
Origin: O A MAMER, MCGILL UNIVERSITY
m/z	RELATIVE INTENSITY
14	95
15	399
16	48
17	32
18	140
26	111
27	419
28	1012
29	1163
30	35
31	55
32	187
39	234
40	68
41	2132
42	372
43	3496
44	187
45	533
46	37
47	107
50	30
52	38
53	111
54	177
55	1976
56	327
57	2394
58	177
59	1316
60	108
61	197
66	38
67	628
68	254
69	1881
70	222
71	1160
72	231
73	9999
74	1138
75	2371
76	165
77	114
79	107
80	42
81	681
82	289
83	2283
84	207
85	720
86	66
87	317
88	79
89	4079
90	346
91	697
92	62
93	73
95	583
96	180
97	1802
98	180
99	160
100	29
101	409
102	91
103	2487
104	231
105	218
107	177
108	30
109	265
110	80
111	731
112	77
113	92
114	29
115	384
116	272
117	171
118	33
119	330
120	36
121	32
123	101
124	35
125	192
127	60
129	1589
130	205
131	226
132	50
133	53
137	48
139	45
141	31
143	197
144	34
145	223
146	286
147	62
153	31
157	62
159	964
160	130
161	128
162	183
163	29
171	77
173	45
185	128
199	42
201	41
207	159
208	38
213	30
215	32
227	40
241	51
243	33
257	38
271	41
281	29
283	33
297	31
311	61
313	45
327	9888
328	2647
329	718
330	138
331	30
343	384
344	111
345	33
371	3427
372	962
373	279
374	55
386	89
387	28
