Mass Spectrum: .alpha.-Cortolone, 4TMS derivative
Formula: C33 H66 O5 Si4
CAS: 56196-46-4
Molecular weight: 654
Origin: SW-4
m/z	RELATIVE INTENSITY
15	10
26	110
41	150
43	130
45	390
47	120
53	100
55	390
58	60
59	90
61	110
67	390
69	290
72	100
73	9999
74	740
75	1640
76	120
77	170
79	440
81	600
82	70
83	180
85	60
89	130
91	410
92	110
93	580
94	130
95	660
96	70
97	70
101	190
103	680
104	130
105	690
106	100
107	790
108	100
109	280
115	130
116	130
117	660
118	110
119	400
120	100
121	390
122	60
123	130
127	100
128	70
129	790
130	150
131	440
132	100
133	690
134	100
135	230
141	120
142	100
143	410
144	100
145	390
146	70
147	2660
148	410
149	500
150	110
151	70
154	170
155	280
156	100
157	220
158	60
159	210
160	90
161	630
162	100
163	100
165	70
167	130
168	90
169	600
170	120
171	190
172	70
173	270
175	380
176	60
177	110
179	60
181	150
182	130
183	170
185	130
187	460
188	100
189	500
190	110
191	1050
192	190
193	180
194	60
195	280
196	90
197	110
199	120
201	150
203	70
204	90
205	430
206	100
207	50
208	110
209	150
211	600
212	150
213	260
214	70
215	10
216	70
217	370
218	110
219	120
221	100
222	110
223	100
225	130
227	890
228	170
229	190
230	160
231	340
232	120
233	120
235	100
239	110
241	370
242	110
243	1440
244	430
245	190
247	70
251	230
252	70
253	120
255	70
261	60
263	70
265	270
266	60
267	100
268	70
269	2530
270	560
271	120
277	60
279	100
281	100
282	100
286	60
287	110
288	100
289	90
291	60
295	50
296	130
303	70
304	70
305	100
315	60
317	100
333	60
343	120
357	90
358	170
359	3890
360	1210
361	440
362	90
369	60
371	290
372	100
385	160
387	70
394	70
431	70
433	60
446	60
447	100
448	490
449	9279
450	3650
451	1400
452	350
453	70
459	170
460	100
461	280
462	100
463	90
475	100
476	60
549	110
550	160
551	1800
552	880
553	440
554	130
654	230
655	190
656	90
