Mass Spectrum: Kaur-16-ene
Formula: C20 H32
CAS: 562-28-7
Molecular weight: 272
Origin: R RYHAGE MS-LAB KAROLINSKA INSTITUTET STOCKHOLM SWEDEN
m/z	RELATIVE INTENSITY
18	200
27	320
29	340
39	570
40	180
41	3370
42	280
43	1010
44	120
51	180
52	130
53	940
54	190
55	2970
56	480
57	1100
65	290
66	320
67	2560
68	1150
69	4480
70	480
71	430
77	1720
78	630
79	3150
80	970
81	3850
82	1410
83	1340
84	170
85	250
91	4480
92	1840
93	3560
94	2810
95	3250
96	670
97	920
98	140
103	320
104	530
105	4370
106	3120
107	2440
108	1180
109	2530
110	400
111	800
112	100
115	470
116	260
117	1340
118	830
119	3840
120	1750
121	1840
122	770
123	4690
124	720
125	4690
126	450
127	170
128	310
129	420
130	230
131	1720
132	530
133	2370
134	1870
135	1340
136	680
137	2370
138	390
139	130
141	180
142	130
143	280
144	170
145	1500
146	500
147	4370
148	1870
149	1310
150	470
151	170
157	200
158	130
159	1470
160	430
161	2030
162	770
163	1220
164	310
165	170
171	200
173	1220
174	390
175	2030
176	710
177	400
178	130
179	140
187	2160
188	750
189	980
190	600
191	210
193	120
199	130
201	1970
202	730
203	1370
204	690
205	150
213	3780
214	700
215	670
216	540
217	200
228	470
229	5410
230	1170
231	310
243	310
244	540
245	140
257	9999
258	2220
259	250
272	7700
273	1750
274	210
