Mass Spectrum: 1,3-Cyclohexanedione, 4,4-dimethyl-
Formula: C8 H12 O2
CAS: 562-46-9
Molecular weight: 140
Origin: J.T. CLERC, ORGANIC CHEM. LAB., ETH, ZURICH, SWITZ.
m/z	RELATIVE INTENSITY
17	610
18	2236
26	610
27	2236
28	1585
29	1910
39	3211
40	1260
41	5528
42	3211
43	2886
50	894
51	569
53	1219
54	935
55	7154
56	8454
57	1260
69	1545
70	2845
83	9999
84	2805
97	1463
112	3130
125	813
140	4024
141	772
