Mass Spectrum: Terpinen-4-ol
Formula: C10 H18 O
CAS: 562-74-3
Molecular weight: 154
Origin: Japan AIST/NIMC Database- Spectrum MS-NW-6105
m/z	RELATIVE INTENSITY
14	10
15	99
17	20
18	129
19	10
26	50
27	1159
28	169
29	539
30	10
31	189
32	20
37	10
38	50
39	1029
40	279
41	2319
42	269
43	2909
44	129
45	199
50	80
51	259
52	139
53	919
54	149
55	1729
56	129
57	239
58	279
59	359
60	20
61	10
62	40
63	80
64	20
65	309
66	129
67	1379
68	1529
69	2129
70	379
71	9999
72	519
73	50
74	10
75	10
76	10
77	889
78	159
79	479
80	109
81	1249
82	339
83	1019
84	179
85	199
86	2729
87	229
88	10
89	20
90	10
91	769
92	689
93	4349
94	459
95	599
96	149
97	169
98	179
99	60
100	10
102	10
103	50
104	30
105	139
106	40
107	169
108	50
109	149
110	439
111	4989
112	399
113	30
115	30
116	10
117	50
118	10
119	219
120	40
121	479
122	50
123	30
124	10
125	249
126	30
127	30
131	20
132	20
133	10
134	70
135	30
136	879
137	149
138	20
139	289
140	30
152	10
153	10
154	1489
155	179
156	20
