Mass Spectrum: Testosterone O-methyloxime, TMS derivative
Formula: C23 H39 N O2 Si
CAS: 56210-83-4
Molecular weight: 389
Origin: H. ALDERCREUTZ, UNIVERSITY OF HELSINKI, HELSINKI, FINLAND
m/z	RELATIVE INTENSITY
57	1047
67	134
69	136
70	169
71	102
73	848
74	96
75	316
79	207
81	336
82	169
86	184
87	78
91	344
92	101
93	500
94	123
95	419
96	172
99	121
101	169
103	93
105	475
106	207
107	425
108	323
109	212
110	172
112	301
113	96
115	209
116	126
117	207
118	136
119	655
120	374
121	581
122	543
123	581
124	156
125	4776
126	1004
127	86
129	2388
130	468
131	581
132	278
133	536
134	359
135	359
136	455
137	3036
138	1067
139	764
140	349
141	159
143	369
144	253
145	895
146	455
147	1229
148	622
149	349
150	235
151	2307
152	936
153	5343
154	865
155	247
156	101
157	356
158	235
159	445
160	258
161	419
162	265
163	131
164	131
165	164
166	333
167	177
168	83
169	470
170	141
171	270
172	250
173	533
174	500
175	189
176	172
177	131
178	354
179	80
181	116
182	197
183	270
184	172
185	303
186	172
187	177
188	536
189	131
190	91
191	78
195	369
196	159
197	215
198	232
199	242
200	166
201	111
205	161
206	154
209	266
210	202
211	419
212	237
213	242
214	235
215	86
221	129
223	263
224	265
225	384
226	465
227	546
228	232
229	106
230	88
235	230
236	103
237	371
238	227
239	260
240	209
241	156
242	394
243	141
245	101
250	91
251	723
252	764
253	493
254	172
258	349
259	83
260	103
266	204
267	382
268	3036
269	771
270	187
271	103
272	80
273	197
278	177
284	667
285	192
298	296
299	592
300	184
301	86
329	93
330	118
341	121
342	263
343	273
344	174
356	102
357	485
358	2550
359	996
360	318
361	151
374	829
375	273
376	88
387	101
388	123
389	9999
390	3036
391	829
392	182
