Mass Spectrum: 13-Tetradecen-1-ol acetate
Formula: C16 H30 O2
CAS: 56221-91-1
Molecular weight: 254
Origin: J. Klune, Insect Chem. Ecol. Lab., USDA, Beltsville, MD 20705
m/z	RELATIVE INTENSITY
41	3368
42	1174
43	9999
44	325
45	77
47	50
53	176
54	816
55	5535
56	2782
57	6408
58	349
59	81
61	558
62	113
63	21
65	44
66	117
67	1231
68	2698
69	5128
70	2768
71	3586
72	239
73	313
74	18
77	23
79	133
80	88
81	901
82	4816
83	6478
84	2068
85	2078
86	208
87	58
88	50
91	20
93	51
94	52
95	637
96	2061
97	6339
98	1309
99	508
100	53
101	55
102	20
107	26
108	20
109	276
110	625
111	3333
112	875
113	277
114	70
115	52
116	356
117	19
121	19
122	24
123	179
124	445
125	1627
126	573
127	188
128	19
129	18
130	147
131	8
136	18
137	117
138	309
139	658
140	378
141	129
142	18
149	9
151	38
152	199
153	358
154	277
155	95
165	18
166	144
167	206
168	196
169	58
179	9
180	130
181	152
182	159
183	45
194	195
195	125
196	140
197	32
208	103
209	86
210	107
211	23
217	8
222	106
223	74
224	117
225	52
236	92
237	193
238	88
239	61
253	76
254	191
255	69
