Mass Spectrum: 4-Hepten-3-one, 2,6-dimethyl-
Formula: C9 H16 O
CAS: 56259-14-4
Molecular weight: 140
Origin: CARL DJERASSI DEPT OF CHEM STANFORD UNIV STANFORD CALIF 94305
m/z	RELATIVE INTENSITY
41	3960
42	297
43	1782
44	99
51	198
52	99
53	396
54	198
55	792
67	297
69	1089
70	99
71	495
79	198
81	99
82	99
83	99
95	99
96	99
97	9999
98	891
99	99
125	198
140	1485
141	297
