Mass Spectrum: 3,6-Dimethylpiperazine-2,5-dione
Formula: C6 H10 N2 O2
CAS: 5625-46-7
Molecular weight: 142
Origin: NIST Mass Spectrometry Data Center
m/z	RELATIVE INTENSITY
14	160
15	390
18	360
26	200
27	751
28	2012
29	250
39	90
40	320
41	510
42	1892
43	1251
44	9999
45	250
55	360
56	1391
57	130
70	390
71	1251
72	150
99	5985
100	390
114	310
142	1331
143	130
