Mass Spectrum: Hexane, 1-[(1-methylethyl)thio]-
Formula: C9 H20 S
CAS: 56273-33-7
Molecular weight: 160
Origin: CARL DJERASSI DEPT OF CHEM STANFORD UNIV STANFORD CALIF 94305
m/z	RELATIVE INTENSITY
39	1199
40	1399
41	4598
42	1900
43	9999
44	300
45	400
46	100
47	2200
48	100
49	100
55	4898
56	4200
57	400
59	500
60	801
61	901
69	1199
74	300
75	2700
76	2700
77	801
83	2700
84	1900
85	100
87	400
89	2899
90	100
103	100
116	200
117	7699
118	600
119	300
131	100
145	1199
146	100
160	3399
161	300
162	200
