Mass Spectrum: Galactaric acid, (R,S,R,S)-, 6TMS derivative
Formula: C24 H58 O8 Si6
CAS: 56272-61-8
Molecular weight: 642
Origin: WASHINGTON UNIVERSITY MEDICAL SCHOOL W.R. SHERMAN
m/z	RELATIVE INTENSITY
55	66
59	86
72	120
73	9999
74	790
75	536
93	95
95	42
101	37
102	110
103	291
117	135
119	32
129	149
130	56
131	179
133	374
134	42
135	32
143	433
144	51
145	46
147	3248
148	516
149	360
150	37
161	32
171	154
173	32
175	46
189	795
190	203
191	369
192	66
193	37
203	32
204	633
205	169
206	66
207	169
208	37
215	42
217	917
218	179
219	653
220	144
221	585
222	130
223	71
229	86
231	71
233	32
245	135
246	32
257	81
263	37
265	32
277	1128
278	340
279	188
280	42
291	232
292	2945
293	912
294	448
295	100
303	37
305	1536
306	467
307	223
308	42
318	71
319	61
320	56
321	203
322	66
331	120
333	8404
334	2505
335	1252
336	276
337	66
345	208
346	81
347	66
373	188
374	66
375	37
379	120
380	42
393	281
394	115
395	66
407	37
419	188
420	71
421	61
423	717
424	276
425	135
426	37
435	286
436	110
437	56
447	452
448	169
449	110
493	115
494	42
495	32
509	120
510	51
537	149
538	66
539	46
627	418
628	227
629	154
630	51
