Mass Spectrum: 1H-Indene, 1-ethyl-2,3-dihydro-1-methyl-
Formula: C12 H16
CAS: 56298-75-0
Molecular weight: 160
Origin: AMERICAN OIL CO., WHITING, IND, USA
m/z	RELATIVE INTENSITY
15	700
26	400
27	3600
28	1900
29	3600
30	100
31	100
38	200
39	1800
40	300
41	3600
42	1300
43	7600
44	1300
50	200
51	500
52	100
53	400
54	100
55	1100
56	1200
57	4400
58	300
62	100
63	300
64	100
65	300
67	100
69	200
70	800
71	1300
72	100
74	100
75	100
77	300
78	100
79	100
84	400
85	1500
86	100
89	200
91	1400
92	100
98	200
99	200
100	300
103	100
104	200
106	100
115	1000
116	400
117	300
127	300
128	900
129	700
130	300
131	9999
132	800
133	100
145	500
160	600
