Mass Spectrum: 2-Heptanol, 4-methyl-
Formula: C8 H18 O
CAS: 56298-90-9
Molecular weight: 130
Origin: CONTINENTAL OIL CO., PONCA CITY, OKLA, USA
m/z	RELATIVE INTENSITY
13	17
14	128
15	618
16	47
17	59
18	185
19	214
24	5
25	9
26	129
27	2012
28	563
29	1552
30	46
31	327
32	71
33	7
35	5
36	8
37	29
38	75
39	1083
40	216
41	2080
42	1315
43	4160
44	766
45	9999
46	236
47	30
48	7
49	9
50	32
51	67
52	29
53	182
54	53
55	1690
56	493
57	471
58	135
59	168
60	14
61	7
62	11
63	21
64	8
65	30
66	17
67	81
68	86
69	1025
70	1924
71	1268
72	73
73	29
77	16
79	16
81	26
82	43
83	320
84	657
85	637
86	129
87	25
88	20
93	4
95	20
96	6
97	507
98	42
99	5
101	5
110	8
111	9
112	168
113	20
115	191
116	17
128	4
129	16
130	4
