Mass Spectrum: Benzene, 3-heptynyl-
Formula: C13 H16
CAS: 56293-04-0
Molecular weight: 172
Origin: CARL DJERASSI DEPT OF CHEM STANFORD UNIV STANFORD CALIF 94305
m/z	RELATIVE INTENSITY
39	1000
40	100
41	600
50	100
51	600
52	300
53	300
55	100
63	400
65	1500
66	100
77	200
79	200
91	9999
92	700
115	400
116	100
127	500
128	600
129	2100
130	500
141	100
143	1800
144	800
172	100
