Mass Spectrum: 2-Butene, 2,3-dimethyl-
Formula: C6 H12
CAS: 563-79-1
Molecular weight: 84
Origin: Japan AIST/NIMC Database- Spectrum MS-NW-3539
m/z	RELATIVE INTENSITY
14	20
15	219
24	10
26	90
27	1139
28	40
29	429
37	70
38	159
39	1799
40	419
41	9999
42	909
43	699
44	30
49	10
50	90
51	159
52	70
53	699
54	139
55	839
56	649
57	70
61	10
62	20
63	40
65	70
66	40
67	559
68	119
69	8999
70	529
71	10
79	10
81	10
83	99
84	2959
85	209
