Mass Spectrum: Phosphoric acid, tris(3-methylphenyl) ester
Formula: C21 H21 O4 P
CAS: 563-04-2
Molecular weight: 368
Origin: NIST Mass Spectrometry Data Center, 1998.
m/z	RELATIVE INTENSITY
26	10
27	110
37	10
38	50
39	830
40	50
41	230
42	10
43	20
47	190
50	170
51	670
52	360
53	500
54	30
55	60
57	10
61	10
62	110
63	690
64	230
65	3180
66	240
67	70
68	10
69	20
71	10
73	10
74	40
75	60
76	90
77	2860
78	1160
79	1610
80	190
81	30
82	10
83	20
85	10
86	20
87	40
88	50
89	1480
90	1950
91	5009
92	450
93	30
94	30
95	100
96	20
97	30
98	10
99	30
102	10
103	20
104	20
105	220
106	190
107	1430
108	1500
109	190
110	20
113	70
114	50
115	130
116	30
117	10
119	10
120	10
121	30
122	10
123	80
124	20
125	40
126	50
127	70
128	150
129	130
130	20
131	20
132	10
135	40
136	40
137	10
138	10
139	100
140	20
141	200
142	80
143	40
144	10
145	20
150	10
151	60
152	320
153	900
154	530
155	300
156	40
157	20
158	10
159	10
163	30
164	100
165	4810
166	1030
167	220
168	110
169	360
170	380
171	90
172	10
176	50
177	90
178	1050
179	1670
180	1110
181	800
182	830
183	630
184	100
185	80
186	30
187	70
188	10
189	130
190	10
191	10
192	10
193	40
194	40
195	620
196	850
197	930
198	1310
199	220
200	50
201	10
202	10
203	10
209	10
210	10
211	10
212	10
213	60
214	50
215	90
216	20
217	10
219	10
223	10
225	20
226	10
227	40
228	20
229	50
230	20
231	20
232	10
233	10
235	10
236	10
239	110
240	110
241	90
242	140
243	1480
244	250
245	130
246	30
247	10
252	30
253	90
254	110
255	330
256	140
257	40
258	20
259	190
260	780
261	1400
262	240
263	30
267	10
268	10
269	110
270	80
271	70
272	70
273	50
274	10
275	50
276	100
277	560
278	120
279	20
285	10
286	20
287	30
288	30
289	10
312	10
327	10
331	20
332	10
335	10
349	30
350	10
351	30
352	10
353	230
354	50
355	10
365	20
367	5229
368	9999
369	2260
370	330
371	40
