Mass Spectrum: Hexane, 3,3-dimethyl-
Formula: C8 H18
CAS: 563-16-6
Molecular weight: 114
Origin: NIST Mass Spectrometry Data Center, 1990.
m/z	RELATIVE INTENSITY
15	136
27	1804
28	659
29	1804
30	42
39	1925
40	395
41	4435
42	42
43	9999
44	425
50	81
51	174
52	74
53	514
54	74
55	1789
56	1060
57	6360
58	277
63	35
65	81
67	155
69	711
70	2970
71	6139
72	345
77	40
84	1614
85	5010
86	329
98	77
99	688
100	62
