Mass Spectrum: 1-Propene, 1,1-dichloro-
Formula: C3 H4 Cl2
CAS: 563-58-6
Molecular weight: 110
Origin: Chuck Anderson, Aldrich Chemical Co.
m/z	RELATIVE INTENSITY
12	19
13	15
14	26
15	59
24	28
25	124
26	307
27	440
28	146
29	1
31	6
32	14
35	173
36	320
37	1077
38	1013
39	4489
40	159
41	6
47	459
48	140
49	1192
50	58
51	326
53	12
54	23
55	33
56	14
59	35
60	255
61	133
62	91
63	47
70	6
71	117
72	373
73	1288
74	624
75	9999
76	440
77	2907
78	98
82	344
83	784
84	224
85	529
86	45
87	88
94	20
95	50
96	16
97	35
98	6
99	7
107	53
108	21
109	841
110	3545
111	593
112	2193
113	148
114	365
115	14
