Mass Spectrum: 2-Butanone, 3-methyl-
Formula: C5 H10 O
CAS: 563-80-4
Molecular weight: 86
Origin: D.HENNEBERG, MAX-PLANCK INSTITUTE, MULHEIM, WEST GERMANY
m/z	RELATIVE INTENSITY
26	44
27	798
28	139
29	66
31	15
37	3
38	6
39	292
40	70
41	1527
42	306
43	9999
44	244
45	137
46	3
51	6
52	3
53	39
54	7
55	59
56	19
57	35
58	23
59	12
65	5
67	22
68	9
69	18
70	16
71	605
72	31
84	6
85	9
86	2117
87	165
88	10
