Mass Spectrum: 2-Bromopropionyl bromide
Formula: C3 H4 Br2 O
CAS: 563-76-8
Molecular weight: 214
Origin: Japan AIST/NIMC Database- Spectrum MS-NW-2724
m/z	RELATIVE INTENSITY
12	30
13	60
14	50
15	99
16	10
17	10
18	30
24	50
25	299
26	1939
27	9999
28	2139
29	119
32	10
35	10
36	90
37	99
38	99
39	109
40	10
41	80
42	30
43	30
44	50
45	20
52	20
53	129
54	109
55	479
56	559
57	80
63	50
65	10
69	10
73	10
79	699
80	319
81	709
82	309
91	50
92	50
93	60
94	50
95	20
96	10
104	30
105	119
106	169
107	7479
108	309
109	7189
110	179
120	30
121	30
122	30
123	30
127	20
134	99
135	6049
136	289
137	5929
138	199
139	20
154	10
155	40
158	40
160	80
162	40
173	10
183	60
185	20
187	40
189	20
197	10
199	20
201	10
