Mass Spectrum: Bromonitromethane
Formula: C H2 Br N O2
CAS: 563-70-2
Molecular weight: 139
Origin: NIST Mass Spectrometry Data Center, 1994
m/z	RELATIVE INTENSITY
4	29
12	47
13	139
14	543
15	51
16	253
17	26
26	83
27	301
28	366
29	492
30	4157
31	49
32	30
42	152
43	383
44	1238
45	30
46	989
61	20
79	1071
80	171
81	1022
82	173
91	275
93	9999
95	9483
96	124
