Mass Spectrum: Glycine, 3TMS derivative
Formula: C11 H29 N O2 Si3
CAS: 5630-82-0
Molecular weight: 291
m/z	RELATIVE INTENSITY
40	286
41	388
43	122
44	122
45	755
59	612
73	5102
74	388
75	449
77	286
86	1326
87	143
100	735
101	163
102	326
117	163
130	265
131	224
133	612
147	2081
148	408
149	245
159	143
174	9999
175	1796
176	979
177	204
248	1632
276	816
277	224
278	122
291	143
