Mass Spectrum: 1,8-Octane diisothiocyanate
Formula: C10 H16 N2 S2
CAS: 56312-14-2
Molecular weight: 228
Origin: NIST Mass Spectrometry Data Center, 1994
m/z	RELATIVE INTENSITY
14	28
15	165
18	65
26	264
27	2970
28	1719
29	3052
30	412
32	271
39	3094
40	816
41	9999
42	1165
43	1681
44	406
45	1006
46	117
47	82
50	91
51	206
52	145
53	987
54	1125
55	7900
56	810
57	461
58	540
59	1028
60	953
61	117
62	275
63	39
64	60
65	197
66	39
67	2111
68	726
69	4786
70	898
71	39
72	9070
73	592
74	816
75	255
76	95
77	132
78	104
79	342
80	333
81	641
82	649
83	339
84	535
85	1386
86	1121
87	585
88	139
89	33
91	96
92	37
93	211
94	216
95	281
96	343
97	158
98	635
99	288
100	1097
101	1946
102	312
103	104
106	53
107	139
108	273
109	283
110	295
111	90
112	255
113	279
114	1250
115	3822
116	344
117	213
119	66
121	107
122	170
123	167
124	257
125	60
126	234
127	92
128	769
129	131
130	70
132	111
134	174
135	148
136	744
137	457
138	87
139	97
140	284
141	71
142	114
151	94
152	102
153	54
154	104
156	187
161	42
162	60
163	103
164	107
167	94
168	307
169	80
170	598
171	78
195	3127
196	402
197	172
228	2032
229	321
230	194
