Mass Spectrum: 8-Azabicyclo[3.2.1]oct-2-ene
Formula: C7 H11 N
CAS: 5632-85-9
Molecular weight: 109
Origin: J.H.SUPPLE STATE UNIV. COLLEGE, FREDONIA, NEW YORK, USA
m/z	RELATIVE INTENSITY
25	296
27	1630
28	2556
29	370
30	852
37	259
38	1704
40	296
41	1815
42	519
43	1037
44	259
50	296
51	519
52	519
53	1111
54	741
55	481
56	593
57	222
62	74
63	111
64	74
65	444
66	370
67	1407
68	1852
69	222
77	407
78	444
79	593
80	9999
81	2000
82	1074
83	185
90	74
91	1037
92	333
93	296
94	1778
103	111
104	111
105	74
106	148
107	74
108	1556
109	3037
110	1259
