Mass Spectrum: Piperazine, 1-nitroso-
Formula: C4 H9 N3 O
CAS: 5632-47-3
Molecular weight: 115
Origin: W.T.RAINEY OAK RIDGE NATIONAL LABORATORY,OAK RIDGE,TN.USA
m/z	RELATIVE INTENSITY
30	3107
31	135
32	1216
38	135
39	270
40	540
41	1553
42	4323
43	2634
44	2026
45	135
51	135
52	270
53	270
54	1351
55	2499
56	9999
57	1553
58	878
59	67
67	135
68	202
69	202
70	202
71	202
72	67
80	270
81	405
82	405
83	472
84	1148
85	6418
86	743
87	67
99	135
114	810
115	135
