Mass Spectrum: 3-Penten-2-one, 3-(2-furanyl)-
Formula: C9 H10 O2
CAS: 56335-77-4
Molecular weight: 150
Origin: CARL DJERASSI DEPT OF CHEM STANFORD UNIV STANFORD CALIF 94305
m/z	RELATIVE INTENSITY
41	500
42	400
43	9999
44	200
45	200
49	100
50	1600
51	3700
52	1600
53	2500
54	200
55	500
61	100
62	300
63	1100
64	200
65	400
66	200
67	200
68	100
69	100
73	100
74	400
75	600
76	200
77	9000
78	1700
79	8800
80	600
81	500
82	100
83	100
89	100
91	600
92	100
93	500
94	100
95	1000
96	100
103	100
105	100
106	100
107	6400
108	900
109	100
121	1400
122	200
123	100
133	100
135	100
149	100
150	6200
151	500
152	100
