Mass Spectrum: Dimetindene
Formula: C20 H24 N2
CAS: 5636-83-9
Molecular weight: 292
Origin: H. Fales, LC, NHLBI, NIH, Bethesda, MD 20892
m/z	RELATIVE INTENSITY
42	619
43	164
44	139
45	165
46	26
50	11
51	68
52	50
53	57
54	39
55	63
56	101
57	157
58	9999
59	415
60	6
63	13
65	28
70	21
71	62
72	139
73	9
74	7
75	8
76	7
77	49
78	130
79	81
80	31
82	6
84	6
86	51
87	5
88	6
89	20
90	6
91	24
92	25
93	45
94	6
97	5
98	5
99	29
100	6
101	8
102	32
103	9
104	29
105	8
106	161
107	80
109	29
113	6
114	9
115	166
116	30
117	28
118	8
126	21
127	63
128	129
129	55
130	16
131	5
138	8
139	54
140	17
141	169
142	42
143	8
145	7
150	10
151	30
152	92
153	73
154	31
155	25
156	8
163	14
164	8
165	37
166	17
167	25
168	13
170	11
176	20
177	7
178	15
180	13
182	15
184	23
185	33
187	8
189	37
190	19
191	19
192	13
193	6
202	22
203	23
204	126
205	42
206	30
207	5
214	12
215	21
216	75
217	275
218	411
219	89
220	53
221	29
228	15
229	6
230	52
231	33
232	82
233	19
234	99
235	27
246	11
247	17
248	19
291	6
292	765
293	189
294	21
