Mass Spectrum: 4-Ethoxyphenethylamine
Formula: C10 H15 N O
CAS: 56370-30-0
Molecular weight: 165
Origin: NIST Mass Spectrometry Data Center, 1994
m/z	RELATIVE INTENSITY
14	26
15	76
18	47
26	159
27	991
28	834
29	870
30	9999
31	153
32	35
37	19
38	79
39	575
40	84
41	126
42	132
43	142
50	243
51	630
52	437
53	369
54	68
55	141
56	20
58	22
61	20
62	122
63	332
64	146
65	399
66	74
67	52
68	28
74	46
75	45
77	1809
78	716
79	457
80	253
81	85
89	380
90	332
91	515
92	78
93	54
94	56
103	21
104	38
105	66
106	21
107	6191
108	3357
109	253
110	19
117	38
118	35
119	53
120	89
121	40
133	21
134	99
135	965
136	5067
137	492
138	37
148	20
163	29
164	22
165	345
166	43
