Mass Spectrum: Benzene, (3-octylundecyl)-
Formula: C25 H44
CAS: 5637-96-7
Molecular weight: 344
m/z	RELATIVE INTENSITY
37	10
38	20
39	310
40	60
41	1942
42	300
43	2963
44	100
45	10
46	10
47	10
48	10
49	10
50	20
51	60
52	30
53	120
54	120
55	1291
56	390
57	1942
58	90
59	10
60	10
61	10
62	10
63	30
64	10
65	180
66	30
67	180
68	110
69	601
70	190
71	1021
72	60
73	10
74	10
75	10
76	10
77	120
78	90
79	140
80	20
81	110
82	60
83	420
84	80
85	651
86	50
87	10
88	10
89	30
90	40
91	4834
92	9999
93	831
94	40
95	60
96	60
97	270
98	60
99	140
100	10
101	10
102	10
103	70
104	611
105	681
106	90
107	10
108	10
109	20
110	20
111	110
112	30
113	90
114	10
115	50
116	20
117	190
118	40
119	100
120	30
121	10
122	10
123	10
124	10
125	40
126	20
127	70
128	30
129	30
130	20
131	80
132	20
133	60
134	10
135	10
136	10
137	10
138	20
139	60
140	20
141	50
142	10
143	10
144	10
145	20
146	70
147	40
148	10
149	10
150	10
151	10
152	20
153	20
154	70
155	60
156	10
157	10
158	10
159	10
160	10
161	20
162	10
163	10
164	10
165	10
166	10
167	10
168	10
169	40
170	10
171	10
172	10
173	10
174	10
175	10
176	10
177	10
178	10
179	10
180	10
181	10
182	10
183	30
184	10
185	10
187	10
188	10
189	10
190	10
191	10
192	10
193	10
194	10
195	10
196	10
197	20
198	10
199	10
200	10
201	10
202	10
203	10
204	10
205	10
206	10
207	10
208	10
209	10
210	10
211	10
212	10
213	10
214	10
215	10
216	10
217	10
218	10
219	10
220	10
221	10
222	10
223	10
224	10
225	10
226	10
227	10
228	10
229	30
230	10
231	30
232	10
233	10
234	10
235	10
236	20
237	30
238	20
239	10
240	10
241	10
242	10
243	10
244	20
245	30
246	10
247	10
248	10
249	10
250	10
251	10
252	60
253	250
254	50
255	10
256	10
257	10
258	10
259	10
260	10
261	10
262	10
263	10
264	10
265	10
266	10
267	10
268	10
269	10
270	10
271	10
272	10
273	10
274	10
289	10
290	10
291	10
292	10
340	10
341	10
342	10
343	10
344	210
345	60
346	10
347	10
348	10
