Mass Spectrum: Betahistine
Formula: C8 H12 N2
CAS: 5638-76-6
Molecular weight: 136
Origin: Japan AIST/NIMC Database- Spectrum MS-IW- 198
m/z	RELATIVE INTENSITY
15	70
26	20
27	109
28	60
29	10
30	70
39	209
40	50
41	70
42	319
43	90
44	4239
45	109
50	70
51	229
52	179
53	109
54	40
56	40
57	99
58	60
62	10
63	40
64	30
65	259
66	439
67	139
68	20
76	10
77	80
78	359
79	299
80	199
81	10
91	20
92	279
93	9999
94	1399
95	70
104	99
105	60
106	989
107	229
108	20
118	20
119	70
120	10
121	339
122	30
133	10
135	129
136	209
137	109
