Mass Spectrum: Cyclopentane, (4-octyldodecyl)-
Formula: C25 H50
CAS: 5638-09-5
Molecular weight: 350
m/z	RELATIVE INTENSITY
36	10
37	20
38	40
39	1021
40	260
41	8418
42	1631
43	9999
44	340
45	10
49	10
50	20
51	40
52	40
53	470
54	851
55	7247
56	1882
57	8438
58	360
59	10
62	10
63	10
65	80
66	210
67	2162
68	1111
69	6316
70	1171
71	4834
72	270
73	10
76	10
77	70
78	20
79	190
80	100
81	871
82	2062
83	6396
84	801
85	3393
86	210
87	10
91	40
92	10
93	50
94	80
95	841
96	510
97	5025
98	601
99	861
100	60
101	10
103	10
104	10
105	10
106	10
107	10
108	20
109	250
110	240
111	2542
112	380
113	510
114	50
115	10
117	10
119	10
120	10
121	10
122	50
123	230
124	220
125	1281
126	220
127	350
128	30
129	10
135	10
136	30
137	210
138	170
139	701
140	160
141	300
142	30
143	10
149	10
150	10
151	30
152	60
153	430
154	190
155	320
156	30
165	10
166	40
167	290
168	90
169	160
170	20
171	10
179	50
180	80
181	210
182	50
183	110
184	10
193	20
194	60
195	100
196	40
197	60
198	10
207	10
208	130
209	60
210	70
211	20
212	10
221	10
222	90
223	70
224	60
225	40
226	10
233	10
234	10
235	20
236	3073
237	2332
238	1842
239	1391
240	220
241	20
250	80
251	60
252	60
253	40
254	10
264	30
265	30
266	20
267	10
268	10
278	10
279	10
280	10
281	10
282	10
292	10
293	10
294	10
306	10
307	10
