Mass Spectrum: 3-Pentanone, 2,2-dimethyl-
Formula: C7 H14 O
CAS: 564-04-5
Molecular weight: 114
Origin: A.QUAYLE, SHELL LTD., THORNTON RES. CENT., CHESTER, CHES., UK
m/z	RELATIVE INTENSITY
26	90
27	655
29	3356
30	86
39	484
40	93
41	2579
42	201
43	420
53	67
55	213
56	674
57	9999
58	452
59	60
71	206
85	535
99	79
114	1021
115	104
