Mass Spectrum: Ethyl o-carboethoxymethylsalicylate
Formula: C13 H16 O5
CAS: 56424-77-2
Molecular weight: 252
Origin: NIST Mass Spectrometry Data Center
m/z	RELATIVE INTENSITY
12	30
14	90
15	470
16	50
17	10
18	40
26	370
27	3043
28	1001
29	6726
30	430
31	1141
36	40
37	120
38	530
39	1301
40	100
41	250
42	821
43	380
44	80
45	40
50	1371
51	921
52	330
53	440
54	30
55	80
59	981
60	80
61	70
62	250
63	1061
64	1041
65	2052
66	190
67	290
74	100
75	490
76	1611
77	1682
78	490
79	260
81	410
82	30
90	60
92	1912
93	1561
94	450
95	440
96	40
104	571
105	2062
106	280
107	200
108	30
109	390
118	50
120	1902
121	9999
122	1021
123	1551
124	110
130	30
131	80
133	3283
134	5485
135	941
136	90
147	110
149	4404
151	4614
152	400
153	50
160	50
162	50
166	50
178	951
179	3113
180	370
181	50
206	1081
207	1421
208	140
252	811
253	130
