Mass Spectrum: Butanoic acid, 2-methyl-, phenylmethyl ester
Formula: C12 H16 O2
CAS: 56423-40-6
Molecular weight: 192
Origin: NIST Mass Spectrometry Data Center, 2010
m/z	RELATIVE INTENSITY
15	10
26	20
27	180
28	80
29	470
30	10
31	10
37	10
38	30
39	360
40	40
41	671
42	40
43	20
44	10
45	20
50	90
51	270
52	80
53	50
54	10
55	120
56	110
57	2422
58	120
61	10
62	40
63	180
64	60
65	841
66	50
69	40
71	20
73	10
74	50
75	20
77	530
78	120
79	430
80	30
82	10
85	1131
86	70
87	10
89	400
90	591
91	9999
92	961
93	40
101	10
104	30
105	160
106	30
107	390
108	2292
109	180
110	10
115	10
117	10
118	40
119	50
120	10
131	10
146	10
164	20
174	90
175	10
192	2652
193	350
194	30
