Mass Spectrum: 2,4-Difluorobenzyl alcohol
Formula: C7 H6 F2 O
CAS: 56456-47-4
Molecular weight: 144
Origin: NIST Mass Spectrometry Data Center, 1994
m/z	RELATIVE INTENSITY
13	41
14	52
17	146
18	189
19	88
20	82
25	57
26	256
27	176
28	417
29	3220
30	647
31	3732
32	117
33	168
36	83
37	712
38	960
39	1210
40	115
42	58
43	25
44	206
45	147
46	62
47	134
48	158
49	493
50	2391
51	2054
52	365
53	169
55	127
56	596
57	1946
58	101
60	111
61	922
62	1412
63	3843
64	365
65	142
66	69
67	69
68	1281
69	1131
70	750
71	370
72	69
73	332
74	1235
75	4810
76	536
77	1006
78	94
79	137
80	406
81	1226
82	135
83	228
84	101
85	196
86	249
87	318
88	744
89	177
92	360
93	699
94	976
95	9704
96	2234
97	1233
98	109
99	311
100	175
101	1727
102	127
103	52
104	63
105	213
106	52
107	1106
108	101
110	63
111	68
112	238
113	2048
114	1999
115	9999
116	754
123	7342
124	2398
125	1528
126	770
127	5911
128	420
141	1295
143	6992
144	9680
145	766
146	54
