Mass Spectrum: Pentane, 2,3,4-trimethyl-
Formula: C8 H18
CAS: 565-75-3
Molecular weight: 114
Origin: NIST Mass Spectrometry Data Center, 1990.
m/z	RELATIVE INTENSITY
14	17
15	178
16	2
27	1715
28	270
29	1132
30	39
37	23
39	1369
40	310
41	3172
42	975
43	9999
44	341
50	47
51	136
52	52
53	353
54	23
55	2118
56	320
57	1638
58	70
63	26
65	58
67	108
70	4535
71	5710
72	286
77	22
79	29
83	76
114	40
