Mass Spectrum: 2-Pentanone, 3-methyl-
Formula: C6 H12 O
CAS: 565-61-7
Molecular weight: 100
Origin: NIST Mass Spectrometry Data Center, 1990.
m/z	RELATIVE INTENSITY
15	969
26	417
27	2156
28	255
29	2296
38	227
39	1918
40	362
41	4456
42	1021
43	9999
44	291
50	203
51	286
53	318
55	538
56	1226
57	3806
58	200
71	188
72	1851
85	513
100	1177
