Mass Spectrum: 2-Pentene, 2,3,4-trimethyl-
Formula: C8 H16
CAS: 565-77-5
Molecular weight: 112
m/z	RELATIVE INTENSITY
12	10
13	20
14	90
15	1271
16	60
25	10
26	150
27	2742
28	360
29	1371
30	30
31	10
36	10
37	60
38	220
39	3123
40	450
41	4954
42	430
43	1661
44	60
45	20
46	40
47	10
48	10
49	20
50	240
51	540
52	230
53	1211
54	250
55	8818
56	540
57	2082
58	90
61	20
62	60
63	140
64	30
65	250
66	110
67	561
68	110
69	2462
70	340
71	20
73	10
74	20
75	10
76	10
77	250
78	60
79	310
80	60
81	611
82	70
83	50
84	10
85	10
86	10
87	10
89	10
91	60
92	10
93	30
94	10
95	170
96	150
97	9999
98	771
99	30
109	10
110	10
111	30
112	2552
113	270
114	10
