Mass Spectrum: Benzoic acid, 3-(1-methylethyl)-
Formula: C10 H12 O2
CAS: 5651-47-8
Molecular weight: 164
Origin: J.M. MILLER,BROCK UNIVERSITY,ONTARIO,CANADA
m/z	RELATIVE INTENSITY
49	210
50	3040
51	3640
52	910
53	610
59	210
61	330
62	850
63	2150
64	360
65	1580
66	300
72	60
73	180
74	1240
75	1030
76	1240
77	6370
78	1970
79	3640
80	240
85	60
86	180
87	300
88	60
89	610
90	240
91	3030
92	240
93	150
101	180
102	940
103	4050
104	1370
105	5760
106	450
107	90
115	520
116	150
117	300
118	150
119	1480
120	210
121	90
122	60
123	180
131	2060
132	240
135	360
146	90
147	450
148	210
149	9999
150	820
151	90
163	120
164	3340
165	480
166	60
