Mass Spectrum: .alpha.-Chlordene
Formula: C10 H6 Cl6
CAS: 56534-02-2
Molecular weight: 336
Origin: ACCUSTANDARD Chemicals / NIST MS Data Center.
m/z	RELATIVE INTENSITY
14	22
15	43
16	44
18	25
25	37
26	76
27	398
28	568
29	11
32	150
35	59
36	76
37	161
38	176
39	417
40	21
44	38
47	83
48	42
49	297
50	402
51	435
52	56
53	37
60	97
61	434
62	486
63	381
64	67
65	114
66	54
67	59
68	33
71	61
72	184
73	627
74	622
75	585
76	60
77	83
78	35
79	132
80	343
81	104
82	26
83	250
84	371
85	636
86	389
87	327
88	38
89	43
94	47
95	79
96	271
97	901
98	971
99	802
100	129
101	159
102	248
103	182
104	68
106	46
107	314
108	301
109	558
110	243
111	321
112	64
113	81
114	46
115	675
116	601
117	292
118	93
119	332
120	425
121	342
122	267
123	351
124	225
125	332
126	471
127	66
130	57
131	112
132	353
133	833
134	366
135	383
136	215
137	126
138	74
139	29
141	41
142	36
143	121
144	77
145	259
146	148
147	203
148	134
149	100
150	59
151	37
154	24
155	67
156	52
157	148
158	139
159	319
160	1016
161	513
162	319
163	155
167	241
168	141
169	636
170	262
171	410
172	193
173	100
174	30
178	32
179	73
180	213
181	160
182	302
183	330
184	435
185	215
186	185
187	44
188	36
191	116
192	63
193	203
194	432
195	552
196	1408
197	450
198	772
199	122
200	116
201	51
202	37
203	138
204	751
205	235
206	793
207	140
208	286
209	34
210	31
214	78
215	40
216	113
217	435
218	257
219	393
220	215
221	170
222	76
227	56
228	101
230	5717
231	1797
232	5481
233	1449
234	1856
235	492
236	291
237	66
238	125
239	498
240	189
241	621
242	124
243	282
244	48
245	66
248	31
250	36
251	109
252	128
253	140
254	149
255	117
256	70
257	33
261	30
263	88
265	2396
266	952
267	3075
268	999
269	1537
270	409
271	361
272	84
273	45
274	35
276	38
278	30
287	28
289	61
291	34
301	5941
303	9999
304	1436
305	6161
306	799
307	2019
308	215
309	298
310	45
336	1879
338	3660
339	533
340	2832
341	414
342	1291
343	157
344	308
345	48
346	66
