Mass Spectrum: Bicyclo[2.2.1]heptan-2-ol, 1,7,7-trimethyl-, acetate, (1S-endo)-
Formula: C12 H20 O2
CAS: 5655-61-8
Molecular weight: 196
Origin: Chuck Anderson, Aldrich Chemical Co.
m/z	RELATIVE INTENSITY
14	15
15	189
16	7
26	17
27	449
28	78
29	535
30	12
31	24
36	3
37	3
38	17
39	741
40	147
41	1977
42	190
43	3845
44	103
45	39
50	14
51	70
52	35
53	291
54	54
55	724
56	66
57	153
58	14
59	27
60	6
61	13
62	3
63	21
64	6
65	194
66	66
67	861
68	226
69	879
70	152
71	319
72	183
73	12
77	418
78	84
79	652
80	1318
81	686
82	621
83	559
84	415
85	119
86	45
87	13
89	7
91	683
92	1318
93	4505
94	755
95	9999
96	796
97	205
98	79
99	115
100	21
101	7
102	3
103	31
104	9
105	281
106	60
107	693
108	1469
109	1153
110	1181
111	587
112	82
113	247
114	29
115	17
117	11
119	90
120	34
121	4230
122	394
123	179
124	21
125	97
126	29
127	16
133	3
134	14
135	76
136	3516
137	446
138	32
139	101
140	11
152	17
153	57
154	762
155	84
156	4
181	5
196	122
197	13
