Mass Spectrum: 16-Octadecenal
Formula: C18 H34 O
CAS: 56554-87-1
Molecular weight: 266
Origin: R.T.HOLMAN,UNIVERSITY OF MINNESOTA
m/z	RELATIVE INTENSITY
14	40
15	90
16	30
17	50
18	150
26	80
27	870
28	530
29	2500
30	720
31	260
32	30
38	50
39	650
40	250
41	5600
42	2300
43	7400
44	4900
45	2100
46	100
47	30
48	30
49	30
50	40
51	60
52	40
53	360
54	1400
55	6600
56	3000
57	8400
58	3300
59	1100
60	80
61	50
62	30
63	40
64	20
65	90
66	1000
67	4000
68	5900
69	4600
70	2500
71	4100
72	2400
73	1200
74	150
75	60
76	30
77	90
78	60
79	270
80	380
81	3600
82	9999
83	5400
84	2100
85	2200
86	1400
87	550
88	110
89	20
90	10
91	70
92	40
93	140
94	300
95	3700
96	6300
97	3600
98	1600
99	1100
100	480
101	140
102	60
103	20
104	20
105	40
106	20
107	60
108	140
109	1900
110	1900
111	1300
112	820
113	600
114	310
115	110
116	40
117	30
118	20
119	30
120	20
121	40
122	130
123	1000
124	1000
125	520
126	440
127	330
128	210
129	70
130	30
131	30
132	20
133	50
134	20
135	70
136	90
137	620
138	530
139	260
140	260
141	180
142	170
143	60
144	20
145	60
146	20
147	430
148	80
149	100
150	30
151	170
152	230
153	180
154	190
155	120
156	130
157	50
158	30
159	20
160	10
161	20
162	10
163	20
164	20
165	60
166	120
167	130
168	180
169	100
170	150
171	50
172	20
173	10
174	10
175	20
176	10
177	20
178	10
179	50
180	80
181	130
182	170
183	100
184	160
185	50
186	10
187	10
188	10
189	10
190	10
191	40
192	20
193	50
194	90
195	180
196	240
197	90
198	110
199	30
200	20
201	10
202	10
203	10
205	40
206	30
207	340
208	110
209	130
210	130
211	40
212	30
213	30
214	30
215	10
216	10
217	10
218	10
219	30
221	390
222	140
223	230
224	510
225	220
226	460
227	110
228	30
229	10
230	10
231	10
232	10
233	10
234	10
235	20
236	20
237	30
238	20
239	20
240	20
241	40
242	70
243	20
247	10
248	10
249	20
250	80
251	300
252	950
253	210
254	40
255	20
256	10
257	10
258	10
259	10
265	30
266	20
