Mass Spectrum: 1,1'-Biphenyl, 2,2',4,6,6'-Pentachloro-
Formula: C12 H5 Cl5
CAS: 56558-16-8
Molecular weight: 324
Origin: Organic Synthesis Lab, MSU, Moscow.TRC 1283
m/z	RELATIVE INTENSITY
41	8
44	78
47	88
48	21
49	138
50	186
51	122
55	32
56	15
57	17
59	10
60	101
61	317
62	190
63	60
64	16
66	16
67	18
68	8
71	23
72	120
73	509
74	641
75	241
76	16
79	107
83	32
84	217
85	303
86	232
87	120
91	168
92	347
95	25
96	116
97	206
98	423
99	221
100	21
107	76
108	214
109	852
110	695
111	205
112	22
114	79
115	69
116	28
118	18
119	24
120	113
121	153
122	294
123	251
124	54
127	929
128	871
129	301
130	46
131	27
132	113
133	158
134	81
135	88
136	24
143	31
144	217
145	317
146	264
147	225
148	200
149	242
150	35
155	15
156	34
157	62
158	90
159	91
160	47
162	210
163	321
164	201
165	79
168	25
169	62
170	34
171	54
172	26
173	12
181	57
182	103
183	228
184	1081
185	225
186	345
187	35
193	55
194	79
195	37
196	41
203	10
204	47
205	39
206	51
207	26
208	17
215	11
216	12
217	46
218	306
219	334
220	245
221	255
222	60
223	41
228	52
229	15
230	57
232	20
238	16
240	15
252	24
254	2988
255	479
256	3005
257	401
258	1044
259	127
260	101
288	65
289	343
290	142
291	449
292	103
293	203
294	31
295	44
324	5867
325	822
326	9999
327	1332
328	6278
329	836
330	2073
331	257
332	299
333	44
334	29
