Mass Spectrum: 15-Tetracosenoic acid, methyl ester
Formula: C25 H48 O2
CAS: 56554-33-7
Molecular weight: 380
Origin: R.T.HOLMAN,UNIVERSITY OF MINNESOTA
m/z	RELATIVE INTENSITY
27	1000
28	700
29	2400
31	250
39	880
40	100
41	6500
42	1300
43	6000
44	290
45	210
53	580
54	2000
55	9999
56	2300
57	3500
58	170
59	1400
65	120
66	170
67	2500
68	1400
69	5700
70	1500
71	1100
72	80
73	290
74	5000
75	790
77	170
79	420
80	250
81	1800
82	1300
83	4100
84	1600
85	630
87	2500
88	330
91	120
93	210
94	170
95	1300
96	1600
97	2600
98	1300
99	210
101	380
107	120
108	80
109	670
110	710
111	1000
112	330
113	120
114	120
115	290
121	170
123	460
124	380
125	460
126	120
127	120
128	210
129	290
130	80
133	60
135	170
136	50
137	250
138	290
139	290
140	80
141	220
142	70
143	250
147	50
149	120
151	170
152	210
153	170
154	50
155	50
157	100
163	70
165	120
166	130
167	120
171	80
177	60
179	80
180	120
181	90
185	80
193	60
194	110
195	80
199	70
207	60
208	120
209	60
213	60
221	70
222	120
223	60
227	50
235	90
236	130
237	50
242	50
249	120
250	170
251	60
263	120
264	270
265	80
277	100
278	100
291	80
292	70
304	90
305	90
306	330
307	100
319	80
320	80
330	70
348	2800
349	1100
350	210
380	484
381	150
