Mass Spectrum: 17-Octadecenal
Formula: C18 H34 O
CAS: 56554-86-0
Molecular weight: 266
Origin: R.T.HOLMAN,UNIVERSITY OF MINNESOTA
m/z	RELATIVE INTENSITY
14	40
15	90
16	30
17	50
18	200
19	10
20	10
25	20
26	70
27	920
28	620
29	2600
30	590
31	330
32	60
36	30
37	30
38	50
39	680
40	220
41	5800
42	2100
43	7400
44	4800
45	2300
46	90
47	30
48	30
50	40
51	60
52	40
53	390
54	1500
55	6900
56	2900
57	8500
58	3100
59	1300
60	100
61	50
62	30
63	30
64	20
65	80
66	1100
67	4000
68	5900
69	4600
70	2600
71	4000
72	2400
73	1400
74	170
75	70
76	30
77	100
78	50
79	260
80	380
81	3700
82	9999
83	5400
84	1900
85	2200
86	1300
87	580
88	110
89	30
90	20
91	100
92	40
93	150
94	300
95	3700
96	6100
97	3600
98	1300
99	1000
100	470
101	130
102	70
103	20
104	30
105	50
106	20
107	60
108	130
109	1900
110	1800
111	1300
112	730
113	570
114	310
115	100
116	50
117	30
118	20
119	30
120	20
121	60
122	120
123	1000
124	950
125	520
126	400
127	310
128	190
129	70
130	30
131	40
132	20
133	50
134	20
135	60
136	90
137	590
138	500
139	250
140	260
141	170
142	150
143	50
144	20
145	60
146	20
148	90
149	90
150	30
151	160
152	220
153	160
154	190
155	110
156	130
157	50
158	20
159	20
160	10
161	20
162	10
163	20
164	20
165	70
166	120
167	120
168	170
169	90
170	140
171	50
172	10
173	20
174	20
175	20
176	20
177	30
178	20
179	40
180	80
181	100
182	160
183	80
184	130
185	40
186	10
187	10
188	10
189	10
190	10
191	40
192	20
193	60
194	90
195	150
196	210
197	70
198	110
199	40
200	20
201	10
202	10
203	10
204	10
205	30
206	30
208	110
209	120
210	120
211	40
212	20
213	20
214	20
215	10
216	10
217	10
218	10
219	30
222	160
223	170
224	510
225	170
226	430
227	90
228	20
229	10
231	10
233	10
235	20
236	20
237	30
238	20
239	20
240	20
241	30
242	60
243	20
249	20
250	130
251	200
252	820
253	170
254	30
255	20
265	30
266	20
268	30
269	40
270	94
271	30
