Mass Spectrum: 1,1'-Biphenyl, 2,3',4,4',6-Pentachloro-
Formula: C12 H5 Cl5
CAS: 56558-17-9
Molecular weight: 324
Origin: N. Todua, WGM, MMES
m/z	RELATIVE INTENSITY
41	192
43	192
44	192
47	192
48	192
50	331
51	192
55	192
56	128
57	128
60	192
61	395
62	267
63	192
66	128
67	128
71	192
72	267
73	459
74	790
75	331
76	128
78	192
79	192
80	192
83	192
84	267
85	395
86	331
87	267
88	128
92	459
93	267
94	192
96	267
97	331
98	523
99	331
100	192
104	128
107	192
108	267
109	1056
110	662
111	331
113	128
114	192
115	192
116	128
119	128
120	267
121	267
122	395
123	331
124	192
127	982
128	918
129	331
130	192
131	192
132	192
133	331
134	267
135	192
136	192
142	128
143	192
144	395
145	523
146	395
147	395
148	331
149	331
150	192
156	128
157	192
158	192
159	192
160	192
161	128
162	267
163	331
164	267
165	192
168	192
169	192
170	192
171	192
180	192
181	192
182	267
183	395
184	1056
185	331
186	459
187	192
192	128
193	192
194	192
195	192
196	192
204	267
205	192
206	267
207	128
208	192
209	128
217	192
218	523
219	523
220	459
221	395
222	267
223	192
228	192
230	192
232	128
240	128
251	128
252	192
254	2828
255	598
256	2764
257	459
258	982
259	267
288	267
289	267
290	331
291	267
292	267
293	192
294	192
324	6189
325	982
326	9999
327	1451
328	6648
329	982
330	2102
331	331
332	395
333	192
334	192
