Mass Spectrum: 7,10-Octadecadienoic acid, methyl ester
Formula: C19 H34 O2
CAS: 56554-24-6
Molecular weight: 294
Origin: R.T.HOLMAN,UNIVERSITY OF MINNESOTA
m/z	RELATIVE INTENSITY
26	200
27	1800
28	1400
29	3100
30	200
31	300
32	200
38	100
39	1500
40	300
41	7200
42	1900
43	6300
44	400
45	400
50	100
51	200
52	200
53	1300
54	3800
55	7000
56	1600
57	3000
58	200
59	1800
60	200
61	100
63	100
65	700
66	800
67	9999
68	4300
69	3800
70	900
71	1500
72	200
73	600
74	1700
75	200
77	1600
78	800
79	4800
80	3200
81	9000
82	5400
83	2900
84	800
85	1000
86	200
87	1200
88	200
91	2000
92	600
93	3100
94	4000
95	6700
96	4500
97	1800
98	500
99	400
100	100
101	400
102	100
103	100
104	100
105	900
106	600
107	2000
108	2100
109	3400
110	2400
111	800
112	200
113	200
114	100
115	600
116	100
117	300
118	100
119	900
120	500
121	2000
122	1500
123	1900
124	1700
125	600
126	200
127	300
128	200
129	300
130	100
131	300
132	200
133	700
134	300
135	1900
136	1900
137	1200
138	1200
139	300
140	300
141	400
142	100
143	200
144	100
145	300
146	100
147	500
148	200
149	1200
150	1900
151	800
152	600
153	200
154	300
155	200
156	100
157	100
158	100
159	300
160	100
161	400
162	200
163	900
164	1100
165	600
166	300
167	200
168	400
169	100
171	100
173	200
175	200
176	200
177	500
178	900
179	400
180	200
181	200
182	200
183	100
185	100
187	100
189	100
191	200
192	200
193	200
194	100
195	200
196	200
197	100
205	200
206	200
207	100
208	200
209	200
210	200
218	200
219	100
220	700
221	200
222	100
223	100
224	100
233	100
234	200
235	100
237	100
238	100
245	100
251	100
261	100
262	1000
263	1100
264	300
265	100
292	100
294	3104
295	700
296	100
