Mass Spectrum: Glycine, N,N'-1,2-ethanediylbis-
Formula: C6 H12 N2 O4
CAS: 5657-17-0
Molecular weight: 176
Origin: RADIAN CORP
m/z	RELATIVE INTENSITY
15	40
16	10
17	60
18	100
26	220
27	440
28	1340
29	640
30	680
31	220
35	40
36	80
37	20
38	170
39	250
40	740
41	1450
42	5360
43	3960
44	4530
45	1350
46	80
50	20
51	150
52	330
53	260
54	990
55	1300
56	6960
57	1900
58	700
59	190
60	1330
61	20
64	40
65	10
66	80
67	150
68	680
69	190
70	670
71	570
72	270
74	140
75	160
76	50
77	40
78	10
79	30
80	70
81	550
82	540
83	820
84	580
85	5510
86	770
88	7890
89	500
90	90
93	20
94	60
95	130
96	1160
97	170
98	160
99	1600
100	400
101	1510
102	240
103	160
104	40
107	20
108	20
109	80
110	850
111	260
112	450
113	510
114	450
115	30
116	70
117	540
118	50
122	20
124	60
126	150
127	210
128	230
129	1880
130	250
131	170
135	20
136	80
138	60
139	20
140	220
141	120
142	50
143	250
144	50
154	190
156	490
158	9999
159	1120
160	150
168	50
172	40
