Mass Spectrum: 2H-Pyran, 2-(7-heptadecynyloxy)tetrahydro-
Formula: C22 H40 O2
CAS: 56599-50-9
Molecular weight: 336
Origin: R.T.HOLMAN,UNIVERSITY OF MINNESOTA
m/z	RELATIVE INTENSITY
25	30
26	250
27	2310
28	1850
29	4230
30	130
31	620
32	70
33	20
34	40
35	20
36	110
37	60
38	130
39	1580
40	310
41	8270
42	1520
43	7610
44	1390
45	150
46	20
47	40
48	30
49	20
50	210
51	640
52	230
53	920
54	1190
55	9999
56	2450
57	3570
58	230
59	80
60	50
61	30
62	70
63	350
64	180
65	1050
66	470
67	7480
68	1120
69	4900
70	590
71	1190
72	120
73	90
74	80
75	150
76	460
77	2250
78	2310
79	5430
80	2050
81	7350
82	2510
83	4230
84	1450
85	5030
86	300
87	70
88	50
89	330
90	180
91	7010
92	1980
93	4500
94	1980
95	5160
96	1050
97	670
98	130
99	80
100	80
101	210
102	130
103	640
104	470
105	4170
106	1320
107	3970
108	1190
109	2250
110	570
111	240
112	60
113	50
114	40
115	630
116	310
117	1250
118	410
119	4230
120	1390
121	4370
122	990
123	760
124	250
125	90
126	30
127	100
128	200
129	250
130	130
131	800
132	270
133	3700
134	1450
135	1920
136	640
137	600
138	450
139	70
140	20
141	170
142	70
143	80
144	60
145	430
146	170
147	2510
148	990
149	1250
150	740
151	340
152	110
153	40
154	30
155	80
156	50
157	50
158	30
159	230
160	110
161	2050
162	600
163	990
164	430
165	220
166	50
167	50
168	30
169	50
170	30
171	30
172	20
173	190
174	80
175	1650
176	340
177	270
178	80
179	70
180	40
181	30
182	30
183	30
184	20
185	30
186	20
187	110
188	70
189	800
190	350
191	440
192	90
193	130
194	50
195	30
196	30
197	30
198	20
199	30
200	20
201	50
202	30
203	270
204	80
205	70
206	40
207	190
208	60
209	50
210	10
211	30
212	10
213	10
215	40
216	30
217	300
218	90
219	70
220	50
221	50
222	90
223	40
224	20
225	20
226	10
227	10
228	10
229	40
230	30
231	800
232	250
233	110
234	50
235	60
236	30
237	10
238	10
239	10
240	10
241	10
242	10
243	40
244	30
245	290
246	80
247	30
248	10
249	10
250	10
251	10
252	10
253	10
254	10
255	10
256	10
257	30
258	30
259	270
260	90
261	50
262	20
263	70
264	20
265	70
266	20
267	10
271	30
272	20
273	170
274	60
275	10
280	30
281	10
285	30
286	10
287	30
300	30
301	30
302	40
303	30
304	10
305	50
306	20
334	70
335	30
