Mass Spectrum: 5,5'-Bipyrimidine
Formula: C8 H6 N4
CAS: 56598-46-0
Molecular weight: 158
Origin: CHBEAM, 111(4)1330(1978); T. KAUFFMANN ET AL.
m/z	RELATIVE INTENSITY
28	1400
49	1000
52	1000
75	1700
76	2900
77	3100
104	7800
158	9999
159	1100
