Mass Spectrum: 8,11-Octadecadienoic acid, methyl ester
Formula: C19 H34 O2
CAS: 56599-58-7
Molecular weight: 294
Origin: R.T.HOLMAN,UNIVERSITY OF MINNESOTA
m/z	RELATIVE INTENSITY
26	90
27	1160
28	880
29	2510
30	90
31	110
38	70
39	1280
40	290
41	6500
42	920
43	3190
44	300
45	290
46	30
47	30
48	50
49	40
50	40
51	110
52	140
53	1220
54	4110
55	6310
56	670
57	1040
58	90
59	1530
60	120
61	60
62	40
63	50
64	60
65	490
66	590
67	9999
68	4600
69	4170
70	490
71	520
72	60
73	440
74	1280
75	170
76	30
77	1470
78	520
79	3920
80	2510
81	7850
82	4470
83	2080
84	420
85	680
86	50
87	880
88	90
89	50
90	40
91	1160
92	230
93	1770
94	1840
95	5950
96	3550
97	1280
98	420
99	200
100	80
101	250
102	70
103	60
104	90
105	360
106	260
107	1100
108	1530
109	3190
110	2200
111	630
112	140
113	190
114	120
115	390
116	70
117	140
118	110
119	310
120	220
121	1040
122	1040
123	1410
124	1410
125	280
126	110
127	220
128	140
129	280
130	70
131	270
132	130
133	330
134	130
135	1340
136	1040
137	1100
138	740
139	250
140	170
141	250
142	60
143	210
144	30
145	150
146	90
147	160
148	60
149	850
150	1590
151	590
152	440
153	160
154	170
155	140
156	40
157	90
158	30
159	190
160	90
161	140
162	40
163	560
164	980
165	280
166	280
167	170
168	220
169	90
170	30
171	90
172	30
173	220
174	40
175	70
176	50
177	340
178	540
179	230
180	130
181	150
182	160
183	60
184	30
185	70
186	30
187	100
188	60
189	30
190	30
191	200
192	110
193	110
194	60
195	110
196	110
197	60
198	30
199	40
200	20
201	40
203	30
204	30
205	110
206	70
207	70
208	60
209	150
210	110
211	40
212	20
213	30
214	20
215	30
216	20
217	20
218	90
219	90
220	450
221	90
222	20
223	90
224	80
225	30
226	20
227	30
228	30
229	30
232	30
233	90
234	140
235	60
236	30
237	70
238	40
244	30
245	50
246	30
247	20
248	20
249	20
250	20
251	60
252	30
253	30
259	40
262	610
263	1100
264	170
265	60
266	30
293	30
294	2204
295	460
296	80
297	20
