Mass Spectrum: 10-Nonadecenoic acid, methyl ester
Formula: C20 H38 O2
CAS: 56599-83-8
Molecular weight: 310
Origin: R.T.HOLMAN,UNIVERSITY OF MINNESOTA
m/z	RELATIVE INTENSITY
26	50
27	1150
28	570
29	3040
30	90
31	270
32	80
33	20
38	20
39	1010
40	210
41	7580
42	1400
43	5940
44	260
45	370
46	30
50	10
51	40
52	50
53	770
54	2410
55	9999
56	2560
57	3380
58	200
59	1880
60	80
61	40
62	10
63	10
64	10
65	180
66	180
67	3090
68	2070
69	6520
70	1880
71	1150
72	140
73	570
74	5840
75	910
76	90
77	180
78	70
79	620
80	400
81	2650
82	1930
83	5070
84	3760
85	910
86	80
87	3860
88	380
89	70
90	30
91	170
92	50
93	330
94	410
95	2070
96	3380
97	4050
98	2990
99	430
100	100
101	670
102	100
103	30
104	30
105	100
106	50
107	270
108	280
109	1150
110	1780
111	1830
112	720
113	290
114	420
115	720
116	130
117	40
118	30
119	230
120	90
121	320
122	160
123	1200
124	960
125	1110
126	240
127	290
128	510
129	480
130	140
131	30
132	20
133	220
134	190
135	350
136	130
137	770
138	770
139	720
140	130
141	570
142	150
143	440
144	80
145	30
146	10
147	170
148	140
149	250
150	90
151	460
152	570
153	380
154	80
155	130
156	40
157	170
158	40
159	20
160	10
161	140
162	60
163	130
164	70
165	300
166	310
167	230
168	50
169	110
170	50
171	150
172	40
173	10
174	10
175	90
176	40
177	80
178	80
179	210
180	390
181	170
182	40
183	190
184	30
185	110
186	30
187	10
188	10
189	50
190	20
191	40
192	30
193	140
194	960
195	240
196	50
197	130
198	30
199	100
200	30
201	10
203	30
204	10
205	20
206	20
207	140
208	180
209	60
210	20
211	30
212	10
213	90
214	60
215	10
217	10
218	10
219	10
220	20
221	140
222	130
223	60
224	30
225	20
226	10
227	80
228	50
229	10
231	10
232	10
233	10
234	350
235	280
236	1300
237	280
238	30
239	10
240	10
241	30
242	40
243	10
249	190
250	180
251	40
252	10
253	10
254	10
255	10
256	10
259	10
260	150
261	100
262	10
263	20
264	10
265	10
267	70
268	10
269	10
270	10
277	50
278	3230
279	1540
280	270
281	50
282	10
283	10
284	10
292	20
293	10
308	10
309	10
310	564
311	120
312	10
