Mass Spectrum: 5.alpha.-Dihydroprogesterone
Formula: C21 H32 O2
CAS: 566-65-4
Molecular weight: 316
Origin: D.HENNEBERG, MAX-PLANCK INSTITUTE, MULHEIM, WEST GERMANY
m/z	RELATIVE INTENSITY
27	806
28	247
29	1034
30	20
31	45
36	23
38	27
39	741
40	18
41	3773
42	351
43	9999
44	150
45	328
47	11
50	5
51	117
52	87
53	1404
54	355
55	4401
56	259
57	317
58	90
59	41
63	38
64	39
65	623
66	324
67	3271
68	1278
69	1591
70	111
71	2818
72	153
73	39
74	21
75	56
77	1435
78	275
79	2978
80	924
81	3842
82	463
83	695
84	6057
85	1593
86	140
87	73
88	24
89	32
90	31
91	2380
92	429
93	2734
94	967
95	3148
96	363
97	604
98	176
99	266
100	37
101	303
102	60
103	151
104	135
105	1868
106	602
107	2309
108	644
109	1598
110	418
111	662
112	95
113	60
115	173
116	166
117	510
118	225
119	1426
120	823
121	1988
122	1049
123	1773
124	1215
125	313
126	23
127	121
128	119
129	233
130	105
131	645
132	303
133	1057
134	962
135	1651
136	481
137	519
138	160
139	44
140	25
141	65
142	47
143	278
144	117
145	642
146	383
147	1702
148	544
149	1001
150	136
151	137
152	33
153	50
154	26
155	52
156	85
157	295
158	189
159	823
160	305
161	812
162	243
163	988
164	180
165	168
166	35
167	40
168	35
169	76
170	81
171	266
172	176
173	649
174	446
175	1004
176	470
177	239
178	59
179	110
180	34
181	42
183	119
184	37
185	225
186	121
187	416
188	237
189	383
190	163
191	151
192	153
193	157
194	63
195	61
197	77
198	52
199	250
200	122
201	311
202	164
203	362
204	125
205	42
207	15
208	36
209	28
210	34
211	182
212	72
213	511
214	126
215	472
216	211
217	804
218	184
219	45
223	45
225	183
226	70
227	266
228	182
229	481
230	348
231	3807
232	1154
233	1362
234	294
235	36
236	23
237	31
238	56
239	83
240	147
241	198
242	143
243	378
244	384
245	394
246	1148
247	181
251	108
252	40
253	73
254	23
255	627
256	357
257	250
258	2142
259	583
260	123
261	101
263	16
264	15
265	85
266	53
268	42
269	826
270	486
271	859
272	1463
273	1166
274	213
275	29
279	21
281	165
282	77
283	795
284	287
285	77
286	40
287	314
288	159
289	17
293	15
296	27
297	43
298	3120
299	645
300	179
301	570
302	662
303	106
304	22
309	10
315	38
316	5492
317	1424
318	185
319	47
