Mass Spectrum: Decanoic acid, 3-hydroxy-, methyl ester
Formula: C11 H22 O3
CAS: 56618-58-7
Molecular weight: 202
Origin: L.E. Slivon, Battelle Columbus Laboratories, Columbus, Ohio 43201
m/z	RELATIVE INTENSITY
41	3898
42	1762
43	9426
45	428
46	18
47	6
48	2
49	5
50	23
51	62
52	32
53	305
54	369
55	2569
56	1114
57	2100
58	399
59	1518
60	87
61	2584
62	78
63	28
64	4
65	66
66	87
67	707
68	527
69	2463
70	363
71	4691
72	322
73	173
74	4552
75	622
76	48
77	54
78	32
79	134
80	55
81	637
82	460
83	381
84	908
85	516
86	107
87	596
88	107
89	15
90	3
91	30
92	15
93	44
94	38
95	289
96	441
97	257
98	129
99	130
100	213
101	543
102	269
103	9999
104	489
105	99
106	19
107	27
108	65
109	164
110	557
111	367
112	53
113	269
114	145
115	81
116	164
117	60
118	24
119	19
120	10
121	8
122	8
123	148
124	84
125	21
126	12
127	314
128	98
129	134
130	21
131	8
132	3
133	11
134	41
135	117
136	20
137	25
138	8
139	7
141	49
142	16
143	12
144	10
145	4
147	1
148	1
149	1
150	9
151	15
152	169
153	207
154	26
155	24
156	7
157	7
159	2
164	5
165	1
166	7
167	2
168	3
169	14
170	7
171	10
173	7
174	7
175	1
184	11
185	1
201	13
