Mass Spectrum: Propanamide, N-(4-methoxyphenyl)-2,2-dimethyl-
Formula: C12 H17 N O2
CAS: 56619-94-4
Molecular weight: 207
Origin: Zaikin V.G., TIPS RAS, Moscow, Russia
m/z	RELATIVE INTENSITY
26	40
27	140
28	230
29	591
38	30
39	300
40	50
41	1191
42	140
44	30
50	50
51	110
52	270
53	230
54	40
55	110
56	70
57	6156
58	280
63	110
64	130
65	180
66	30
67	50
69	90
70	30
77	130
78	120
79	160
80	390
81	80
85	220
90	40
91	60
92	160
93	40
94	30
95	370
96	30
106	140
107	110
108	4604
109	460
121	100
122	1351
123	4714
124	751
125	50
134	240
135	40
136	40
148	30
149	490
150	180
151	120
164	571
165	110
192	90
207	9999
208	1351
209	110
