Mass Spectrum: (R)-(-)-2-Phenylglycinol
Formula: C8 H11 N O
CAS: 56613-80-0
Molecular weight: 137
Origin: NIST Mass Spectrometry Data Center
m/z	RELATIVE INTENSITY
13	10
14	20
15	150
16	30
17	50
18	90
19	10
26	90
27	470
28	5065
29	661
30	400
31	1271
32	20
37	60
38	140
39	641
40	100
41	180
42	250
43	80
44	10
45	10
50	561
51	1161
52	440
53	290
54	80
55	10
58	20
59	30
60	90
61	40
62	110
63	240
64	60
65	310
66	40
67	30
73	20
74	160
75	80
77	2192
78	561
79	4074
80	310
81	10
86	20
87	10
89	130
90	70
91	440
92	40
93	30
100	10
102	40
104	520
106	9999
107	731
108	20
117	40
118	60
119	30
120	20
121	10
