Mass Spectrum: Octanamide, N-(2-mercaptoethyl)-
Formula: C10 H21 N O S
CAS: 56630-30-9
Molecular weight: 203
Origin: R.T.HOLMAN,UNIVERSITY OF MINNESOTA
m/z	RELATIVE INTENSITY
26	1100
27	5700
28	6000
29	5200
30	8000
31	280
32	510
33	250
34	570
35	690
36	840
37	170
38	340
39	2700
40	670
41	8400
42	2500
43	9600
44	3900
45	780
46	250
47	790
48	190
49	120
50	180
51	280
52	180
53	740
54	1000
55	5800
56	1400
57	9999
58	760
59	2000
60	3500
61	2300
62	180
63	200
64	60
65	180
66	130
67	900
68	510
69	1600
70	710
71	890
72	1900
73	810
74	490
75	140
76	380
77	920
78	560
79	310
80	170
81	550
82	600
83	1100
84	570
85	6000
86	730
87	840
88	540
89	100
90	60
91	220
92	80
93	130
94	110
95	330
96	420
97	630
98	2500
99	650
100	400
101	1000
102	260
103	120
104	120
105	200
106	70
107	120
108	80
109	430
110	270
111	260
112	600
113	210
114	340
115	300
116	170
117	120
118	50
119	2700
120	230
121	200
122	60
123	120
124	120
125	160
126	360
127	3600
128	420
129	270
130	80
131	60
132	1100
133	170
134	110
135	100
136	50
137	80
138	90
139	80
140	480
141	310
142	150
143	120
144	7600
145	720
146	230
147	110
148	40
149	260
150	50
151	50
152	60
153	80
154	130
155	160
156	700
157	150
158	50
159	50
160	140
161	220
162	60
163	70
164	40
165	70
166	50
167	150
168	150
169	220
170	310
171	120
172	40
173	40
174	160
175	50
176	40
177	40
178	50
179	60
180	40
181	40
182	40
183	50
184	40
185	210
186	70
187	50
188	50
189	60
190	40
191	50
192	40
193	60
194	50
195	60
196	50
197	50
198	40
199	50
200	50
201	40
202	110
203	1604
204	210
205	120
206	50
207	50
