Mass Spectrum: 1,6-Methano-1H-indene, 2,3,3a,4,5,8-hexachloro-3a,6,7,7a-tetrahydro-, (1-.alpha.,3a-.beta.,6-.alpha.,7a-.beta.,8R*)-
Formula: C10 H6 Cl6
CAS: 56641-38-4
Molecular weight: 336
Origin: ACCUSTANDARD Chemicals / NIST MS Data Center.
m/z	RELATIVE INTENSITY
18	53
25	30
26	120
27	484
28	1238
29	17
32	240
35	155
36	121
37	234
38	274
39	589
40	27
44	36
47	112
48	57
49	592
50	756
51	765
52	87
53	37
55	59
60	216
61	758
62	788
63	508
64	65
65	107
66	113
67	112
68	86
71	83
72	268
73	977
74	1007
75	1131
76	160
77	115
79	233
80	705
81	240
82	83
83	376
84	605
85	1303
86	738
87	556
88	96
89	69
90	45
91	37
94	90
95	162
96	424
97	1664
98	1858
99	1258
100	228
101	179
102	327
103	262
104	92
105	26
106	65
107	434
108	540
109	857
110	377
111	597
112	88
113	147
114	26
115	1906
116	1521
117	613
118	148
119	354
120	443
121	524
122	401
123	689
124	375
125	682
126	1012
127	117
130	88
131	194
132	810
133	2442
134	1339
135	1328
136	640
137	331
138	149
139	32
141	62
142	42
143	191
144	123
145	490
146	657
147	584
148	526
149	181
150	106
151	43
152	30
154	44
155	113
156	319
157	255
158	438
159	657
160	2084
161	1141
162	722
163	309
164	43
165	36
166	30
167	328
168	30
169	4466
170	953
171	4425
172	623
173	1307
174	132
175	128
180	1166
181	428
182	1350
183	761
184	542
185	409
186	97
187	72
190	120
191	155
192	169
193	263
194	982
195	1029
196	2567
197	847
198	1370
199	303
200	306
201	66
202	174
203	129
204	473
205	190
206	366
207	100
208	117
209	32
214	142
216	280
217	1303
218	522
219	1244
220	402
221	458
222	99
223	57
227	87
230	8882
231	2636
232	8116
233	2311
234	2828
235	734
236	396
237	119
238	83
239	75
240	91
241	63
242	51
243	29
250	55
251	301
252	187
253	480
254	255
255	316
256	122
257	122
258	34
261	49
263	75
265	4116
266	1221
267	5325
268	1328
269	2697
270	532
271	587
272	127
273	58
274	44
287	51
289	95
291	49
301	6105
302	1632
303	9999
304	1607
305	6550
306	869
307	2124
308	279
309	370
310	54
336	4128
338	7960
339	1101
340	6478
341	869
342	2785
343	375
344	742
345	70
346	110
