Mass Spectrum: Allyldiethylamine
Formula: C7 H15 N
CAS: 5666-17-1
Molecular weight: 113
Origin: Japan AIST/NIMC Database- Spectrum MS-NW-4654
m/z	RELATIVE INTENSITY
14	10
15	179
26	129
27	779
28	1569
29	1089
30	1059
31	10
37	20
38	70
39	739
40	109
41	4769
42	1429
43	279
44	279
50	40
51	60
52	80
53	40
54	239
55	159
56	2449
57	219
58	969
59	40
63	10
65	10
66	10
67	60
68	209
69	70
70	729
71	119
72	129
73	10
74	10
76	10
77	50
78	229
79	20
80	20
81	20
82	139
83	40
84	259
85	50
86	2239
87	139
94	10
96	109
97	40
98	9999
99	709
100	30
110	30
111	30
112	519
113	1949
114	159
115	10
