Mass Spectrum: Pyrrolidine, 1-(1-oxo-2,5-octadecadienyl)-
Formula: C22 H39 N O
CAS: 56666-48-9
Molecular weight: 333
Origin: R.T.HOLMAN,UNIVERSITY OF MINNESOTA
m/z	RELATIVE INTENSITY
39	1800
40	560
41	4700
42	2100
43	9999
44	650
45	130
47	170
48	110
49	630
50	580
51	330
52	280
53	480
54	420
55	2700
56	730
57	1500
58	1200
59	780
60	130
61	50
62	50
63	100
64	50
65	160
66	260
67	860
68	770
69	970
70	2700
71	2300
72	340
73	160
74	450
75	130
76	50
77	280
78	110
79	600
80	300
81	840
82	360
83	590
84	580
85	580
86	240
87	610
88	80
89	70
90	60
91	170
92	90
93	260
94	230
95	590
96	360
97	480
98	1600
99	210
100	240
101	110
103	50
104	50
105	130
106	70
107	200
108	130
109	230
110	240
111	480
112	170
113	2600
114	260
115	100
116	70
117	60
119	80
120	70
121	110
122	100
123	160
124	240
125	160
126	290
127	150
128	70
129	80
131	60
133	60
134	70
135	110
136	110
137	120
138	110
139	270
140	110
141	110
142	60
143	70
144	50
145	50
147	50
148	50
149	100
150	490
151	130
152	230
153	120
154	190
155	70
156	190
157	60
161	150
163	60
164	110
165	150
166	180
167	90
168	60
169	60
171	50
177	50
178	130
179	80
180	140
181	80
182	70
183	70
185	50
190	50
192	90
193	70
194	90
195	60
197	80
199	70
204	50
206	60
207	50
208	70
212	80
213	50
219	50
220	100
221	120
222	110
223	60
224	50
234	60
235	60
236	60
237	50
239	50
248	50
249	70
250	60
251	50
252	50
262	60
263	80
264	120
265	110
266	80
267	60
278	50
292	50
293	50
294	120
295	50
296	60
304	50
306	50
320	50
332	60
333	194
334	80
335	130
336	60
