Mass Spectrum: Levomoramide
Formula: C25 H32 N2 O2
CAS: 5666-11-5
Molecular weight: 392
Origin: HOME OFFICE, CENTRAL RES. EST., ALDERMASTON, BERKS., U.K.
m/z	RELATIVE INTENSITY
41	300
42	500
43	100
44	100
45	100
55	600
56	200
57	100
69	200
70	300
90	400
91	300
100	9999
101	500
106	200
115	300
128	3300
129	700
149	200
165	400
166	200
167	200
172	100
194	200
195	100
238	100
265	5800
266	1100
267	100
284	100
306	200
