Mass Spectrum: Bicyclo[6.1.0]nonane, 9-(1-methylethylidene)-
Formula: C12 H20
CAS: 56666-90-1
Molecular weight: 164
Origin: M.S.NEWMAN THE OHIO STATE UNIV., COLUMBUS, OHIO, USA
m/z	RELATIVE INTENSITY
15	417
18	250
26	500
27	4500
28	917
29	3250
38	417
39	5500
40	1333
41	9999
42	1083
43	2750
50	667
51	1750
52	833
53	4250
54	1833
55	7000
56	667
57	583
63	667
65	1750
66	1167
67	9000
68	2250
69	3000
70	500
77	3500
78	1333
79	7250
80	2583
81	6500
82	3500
83	1000
91	3750
92	917
93	6500
94	2417
95	4750
96	1417
97	1583
105	1500
106	500
107	4000
108	1500
109	1083
110	333
119	667
121	5250
122	1417
123	833
135	917
136	4250
137	583
149	2333
150	583
164	417
