Mass Spectrum: 1,1'-Biphenyl, 3,3',4,4',5,5'-hexamethyl-
Formula: C18 H22
CAS: 56667-01-7
Molecular weight: 238
Origin: R.C. DOUGHERTY
m/z	RELATIVE INTENSITY
77	350
103	200
104	500
119	500
178	200
179	300
180	1201
181	200
191	400
192	400
193	901
194	200
205	400
206	901
207	901
208	801
219	550
222	150
223	1601
224	300
237	601
238	9999
239	2002
240	200
