Mass Spectrum: 11-Hexadecen-1-ol, (Z)-
Formula: C16 H32 O
CAS: 56683-54-6
Molecular weight: 240
Origin: Chuck Anderson, Aldrich Chemical Co.
m/z	RELATIVE INTENSITY
17	114
18	546
27	1081
28	303
29	1790
31	1526
36	393
38	58
39	1045
40	195
41	6345
42	1141
43	2607
44	270
53	642
54	3076
55	9999
56	1922
57	1646
65	210
66	417
67	5432
68	3845
69	4566
70	1117
71	606
77	120
79	597
80	288
81	5191
82	6441
83	2716
84	507
85	351
93	133
95	3797
96	4470
97	1514
98	354
109	1742
110	1454
111	435
123	760
124	673
137	300
138	300
222	195
