Mass Spectrum: Propane, 1,1'-[ethylidenebis(oxy)]bis[2-methyl-
Formula: C10 H22 O2
CAS: 5669-09-0
Molecular weight: 174
m/z	RELATIVE INTENSITY
14	20
15	40
16	30
27	280
28	80
29	1221
31	130
33	80
39	290
40	40
41	2062
42	240
43	631
44	70
45	2883
55	240
56	681
57	9999
58	681
59	70
61	90
73	80
83	220
85	50
101	5585
102	310
103	200
117	30
131	270
144	10
159	691
