Mass Spectrum: Acetic acid, 2,2,2-trifluoro-, 4-methoxyphenyl ester
Formula: C9 H7 F3 O3
CAS: 5672-87-7
Molecular weight: 220
Origin: NIST Mass Spectrometry Data Center, 2010
m/z	RELATIVE INTENSITY
15	40
25	10
26	150
27	30
28	30
29	30
31	30
37	40
38	180
39	220
40	20
41	611
42	30
43	10
45	10
49	20
50	300
51	280
52	520
53	330
54	420
55	60
57	20
60	10
61	70
62	200
63	581
64	450
65	380
66	60
67	100
69	1852
70	40
73	20
74	70
75	120
76	40
77	290
78	60
79	200
80	380
81	30
82	150
83	90
84	10
91	10
92	320
93	40
94	30
95	2412
96	180
97	100
101	50
102	10
107	290
108	160
109	20
110	10
111	10
113	20
121	10
123	9999
124	781
125	70
126	10
130	10
133	10
135	10
139	30
145	90
146	10
149	80
150	10
151	10
173	240
174	30
177	50
178	10
189	40
204	10
205	10
217	10
220	4374
221	510
222	60
