Mass Spectrum: 1,12-Dodecanediol
Formula: C12 H26 O2
CAS: 5675-51-4
Molecular weight: 202
Origin: D.HENNEBERG, MAX-PLANCK INSTITUTE, MULHEIM, WEST GERMANY
m/z	RELATIVE INTENSITY
26	86
27	1438
28	231
29	2582
30	83
31	3875
32	11
33	21
36	8
37	4
38	17
39	1004
40	235
41	7125
42	1894
43	3540
44	389
45	408
46	14
47	7
49	35
50	20
51	45
52	30
53	503
54	3016
55	9999
56	2473
57	1970
58	158
59	63
60	8
61	9
62	5
63	13
64	8
65	101
66	638
67	5100
68	5711
69	4844
70	1515
71	861
72	139
73	241
74	16
75	3
76	5
77	73
78	30
79	235
80	233
81	3860
82	7594
83	3260
84	867
85	656
86	91
87	47
88	6
89	5
91	58
92	15
93	82
94	186
95	2831
96	3633
97	1557
98	513
99	245
100	32
101	15
102	3
103	8
104	8
105	13
107	23
108	51
109	1364
110	1357
111	535
112	219
113	57
114	18
115	12
117	7
118	3
119	10
121	20
122	31
123	541
124	436
125	236
126	226
127	36
128	18
129	13
131	5
135	9
136	11
137	282
138	464
139	64
140	22
141	24
142	5
149	10
151	17
152	6
153	5
154	189
155	34
156	12
157	5
164	7
165	16
166	82
167	16
169	3
172	18
183	5
184	3
203	5
