Mass Spectrum: 1,4-Heptadiene
Formula: C7 H12
CAS: 5675-22-9
Molecular weight: 96
Origin: NIST Mass Spectrometry Data Center, 1990.
m/z	RELATIVE INTENSITY
26	561
27	3101
28	989
29	1319
38	828
39	6798
40	1123
41	5320
42	540
50	712
51	1276
52	614
53	3403
54	9548
55	5205
63	463
65	2113
66	909
67	7061
68	1111
77	1142
79	3497
81	9999
82	634
95	463
96	3001
