Mass Spectrum: Benzene, (1-methylenebutyl)-
Formula: C11 H14
CAS: 5676-32-4
Molecular weight: 146
Origin: NIST Mass Spectrometry Data Center, 1990.
m/z	RELATIVE INTENSITY
14	46
15	139
26	183
27	1251
28	170
29	435
37	54
38	275
39	1705
40	256
41	529
42	75
50	898
51	2028
52	422
53	437
54	28
55	38
57	121
61	78
62	293
63	822
64	286
65	967
66	89
67	335
68	51
70	30
71	44
73	42
74	373
75	388
76	576
77	2470
78	1890
79	235
86	66
87	97
88	65
89	511
90	42
91	3393
92	298
101	107
102	797
103	2411
104	694
105	320
106	27
113	47
115	3293
116	1221
117	4400
118	9999
119	983
120	54
126	62
127	222
128	486
129	556
130	326
131	2658
132	301
145	287
146	1641
147	197
