Mass Spectrum: Methyl 2-hydroxytricosanoate, TMS derivative
Formula: C27 H56 O3 Si
CAS: 56784-03-3
Molecular weight: 456
Origin: W.R.MORRISON DEPT. FOOD SCI., UNIV. STRATHCLYDE, GLASGOW, U
m/z	RELATIVE INTENSITY
41	1800
42	300
43	4200
44	300
45	300
54	200
55	2700
56	600
57	3700
58	300
59	1200
61	200
67	1000
68	500
69	2600
70	500
71	2100
72	400
73	9999
74	1300
75	3300
76	300
81	1300
82	700
83	3000
84	200
85	1300
87	400
89	3900
90	400
91	1100
95	1200
96	500
97	2400
98	300
99	300
101	500
103	3300
104	300
105	500
107	300
109	600
111	1100
115	700
116	500
117	300
119	400
123	300
125	300
127	200
129	3300
130	400
131	400
144	400
146	500
147	500
159	1900
160	300
161	400
162	500
185	200
382	200
383	100
397	3800
398	1700
399	700
400	200
409	100
411	100
412	300
413	100
441	3100
442	1100
443	300
456	200
