Mass Spectrum: 7-Hexadecenal, (Z)-
Formula: C16 H30 O
CAS: 56797-40-1
Molecular weight: 238
Origin: J. Klune, Insect Chem. Ecol. Lab., USDA, Beltsville, MD 20705
m/z	RELATIVE INTENSITY
41	9924
42	1847
43	7433
44	840
45	168
46	9
47	34
48	4
49	61
50	30
51	141
52	119
53	1427
54	3627
55	9999
56	2632
57	4717
58	356
59	143
60	56
61	15
63	23
65	456
66	651
67	5896
68	2674
69	5000
70	3660
71	1556
72	156
73	75
74	10
75	8
77	468
78	239
79	2580
80	1943
81	3877
82	4316
83	4089
84	2276
85	695
86	117
87	27
88	10
91	382
92	126
93	1924
94	1528
95	3396
96	3335
97	3702
98	4877
99	442
100	63
101	31
103	21
105	121
106	70
107	950
108	1183
109	1401
110	1150
111	2523
112	1417
113	185
114	37
115	27
117	10
119	50
120	83
121	3618
122	1161
123	661
124	977
125	666
126	279
127	68
128	25
129	19
131	4
133	28
134	22
135	1599
136	643
137	396
138	785
139	258
140	99
141	87
142	51
143	14
147	19
148	11
149	511
150	168
151	185
152	265
153	119
154	57
155	41
156	78
157	16
163	261
164	77
165	70
166	113
167	58
168	31
169	18
170	23
171	4
177	115
178	59
179	48
180	20
181	48
182	38
183	17
191	69
192	87
193	24
194	139
195	93
196	37
197	14
205	15
206	16
207	40
208	19
209	39
210	62
211	14
219	10
220	1448
221	254
222	46
223	14
224	4
227	10
236	18
237	19
238	307
239	64
240	4
