Mass Spectrum: 1,3-Dioxolo[4,5-c]acridin-6(11H)-one, 4,5-dimethoxy-11-methyl-
Formula: C17 H15 N O5
CAS: 568-01-4
Molecular weight: 313
Origin: J.H.BOWIE UNIVERSITY OF ADELAIDE, AUSTRALIA
m/z	RELATIVE INTENSITY
77	1200
102	700
114	700
129	600
159	1400
169	900
197	700
212	600
225	600
238	900
254	1300
268	1200
270	8000
271	1700
280	1200
284	1600
298	9999
299	2400
313	7800
314	1500
