Mass Spectrum: Cyclopropane, 1,1'-methylenebis-
Formula: C7 H12
CAS: 5685-47-2
Molecular weight: 96
Origin: NIST Mass Spectrometry Data Center, 1990.
m/z	RELATIVE INTENSITY
26	371
27	2155
28	1008
29	1294
38	480
39	4134
40	1152
41	2091
42	553
50	429
51	556
53	2894
54	1990
55	3687
65	520
67	9999
68	9678
69	520
77	292
79	461
81	1093
