Mass Spectrum: 1,1'-Bicyclopropyl
Formula: C6 H10
CAS: 5685-46-1
Molecular weight: 82
m/z	RELATIVE INTENSITY
26	360
27	2452
28	1101
29	510
37	110
38	340
39	5075
40	571
41	6306
42	510
49	20
50	370
51	601
52	260
53	1732
54	9999
55	801
63	70
65	691
66	140
67	9128
68	420
77	210
78	10
79	470
80	10
81	831
82	510
83	10
