Mass Spectrum: 2H-Inden-2-one, octahydro-, cis-
Formula: C9 H14 O
CAS: 5689-04-3
Molecular weight: 138
Origin: CARL DJERASSI DEPT OF CHEM STANFORD UNIV STANFORD CALIF 94305
m/z	RELATIVE INTENSITY
37	200
38	600
39	7700
40	1500
41	8500
42	2000
43	600
50	600
51	1200
52	700
53	3000
54	6000
55	3700
56	900
57	700
63	200
65	600
66	500
67	6900
68	4900
69	1100
70	300
77	500
78	100
79	1400
80	600
81	9999
82	4000
83	400
84	200
91	200
92	200
93	200
94	9800
95	4100
96	1800
97	100
109	1100
110	500
120	300
123	200
138	6400
139	500
