Mass Spectrum: Meclizine
Formula: C25 H27 Cl N2
CAS: 569-65-3
Molecular weight: 390
Origin: Drug Lab
m/z	RELATIVE INTENSITY
41	70
42	470
43	10
44	80
51	100
53	40
54	70
55	160
56	280
57	40
58	40
63	70
65	120
70	60
72	390
73	50
75	50
77	701
78	220
79	721
80	40
83	150
84	50
89	140
90	50
91	380
92	10
102	50
103	621
104	330
105	9999
106	941
107	20
113	10
115	140
116	20
117	130
118	200
119	150
120	30
125	150
126	10
127	50
130	60
131	50
132	250
133	70
134	771
135	130
138	30
139	170
140	20
144	30
145	10
146	731
147	390
148	651
149	130
151	20
152	80
158	20
160	220
161	50
162	691
163	300
164	320
165	3553
166	2322
167	410
168	20
174	170
175	40
179	40
187	100
189	7927
190	1011
191	100
199	80
201	1471
202	240
203	480
204	70
206	40
207	30
208	20
209	40
216	120
218	20
228	490
229	250
230	190
231	80
240	110
241	100
242	450
243	130
244	150
253	30
256	20
285	1141
286	220
287	370
288	60
390	200
391	40
392	70
