Mass Spectrum: Benzene, 1,3-dibromo-5-(bromomethyl)-
Formula: C7 H5 Br3
CAS: 56908-88-4
Molecular weight: 326
Origin: NIST Mass Spectrometry Data Center
m/z	RELATIVE INTENSITY
15	50
18	50
26	110
37	530
38	751
39	1381
40	70
43	220
44	500
49	350
50	1111
51	370
60	120
61	871
62	2082
63	3043
64	170
73	40
75	130
79	741
80	190
81	821
82	190
83	220
84	540
85	681
86	781
87	731
88	761
89	3643
90	360
93	80
95	70
104	50
106	80
116	80
117	250
118	70
119	250
123	320
124	711
125	270
141	110
143	170
144	40
167	450
168	2032
169	581
170	1762
171	210
221	50
223	100
247	5405
249	9999
250	951
251	5025
252	470
326	390
327	80
328	1271
329	150
330	1141
331	130
332	420
