Mass Spectrum: Pyrrole, 4-ethyl-2-methyl-
Formula: C7 H11 N
CAS: 5690-96-0
Molecular weight: 109
Origin: D. GAMES, M. HEWLINS, A. JACKSON, CHEM DEPT, UNIV COLL, CARDIFF, U.K.
m/z	RELATIVE INTENSITY
47	159
51	136
52	210
53	1059
54	227
65	376
66	290
67	1207
68	91
77	461
78	153
79	302
80	410
81	205
92	136
93	1105
94	9999
95	495
106	307
107	193
108	831
109	5213
110	427
