Mass Spectrum: 2-Butenoic acid, 3-methyl-, pentyl ester
Formula: C10 H18 O2
CAS: 56922-72-6
Molecular weight: 170
Origin: V.G.Zaikin, TIPS RAS, Moscow, Russia
m/z	RELATIVE INTENSITY
25	50
26	460
27	4334
28	701
29	5355
30	190
31	170
35	30
36	110
37	180
38	530
39	4264
40	851
41	3313
42	1291
43	3843
44	520
45	170
49	70
50	390
51	561
52	230
53	1491
54	711
55	5515
56	571
57	280
58	70
59	390
60	30
65	60
66	90
67	390
68	90
69	290
70	420
71	480
72	70
77	20
79	70
81	70
82	2252
83	9999
84	641
85	1051
86	30
91	30
93	30
98	30
99	50
100	6586
101	2152
102	190
113	30
127	30
155	40
170	370
171	70
