Mass Spectrum: 2,5-Dichlorothiophene-3-sulfonyl chloride
Formula: C4 H Cl3 O2 S2
CAS: 56946-83-9
Molecular weight: 250
Origin: NIST Mass Spectrometry Data Center
m/z	RELATIVE INTENSITY
12	170
13	70
15	50
16	210
18	90
24	80
25	100
26	10
28	190
32	901
33	110
35	1161
36	891
37	2903
38	310
40	30
41	50
44	1161
45	1431
47	901
48	2442
49	701
50	120
51	40
53	100
56	581
57	510
58	330
59	140
60	400
61	80
62	120
64	1111
65	60
66	40
68	881
69	2843
70	150
71	1181
72	2552
73	470
74	781
75	100
76	220
77	30
79	4874
80	1221
81	6886
82	460
83	711
84	410
85	290
86	160
87	140
88	290
89	20
91	601
92	50
93	320
94	180
95	60
97	60
99	190
100	100
101	220
103	601
104	100
105	210
107	8087
109	5585
110	240
111	1351
112	130
113	290
115	1281
116	3513
117	520
118	1421
119	90
120	170
121	60
122	50
123	80
125	60
126	90
129	80
139	571
141	360
143	120
147	50
148	90
149	80
151	4574
152	350
153	3513
154	170
155	731
157	60
165	40
167	2202
169	1682
170	90
171	310
186	801
188	1091
189	60
190	470
192	40
193	40
199	20
200	50
201	20
212	50
215	9999
216	1081
217	7036
218	450
219	1441
220	130
221	130
250	5145
252	4894
253	320
254	1992
255	90
256	320
