Mass Spectrum: Benzoic acid, 3-methoxy-, pentadecyl ester
Formula: C23 H38 O3
CAS: 56954-75-7
Molecular weight: 362
Origin: Zaikin V.G., TIPS RAS, Moscow, Russia
m/z	RELATIVE INTENSITY
26	10
27	40
29	100
38	10
39	50
40	10
41	320
42	70
43	400
44	20
50	10
51	10
53	30
54	50
55	440
56	140
57	250
58	10
63	30
64	60
65	30
66	10
67	90
68	80
69	310
70	120
71	90
76	30
77	280
78	40
79	30
81	60
82	70
83	220
84	70
85	40
92	220
93	30
94	30
95	30
96	30
97	140
98	40
104	10
105	40
106	10
107	480
108	110
109	300
110	30
111	50
112	20
120	10
121	50
122	20
123	10
125	10
126	10
133	10
135	2232
136	330
137	40
138	30
139	10
150	10
151	30
152	9999
153	2903
154	370
155	40
165	50
362	1882
363	440
364	60
