Mass Spectrum: 3-Phenyl-p-anisidine
Formula: C13 H13 N O
CAS: 56970-26-4
Molecular weight: 199
Origin: NIST Mass Spectrometry Data Center, 1994
m/z	RELATIVE INTENSITY
14	43
15	629
18	76
26	112
27	456
28	1231
29	156
30	89
32	38
38	182
39	728
40	88
41	254
42	111
43	53
50	518
51	1331
52	1006
53	801
54	680
55	146
57	52
58	61
59	72
61	106
62	337
63	920
64	544
65	1364
70	127
71	226
72	205
73	52
74	384
75	525
76	752
77	1899
78	1149
79	140
80	126
81	95
82	64
83	64
84	425
85	187
86	200
87	258
88	184
89	497
90	64
91	534
92	587
93	34
99	658
100	298
101	331
102	862
103	386
104	216
111	43
113	177
114	213
115	1034
116	273
117	126
125	59
126	280
127	1204
128	2241
129	1104
130	338
131	74
137	48
139	1210
140	358
141	172
142	50
143	51
150	46
151	80
152	163
153	242
154	805
155	46
156	6073
157	769
166	1436
167	775
168	557
169	94
170	97
180	64
181	64
183	1741
184	9999
185	1345
186	102
196	80
197	52
199	8996
200	1390
201	98
