Mass Spectrum: 15,19-Dimethylheptatriacontane
Formula: C39 H80
CAS: 56987-91-8
Molecular weight: 548
Origin: J. Klune, Insect Chem. Ecol. Lab., USDA, Beltsville, MD 20705
m/z	RELATIVE INTENSITY
41	1606
42	646
43	5076
44	172
49	34
53	70
54	230
55	2682
56	1881
57	9999
58	398
67	420
68	439
69	2648
70	1729
71	8075
72	368
81	330
82	559
83	2360
84	1073
85	6440
86	454
95	229
96	708
97	2665
98	669
99	2029
100	129
109	125
110	245
111	1360
112	638
113	1402
114	117
123	29
124	169
125	684
126	350
127	977
128	101
138	124
139	273
140	198
141	736
142	66
152	103
153	173
154	157
155	595
156	27
166	56
167	140
168	181
169	463
170	29
181	90
182	145
183	392
184	28
194	27
195	98
196	1123
197	562
198	57
210	172
211	261
222	202
223	278
224	6330
225	2864
226	404
238	539
239	353
252	859
253	451
254	59
266	1174
267	1019
268	196
278	169
279	215
280	2987
281	1773
282	303
294	2453
295	4258
296	897
297	95
308	256
309	267
322	1108
323	1068
324	253
336	261
337	361
338	90
350	2402
351	4423
352	1084
353	155
364	230
365	298
366	57
378	99
379	181
380	102
392	209
393	360
394	125
406	85
407	204
421	138
422	98
434	29
435	146
448	85
449	157
462	27
463	147
476	97
477	221
478	30
490	28
491	187
492	27
505	238
506	69
507	40
518	111
519	519
520	221
532	29
533	726
534	308
535	57
546	85
547	132
548	212
549	30
