Mass Spectrum: 15-Methylheptatriacontane
Formula: C38 H78
CAS: 56987-88-3
Molecular weight: 534
Origin: J. Klune, Insect Chem. Ecol. Lab., USDA, Beltsville, MD 20705
m/z	RELATIVE INTENSITY
41	2318
43	5668
55	3377
56	2245
57	9999
67	1172
69	3556
70	1980
71	8370
81	1086
82	1212
83	3622
84	1728
85	6701
95	709
96	1205
97	3821
98	755
99	2159
109	351
111	2556
112	715
113	1497
125	1477
127	1424
196	2748
197	1199
224	9019
225	3980
238	358
252	1642
253	702
266	1841
267	1828
280	748
294	1305
295	1205
308	2251
309	1073
322	1424
323	1682
336	6516
337	5635
338	1377
350	1437
351	1602
365	338
372	371
392	1212
393	1616
519	1192
520	364
534	344
