Mass Spectrum: Tritriacontane, 15,19-dimethyl-
Formula: C35 H72
CAS: 56987-80-5
Molecular weight: 492
Origin: J. Klune, Insect Chem. Ecol. Lab., USDA, Beltsville, MD 20705
m/z	RELATIVE INTENSITY
41	2292
42	849
43	6674
44	209
45	22
49	50
51	29
53	113
54	249
55	2779
56	1983
57	9999
58	401
65	27
66	30
67	339
68	373
69	2447
70	1504
71	6734
72	324
73	22
77	22
79	59
80	33
81	295
82	465
83	1682
84	770
85	4766
86	309
87	7
88	7
91	27
93	29
94	8
95	198
96	564
97	1827
98	512
99	1802
100	168
105	19
109	90
110	206
111	951
112	470
113	1250
114	116
115	7
119	62
121	7
123	53
124	120
125	501
126	241
127	876
128	78
131	147
133	7
135	6
137	36
138	92
139	253
140	140
141	679
142	73
149	6
150	6
151	15
152	68
153	161
154	116
155	525
156	64
166	43
167	104
168	94
169	407
170	54
180	41
181	76
182	116
183	296
184	41
194	32
195	54
196	553
197	333
198	64
208	14
209	33
210	107
211	195
212	33
219	221
222	232
223	354
224	3058
225	1387
226	201
227	8
228	14
236	15
237	30
238	286
239	209
240	41
251	7
252	77
253	107
254	20
264	85
265	33
266	661
267	502
268	111
278	6
279	7
280	44
281	80
282	10
293	10
294	1384
295	2123
296	446
297	57
308	50
309	84
310	10
320	8
321	7
322	33
323	60
324	9
336	30
337	53
338	8
350	32
351	60
352	9
353	8
364	15
365	46
366	8
378	14
379	41
380	7
392	18
393	48
394	7
406	18
407	53
408	10
409	16
414	23
420	34
421	76
422	46
434	6
435	35
436	6
448	6
449	48
450	7
462	29
463	111
464	38
476	13
477	140
478	55
490	42
491	58
492	151
493	58
495	7
