Mass Spectrum: 11,15-Dimethyltritriacontane
Formula: C35 H72
CAS: 56987-78-1
Molecular weight: 492
Origin: J. Klune, Insect Chem. Ecol. Lab., USDA, Beltsville, MD 20705
m/z	RELATIVE INTENSITY
41	2488
42	602
43	4241
55	1846
56	1146
57	5769
67	289
69	1053
70	793
71	5254
83	1250
84	590
85	4728
96	503
97	2251
98	417
99	2234
111	1065
112	405
113	1863
125	440
127	903
140	608
141	451
155	694
167	341
168	9999
169	3200
182	330
183	341
210	1146
211	978
238	3570
239	6435
240	1163
252	469
280	4155
281	2679
283	359
294	318
322	1632
323	1493
350	4132
351	8298
352	2112
421	683
422	284
449	665
450	243
463	1302
464	399
477	1759
478	700
492	839
493	295
