Mass Spectrum: 11,15-Dimethylhentriacontane
Formula: C33 H68
CAS: 56987-74-7
Molecular weight: 464
Origin: J. Klune, Insect Chem. Ecol. Lab., USDA, Beltsville, MD 20705
m/z	RELATIVE INTENSITY
41	2326
42	915
43	7468
44	219
53	82
54	197
55	2480
56	2104
57	9999
58	519
65	13
66	23
67	224
68	310
69	1719
70	1568
71	8180
72	450
73	10
79	27
80	18
81	170
82	545
83	1454
84	1080
85	6590
86	400
87	11
95	91
96	1357
97	2365
98	799
99	2923
100	202
101	7
109	36
110	266
111	1143
112	929
113	2096
114	167
123	20
124	155
125	615
126	370
127	1193
128	102
137	15
138	106
139	285
140	1062
141	920
142	92
152	67
153	133
154	171
155	620
156	69
166	268
167	616
168	8939
169	3346
170	331
171	22
180	47
181	94
182	515
183	513
184	62
194	27
195	48
196	172
197	287
198	40
208	33
209	48
210	1325
211	1119
212	155
213	12
222	26
223	37
224	700
225	353
226	57
236	12
237	19
238	2812
239	5340
240	966
241	81
250	139
251	231
252	3370
253	1802
254	319
255	23
264	13
265	18
266	265
267	196
268	33
280	102
281	118
282	25
293	12
294	880
295	889
296	179
297	18
308	51
309	86
310	19
322	1768
323	3552
324	862
325	101
336	56
337	103
338	25
350	59
351	113
352	32
364	58
365	100
366	27
378	58
379	117
380	32
392	74
393	166
394	48
395	3
406	40
407	115
408	37
420	45
421	158
422	52
423	7
434	74
435	324
436	106
437	18
448	38
449	467
450	163
451	28
462	17
463	52
464	275
465	94
466	16
