Mass Spectrum: 13-Methylheptatriacontane
Formula: C38 H78
CAS: 56987-87-2
Molecular weight: 534
Origin: J. Klune, Insect Chem. Ecol. Lab., USDA, Beltsville, MD 20705
m/z	RELATIVE INTENSITY
41	2019
42	653
43	5241
44	188
49	134
54	314
55	3304
56	1891
57	9999
58	422
67	790
68	616
69	3341
70	1754
71	7955
72	420
79	224
81	891
82	897
83	3122
84	1487
85	6440
86	575
91	531
93	286
95	876
96	880
97	3183
98	819
99	1951
105	253
107	210
109	646
110	454
111	1910
112	710
113	1336
121	62
123	443
124	355
125	1045
126	506
127	1008
135	125
137	315
138	247
139	441
140	386
141	774
147	129
149	222
151	257
152	208
153	289
154	353
155	597
163	208
165	232
166	64
167	260
168	1121
169	596
177	129
179	130
182	272
183	412
189	73
191	221
193	204
194	233
195	268
196	7769
197	3164
198	402
210	482
211	458
224	469
225	436
238	482
239	462
250	202
251	62
252	1210
253	753
254	218
266	1210
267	1294
268	290
280	243
281	308
289	63
294	403
295	381
308	496
309	396
322	878
323	1106
324	450
336	2033
337	1512
338	544
351	213
364	4326
365	4237
366	1049
367	63
372	443
374	142
378	261
379	236
392	806
393	1183
394	592
406	213
407	228
421	227
434	120
435	236
448	64
449	240
462	58
463	266
476	67
477	266
490	191
491	350
504	204
505	540
506	223
519	714
520	268
532	210
533	342
534	355
