Mass Spectrum: 11,15-Dimethylpentatriacontane
Formula: C37 H76
CAS: 56987-84-9
Molecular weight: 520
Origin: J. Klune, Insect Chem. Ecol. Lab., USDA, Beltsville, MD 20705
m/z	RELATIVE INTENSITY
41	2541
42	1050
43	7178
44	235
45	3
47	19
49	99
50	7
51	36
53	121
54	54
55	3519
56	2468
57	9999
58	241
59	7
61	3
65	20
66	5
67	398
68	433
69	2458
70	1772
71	7229
72	411
73	9
77	15
79	51
80	17
81	288
82	556
83	1915
84	1058
85	5692
86	370
87	8
91	15
93	15
94	7
95	176
96	744
97	2036
98	697
99	1925
100	131
101	3
105	13
108	3
109	70
110	209
111	999
112	576
113	1359
114	107
116	5
119	12
121	3
123	40
124	128
125	519
126	1051
127	1015
128	84
133	3
135	6
137	23
138	94
139	233
140	567
141	606
142	59
147	5
151	12
152	59
153	118
154	151
155	457
156	51
165	6
166	202
167	422
168	5076
169	1725
170	170
171	12
175	6
180	44
181	76
182	333
183	376
184	45
191	3
193	3
194	35
195	47
196	122
197	234
198	34
208	34
209	23
210	765
211	575
212	79
213	4
222	30
223	36
224	85
225	175
226	28
236	24
237	17
238	2087
239	3027
240	527
241	47
250	17
251	19
252	95
253	150
254	29
264	21
265	17
266	107
267	129
268	26
278	18
279	18
280	480
281	268
282	49
283	6
292	9
293	11
294	175
295	190
296	42
306	96
307	129
308	1925
309	1402
310	273
311	31
320	4
321	9
322	179
323	127
324	26
335	3
336	76
337	87
338	23
348	3
349	7
350	526
351	518
352	119
353	9
354	8
364	47
365	81
366	24
378	1039
379	2201
380	597
381	84
382	6
392	48
393	118
394	33
406	45
407	89
408	73
409	18
420	44
421	91
422	31
434	39
435	90
436	36
437	3
438	8
448	44
449	112
450	40
451	7
452	3
462	28
463	81
464	27
476	30
477	105
478	38
479	3
490	53
491	232
492	87
493	18
504	24
505	306
506	122
507	23
518	44
519	45
520	117
521	46
522	6
