Mass Spectrum: Hydrazine, 1,1-dimethyl-
Formula: C2 H8 N2
CAS: 57-14-7
Molecular weight: 60
Origin: Japan AIST/NIMC Database- Spectrum MS-NW-1126
m/z	RELATIVE INTENSITY
12	10
13	80
14	369
15	2669
16	419
17	249
18	3509
19	10
26	40
27	299
28	3009
29	729
30	2989
31	299
32	50
38	50
39	99
40	319
41	419
42	7309
43	2419
44	1259
45	4769
46	119
55	30
56	30
57	559
58	379
59	4679
60	9999
61	279
