Mass Spectrum: Meperidine
Formula: C15 H21 N O2
CAS: 57-42-1
Molecular weight: 247
Origin: NIST Mass Spectrometry Data Center
m/z	RELATIVE INTENSITY
15	50
26	30
27	280
28	140
29	691
30	70
31	20
38	10
39	160
40	30
41	190
42	2863
43	1391
44	1581
45	70
50	80
51	320
52	90
53	320
54	80
55	120
56	310
57	2983
58	310
59	30
60	10
62	30
63	150
64	40
65	260
66	30
67	40
68	70
70	5135
71	9999
72	520
73	20
74	40
75	70
76	130
77	1141
78	300
79	190
81	110
82	180
83	100
84	80
87	210
88	40
89	180
90	50
91	2442
92	210
93	20
94	250
95	50
96	1942
97	170
98	30
99	120
100	20
101	60
102	450
103	3143
104	410
105	190
106	20
107	20
108	10
110	50
111	10
112	20
113	20
114	40
115	1782
116	951
117	540
118	120
119	30
120	150
121	30
122	10
123	10
124	10
126	110
127	390
128	921
129	1021
130	370
131	1712
132	330
133	70
134	70
135	10
136	10
138	20
140	1371
141	200
142	90
143	170
144	530
145	150
146	140
147	40
148	30
149	120
150	10
153	10
154	50
155	240
156	220
157	170
158	651
159	190
160	50
161	30
162	90
163	10
167	10
168	30
169	230
170	190
172	3553
173	821
174	2162
175	340
176	50
177	120
178	20
184	20
185	10
186	10
188	10
190	450
191	60
192	10
200	10
202	200
203	30
204	10
216	10
218	1782
219	330
220	30
232	581
233	90
234	10
246	1982
247	3083
248	510
249	50
