Mass Spectrum: Propylene Glycol
Formula: C3 H8 O2
CAS: 57-55-6
Molecular weight: 76
Origin: NIST Mass Spectrometry Data Center, 1998.
m/z	RELATIVE INTENSITY
14	20
15	150
18	10
19	200
25	10
26	110
27	690
28	90
29	1040
30	100
31	990
32	40
33	110
36	10
37	40
38	60
39	170
40	30
41	200
42	300
43	1810
44	640
45	9999
46	270
47	40
53	20
54	10
55	70
56	10
57	260
58	70
59	40
60	30
61	600
62	10
73	10
75	20
76	40
