Mass Spectrum: Hydrazinecarboxamide
Formula: C H5 N3 O
CAS: 57-56-7
Molecular weight: 75
Origin: Japan AIST/NIMC Database- Spectrum MS-NW- 332
m/z	RELATIVE INTENSITY
15	20
16	249
17	229
18	90
27	60
28	209
29	559
30	369
31	2929
32	9999
33	70
41	30
42	80
43	329
44	2579
45	50
75	209
