Mass Spectrum: Propiolactone
Formula: C3 H4 O2
CAS: 57-57-8
Molecular weight: 72
m/z	RELATIVE INTENSITY
12	100
13	300
14	1021
15	1591
16	40
24	60
25	290
26	1161
27	821
28	3733
29	1411
30	140
31	30
36	20
37	20
40	60
41	260
42	9999
43	3153
44	280
45	100
53	50
55	50
69	30
71	30
73	80
