Mass Spectrum: Probenecid
Formula: C13 H19 N O4 S
CAS: 57-66-9
Molecular weight: 285
Origin: AAFS Toxicology Section MS DB Committee, U. Alberta, Canada
m/z	RELATIVE INTENSITY
30	290
32	390
39	190
40	90
41	790
42	690
43	1090
44	90
45	90
50	190
51	190
55	90
56	190
57	90
58	190
64	90
65	1191
66	90
69	90
70	590
71	90
72	190
75	90
76	390
77	190
93	190
103	90
104	190
105	190
106	90
121	5294
122	390
123	90
140	90
149	390
150	90
169	90
176	90
177	90
185	5194
186	390
187	290
224	1691
225	90
226	90
238	90
256	9999
257	1391
258	590
259	90
267	190
281	90
285	190
286	90
