Mass Spectrum: Progesterone
Formula: C21 H30 O2
CAS: 57-83-0
Molecular weight: 314
Origin: D.HENNEBERG, MAX-PLANCK INSTITUTE, MULHEIM, WEST GERMANY
m/z	RELATIVE INTENSITY
27	770
28	263
29	1003
30	26
31	58
32	5
39	979
41	3143
42	193
43	9999
44	157
45	168
48	13
49	30
50	52
51	224
52	189
53	1333
54	135
55	2381
56	97
57	103
58	63
59	21
63	84
64	35
65	717
66	299
67	2349
68	373
69	676
70	72
71	1165
72	65
75	69
76	56
77	2104
78	519
79	3139
80	513
81	1769
82	213
83	467
84	779
85	905
86	124
87	15
88	12
89	45
90	52
91	3290
92	583
93	2253
94	842
95	2165
96	390
97	425
98	57
99	60
100	53
101	38
102	51
103	355
104	172
105	2099
106	531
107	1885
108	659
109	1450
110	387
111	378
112	48
113	56
114	54
115	420
116	232
117	821
118	253
119	1310
120	713
121	1573
122	1238
123	1425
124	8879
125	1015
126	101
127	119
128	346
129	398
130	192
131	980
132	525
133	2100
134	1006
135	1344
136	603
137	999
138	341
139	97
140	33
141	187
142	151
143	404
144	230
145	808
146	450
147	1861
148	638
149	1036
150	226
151	111
152	33
153	70
154	33
155	215
156	129
157	365
158	146
159	759
160	300
161	574
162	210
163	397
164	105
165	111
166	61
167	38
168	33
169	120
170	94
171	331
172	392
173	969
174	482
175	403
176	234
177	334
178	165
179	54
180	25
181	50
182	31
183	125
184	111
185	380
186	182
187	830
188	254
189	281
190	853
191	1872
192	353
193	136
194	42
195	47
196	24
197	152
198	87
199	224
200	164
201	444
202	240
203	142
204	52
205	40
206	28
208	12
209	46
210	28
211	410
212	125
213	199
214	185
215	272
216	212
217	52
218	54
219	40
221	12
222	16
223	37
224	30
225	198
226	128
227	478
228	385
229	3626
230	789
231	398
232	130
233	19
234	25
235	31
236	34
237	57
238	63
239	177
240	47
241	88
242	38
243	270
244	1305
245	270
246	9
249	23
251	40
252	45
253	289
254	243
255	108
256	191
257	478
258	114
259	42
263	26
264	11
267	69
268	58
269	109
270	137
271	410
272	4304
273	979
274	100
278	17
279	40
281	145
282	29
284	46
285	63
286	124
287	21
288	6
295	23
296	462
297	126
299	653
300	132
301	34
312	23
313	47
314	7017
315	1638
316	224
317	19
