Mass Spectrum: Testosterone propionate
Formula: C22 H32 O3
CAS: 57-85-2
Molecular weight: 344
Origin: RADIAN CORP
m/z	RELATIVE INTENSITY
18	180
27	420
28	690
29	3350
32	110
39	380
41	1510
43	750
44	110
53	640
55	2270
57	9999
58	390
65	450
67	1370
69	390
77	1400
78	290
79	2070
80	280
81	1170
83	280
91	2280
92	400
93	1440
94	570
95	1150
96	270
97	430
103	60
105	1760
106	440
107	1370
108	410
109	1140
110	290
111	300
115	310
117	580
118	120
119	1050
120	380
121	840
122	610
123	1140
124	5390
125	590
128	70
129	310
131	990
132	380
133	1190
134	910
135	500
136	330
137	440
143	260
144	380
145	900
146	1390
147	3660
148	890
149	500
157	200
158	20
159	500
160	90
161	360
162	90
165	20
171	120
172	30
173	100
174	20
185	930
186	260
187	60
199	100
213	540
227	40
228	1030
229	230
230	500
239	20
259	70
268	30
270	130
273	20
288	20
302	380
344	300
