Mass Spectrum: 3-Aminosalicylic acid
Formula: C7 H7 N O3
CAS: 570-23-0
Molecular weight: 153
Origin: NIST Mass Spectrometry Data Center
m/z	RELATIVE INTENSITY
18	150
27	611
29	90
32	60
38	470
39	671
40	210
41	370
42	330
44	410
50	711
51	1031
52	3183
53	1631
54	1121
63	510
67	561
78	601
79	6236
80	1061
90	290
107	1802
108	430
109	410
134	520
135	9999
136	1051
153	4474
154	310
