Mass Spectrum: Estra-1,3,5(10)-triene-3,15,17-triol, (15.alpha.,17.beta.)-
Formula: C18 H24 O3
CAS: 570-30-9
Molecular weight: 288
Origin: H. ALDERCREUTZ, UNIVERSITY OF HELSINKI, HELSINKI, FINLAND
m/z	RELATIVE INTENSITY
57	685
67	168
69	336
71	147
73	426
74	180
75	174
79	228
81	444
82	306
83	7883
84	540
85	5384
87	937
91	174
93	294
95	510
96	216
97	468
98	174
105	312
107	739
108	378
109	384
110	474
111	228
113	186
117	360
118	192
119	282
120	450
121	691
122	276
123	390
124	192
127	204
129	252
131	384
132	408
133	1297
134	432
135	378
137	168
141	228
144	1243
145	2181
146	1868
147	2319
148	498
149	234
157	1664
158	2481
159	2764
160	2896
161	907
162	234
163	150
169	198
170	829
171	691
172	1478
173	1261
174	366
175	648
176	342
179	186
182	210
183	402
184	438
185	2661
186	1538
187	516
188	709
189	246
192	156
195	300
196	288
197	630
198	396
199	570
200	240
201	168
207	456
208	147
209	366
210	390
211	973
212	492
213	805
214	456
215	336
216	168
217	186
218	198
221	240
223	354
224	354
225	288
226	504
227	468
229	174
231	186
232	198
237	618
241	300
242	498
243	192
244	210
251	216
252	679
253	306
255	366
257	204
258	234
260	252
267	162
268	228
269	282
270	1315
271	276
286	624
287	354
288	9999
289	2019
290	300
