Mass Spectrum: Butane, 1-(1-ethoxyethoxy)-
Formula: C8 H18 O2
CAS: 57006-87-8
Molecular weight: 146
Origin: J.Little, Eastman Chem. Comp.,Kingsport
m/z	RELATIVE INTENSITY
15	160
27	1021
28	1331
29	2502
31	360
32	160
39	360
41	1672
43	1171
44	370
45	9999
47	1171
55	270
56	370
57	3203
58	90
61	250
72	140
73	9489
74	390
75	1832
83	30
85	30
89	100
101	1762
102	100
103	120
131	1762
132	120
