Mass Spectrum: Tolclofos-methyl
Formula: C9 H11 Cl2 O3 P S
CAS: 57018-04-9
Molecular weight: 300
Origin: NIST Mass Spectrometry Data Center, 1995
m/z	RELATIVE INTENSITY
12	11
13	10
15	1036
16	12
18	17
26	15
27	86
29	190
30	39
31	175
33	15
34	5
35	17
36	28
37	29
38	43
39	129
40	1
43	1
45	252
47	1280
48	52
49	94
50	260
51	609
52	58
53	84
57	9
58	7
60	21
61	119
62	434
63	1014
64	141
65	83
66	12
69	39
70	7
71	11
72	30
73	108
74	107
75	585
76	105
77	468
78	7
79	1242
80	68
81	27
82	11
83	25
84	62
85	136
86	98
87	120
88	27
89	126
90	14
91	32
92	11
93	1249
94	75
95	54
96	33
97	117
98	16
99	63
100	12
101	12
102	10
103	9
105	20
106	10
107	42
109	586
111	812
112	414
113	274
114	141
115	19
119	12
120	14
121	45
122	16
123	83
124	12
125	2124
126	84
127	115
128	8
129	13
131	7
133	28
134	10
135	16
136	7
137	41
138	12
139	46
140	25
141	106
142	24
143	67
144	84
145	21
146	49
147	80
148	24
149	79
150	35
151	24
152	22
155	59
156	32
157	31
158	13
159	31
161	8
169	9
170	8
171	27
172	18
173	59
174	8
175	307
176	86
177	189
178	54
179	32
180	8
185	13
187	167
188	18
189	70
190	21
191	32
192	13
193	17
194	7
203	62
204	11
205	21
206	7
207	13
215	98
216	13
217	14
218	7
219	80
220	101
221	39
222	56
223	9
224	9
229	6
230	35
233	50
234	17
235	26
236	8
237	48
238	9
239	25
247	4
249	101
250	1167
251	156
252	451
253	58
254	45
255	13
256	14
262	16
265	9999
266	1145
267	3642
268	425
269	234
270	40
271	65
272	15
273	13
283	11
285	22
287	11
300	12
302	8
