Mass Spectrum: Oxiranemethanol, (R)-
Formula: C3 H6 O2
CAS: 57044-25-4
Molecular weight: 74
Origin: Chuck Anderson, Aldrich Chemical Co.
m/z	RELATIVE INTENSITY
13	17
14	279
15	1104
16	65
18	103
19	248
25	97
26	708
27	1918
28	1069
29	3679
30	378
31	4999
32	58
37	21
38	61
39	132
41	127
42	809
43	8379
44	9999
45	889
46	17
55	325
56	218
57	150
59	67
73	97
