Mass Spectrum: 2-Hydroxy-3-pentanone
Formula: C5 H10 O2
CAS: 5704-20-1
Molecular weight: 102
Origin: M. PECHAL, SHOE & LEATHER RES. INST., GOTTWALDOV, CZ
m/z	RELATIVE INTENSITY
15	1310
16	160
17	390
18	1660
19	1360
25	100
26	1040
27	4050
28	2140
29	9800
30	340
31	3010
32	110
38	230
39	820
40	170
41	2140
42	560
43	4800
44	490
45	9999
46	480
47	110
50	180
51	100
52	150
53	240
54	130
55	1820
56	630
57	9370
58	3180
59	3070
60	120
65	120
66	210
67	140
68	150
69	310
71	100
73	180
74	150
84	360
85	90
87	100
102	320
103	180
