Mass Spectrum: Drazoxolon
Formula: C10 H8 Cl N3 O2
CAS: 5707-69-7
Molecular weight: 237
Origin: NIST Mass Spectrometry Data Center, 1998.
m/z	RELATIVE INTENSITY
14	10
15	100
16	10
25	10
26	80
27	170
28	140
29	20
30	150
35	10
36	20
37	180
38	460
39	990
40	290
41	360
42	460
43	30
44	370
45	200
47	40
48	10
49	140
50	470
51	460
52	560
53	150
54	150
55	20
57	10
58	10
60	30
61	210
62	650
63	2150
64	1020
65	490
66	80
67	490
68	30
69	80
70	100
71	10
72	90
73	940
74	290
75	1160
76	260
77	140
78	30
79	10
80	10
81	10
82	10
83	20
84	50
85	130
86	60
87	100
88	160
89	830
90	4350
91	770
92	110
93	10
96	10
97	90
98	550
99	2890
100	310
101	940
102	90
103	20
104	10
105	20
106	10
108	10
109	10
110	20
111	1380
112	150
113	450
114	70
115	70
116	90
117	220
118	30
119	10
122	10
123	90
125	9999
126	1240
127	3570
128	410
129	130
130	20
131	10
132	10
137	10
138	30
139	820
140	70
141	260
142	30
143	30
144	10
145	10
151	40
152	210
153	40
154	70
155	10
156	10
158	10
164	10
165	10
166	70
167	40
168	30
169	10
177	10
178	10
179	20
180	10
181	10
192	30
193	10
194	10
195	10
196	420
197	40
198	130
199	10
219	1780
220	220
221	580
222	70
223	10
237	1880
238	230
239	620
240	70
241	10
