Mass Spectrum: (Z)-4-Decen-1-ol
Formula: C10 H20 O
CAS: 57074-37-0
Molecular weight: 156
Origin: NIST Mass Spectrometry Data Center, 1994
m/z	RELATIVE INTENSITY
15	407
16	7
17	7
18	56
26	281
27	4839
28	961
29	6033
30	246
31	3873
32	73
37	32
38	163
39	4248
40	890
41	9999
42	1771
43	3002
44	1102
45	414
46	16
50	131
51	400
52	275
53	2385
54	4203
55	6343
56	1449
57	2412
58	203
62	24
63	80
65	608
66	716
67	6918
68	6141
69	2170
70	748
71	750
72	95
73	31
75	14
77	442
79	1761
80	445
81	5661
82	2884
83	831
84	272
85	112
86	38
91	109
92	13
93	153
94	13
95	1900
96	1242
97	255
98	33
99	66
100	17
107	19
109	646
110	752
111	81
112	57
113	27
123	48
128	24
138	331
139	39
156	20
