Mass Spectrum: Androst-1-ene-3,17-dione, (5.alpha.)-
Formula: C19 H26 O2
CAS: 571-40-4
Molecular weight: 286
Origin: Drug Lab
m/z	RELATIVE INTENSITY
38	10
39	1111
40	280
41	3143
42	340
43	611
44	50
45	10
50	50
51	410
52	350
53	2052
54	540
55	3403
56	230
57	170
58	40
59	20
60	10
62	10
63	140
64	90
65	1371
66	460
67	3503
68	671
69	1992
70	110
71	110
72	40
73	40
74	20
75	20
76	40
77	3593
78	821
79	5395
80	2092
81	2352
82	470
83	230
84	60
85	70
86	50
87	90
89	80
90	40
91	4574
92	811
93	3073
94	1041
95	1641
96	270
97	991
98	130
99	30
100	20
101	60
102	60
103	430
104	260
105	2372
106	711
107	2682
108	1812
109	4154
110	1491
111	581
112	40
113	10
114	10
115	691
116	260
117	981
118	370
119	1331
120	711
121	2883
122	9999
123	2432
124	340
125	50
126	10
127	120
128	410
129	490
130	220
131	1031
132	430
133	1151
134	1351
135	971
136	631
137	230
138	50
139	20
141	210
142	150
143	380
144	320
145	981
146	510
147	1772
148	641
149	771
150	390
151	390
152	210
153	70
154	30
155	110
156	90
157	320
158	250
159	741
160	450
161	440
162	190
163	200
164	190
165	210
166	30
167	20
168	20
169	110
170	60
171	180
172	140
173	460
174	440
175	200
176	110
177	180
178	50
179	10
181	20
182	20
183	150
184	110
185	210
186	120
187	360
188	250
189	180
190	70
191	20
192	10
193	10
195	30
196	10
197	100
198	60
199	120
200	150
201	260
202	1521
203	330
204	30
207	50
208	10
209	20
210	10
211	100
212	50
213	60
214	50
215	230
216	450
217	90
218	10
224	10
225	50
226	30
227	160
228	40
229	240
230	90
231	50
232	10
235	10
239	20
240	20
242	100
243	120
244	3453
245	641
246	60
250	10
253	90
254	10
257	60
258	140
259	20
268	60
269	20
271	140
272	30
281	10
285	10
286	1501
287	320
288	40
