Mass Spectrum: Androstan-17-one, 3-hydroxy-, (3.beta.,5.beta.)-
Formula: C19 H30 O2
CAS: 571-31-3
Molecular weight: 290
Origin: LAC, NIDDK, NIH, Bethesda, MD 20892
m/z	RELATIVE INTENSITY
41	4064
42	823
43	2217
44	797
45	202
51	162
53	1699
55	5320
57	3398
58	198
65	836
67	4468
68	911
69	1119
70	408
71	228
77	1851
78	254
79	4102
80	405
81	2904
82	574
83	623
84	134
85	123
91	3469
92	788
93	3667
94	1515
95	1952
96	482
97	1596
98	171
101	56
103	251
104	196
105	2306
106	1385
107	4043
108	5160
109	1912
110	644
111	564
115	388
116	123
117	578
118	347
119	1526
120	1109
121	1699
122	1176
123	891
124	2082
125	426
128	150
129	295
130	146
131	852
132	322
133	1362
134	1136
135	996
136	931
137	416
138	167
143	256
144	268
145	1178
146	723
147	1992
148	1235
149	1425
150	789
151	689
152	204
157	256
158	215
159	822
160	733
161	1115
162	514
163	429
164	827
165	541
166	268
167	140
171	213
172	233
173	694
174	545
175	649
176	1098
177	457
178	328
179	139
185	181
186	140
187	553
188	317
189	485
190	1258
191	414
192	116
197	154
199	372
200	172
201	1254
202	433
203	253
204	193
205	143
213	955
214	289
215	1425
216	1408
217	556
218	354
219	434
220	260
228	316
229	573
230	326
231	1313
232	280
233	814
234	486
239	1016
240	199
243	174
244	652
245	142
246	2297
247	527
248	151
254	238
255	55
257	3516
258	651
272	3777
273	768
274	54
275	1210
276	230
290	9999
291	2074
292	261
