Mass Spectrum: Benzene, 1,1'-(3,3-dimethylbutylidene)bis-
Formula: C18 H22
CAS: 57123-34-9
Molecular weight: 238
Origin: D.HENNEBERG, MAX-PLANCK INSTITUTE, MULHEIM, WEST GERMANY
m/z	RELATIVE INTENSITY
25	4
26	14
27	83
28	38
29	322
30	6
33	2
34	4
36	2
38	7
39	149
40	12
41	385
42	15
43	400
46	40
50	328
51	126
52	33
53	30
55	692
56	36
57	477
58	20
59	1
61	2
62	13
63	60
64	14
65	73
66	3
68	1
69	3
70	21
71	157
72	8
74	142
75	27
76	41
77	222
78	134
79	27
80	5
82	21
83	17
85	3
86	1
87	9
88	11
89	68
90	18
91	240
92	19
93	4
94	3
95	6
96	5
97	4
98	6
99	4
100	3
101	22
102	56
103	245
104	87
105	53
106	2
107	1
110	2
112	2
113	18
114	2
115	117
116	32
117	62
118	24
119	44
120	6
121	3
124	1
126	15
127	32
128	101
129	43
130	15
131	10
132	1
133	6
134	1
135	7
136	19
138	40
139	94
140	16
141	45
142	7
143	14
144	6
145	91
146	16
148	2
149	10
150	18
151	62
152	592
153	89
154	9
155	6
156	3
157	9
158	8
159	10
160	52
161	21
163	80
164	192
165	1277
166	564
167	9999
168	1543
169	107
170	6
173	2
175	3
176	16
177	15
178	70
179	50
180	25
181	48
182	18
183	4
189	6
191	10
192	2
193	2
202	1
207	8
208	5
209	1
221	8
222	1
236	5
237	7
238	439
239	84
