Mass Spectrum: Benzene, 1-chloro-2-isothiocyanato-4-nitro-
Formula: C7 H3 Cl N2 O2 S
CAS: 57135-68-9
Molecular weight: 214
Origin: NIST Mass Spectrometry Data Center, 1994
m/z	RELATIVE INTENSITY
14	33
16	71
18	62
25	45
26	81
28	311
30	2150
32	463
34	34
35	71
36	148
37	785
38	880
39	398
44	527
45	307
46	504
47	182
48	96
49	708
50	1302
51	467
52	135
56	69
57	105
58	295
59	98
60	258
61	1028
62	1161
63	1298
64	642
65	46
66	62
67	96
68	75
69	656
70	699
71	118
72	349
73	1479
74	3152
75	3432
76	568
77	92
79	295
80	52
81	269
82	597
83	415
84	714
85	191
86	393
87	461
88	1200
89	250
90	49
91	108
92	34
93	140
94	235
95	172
96	185
97	640
98	453
99	475
100	574
101	80
103	44
104	27
105	178
106	401
107	508
108	260
109	299
110	293
111	138
112	217
114	48
117	84
118	50
119	54
120	175
121	68
124	2911
125	278
126	1100
127	103
128	58
129	131
130	81
131	99
132	50
133	9801
134	973
135	492
136	82
140	42
141	120
142	77
143	46
149	40
156	2974
157	267
158	1094
159	104
160	45
168	2433
169	277
170	979
171	85
172	52
184	356
185	37
186	124
198	87
214	9999
215	937
216	3506
217	355
218	187
