Mass Spectrum: Mcpb methyl ester
Formula: C12 H15 Cl O3
CAS: 57153-18-1
Molecular weight: 242
Origin: NIST Mass Spectrometry Data Center, 1998.
m/z	RELATIVE INTENSITY
14	10
15	350
26	30
27	240
28	90
29	420
30	30
31	80
33	10
37	20
38	70
39	680
40	120
41	1430
42	590
43	150
44	20
45	160
46	10
47	10
49	20
50	270
51	960
52	260
53	130
54	10
55	130
56	20
57	30
58	10
59	7889
60	250
61	80
62	130
63	490
64	90
65	110
66	20
67	10
68	10
69	1440
70	80
71	80
72	30
73	240
74	160
75	240
76	90
77	2530
78	530
79	220
80	20
81	10
84	30
85	70
86	40
87	90
88	10
89	960
90	230
91	220
97	20
99	300
101	9999
102	580
103	90
104	10
105	130
106	10
107	1910
108	150
109	10
111	40
112	150
113	230
114	70
115	110
116	20
117	30
118	10
119	20
120	10
121	30
123	20
124	60
125	650
126	80
127	240
128	30
129	20
130	10
131	20
132	10
133	60
134	10
139	40
140	50
141	640
142	1440
143	330
144	470
145	60
146	40
147	30
148	30
149	10
152	10
153	30
154	10
155	380
156	50
157	130
158	40
165	20
166	10
167	30
168	40
169	40
170	20
171	10
181	20
182	10
183	30
184	10
185	10
193	110
194	10
195	40
211	670
212	80
213	220
214	30
242	470
243	60
244	150
245	20
