Mass Spectrum: Dichlorprop-methyl
Formula: C10 H10 Cl2 O3
CAS: 57153-17-0
Molecular weight: 248
Origin: NIST Mass Spectrometry Data Center, 1995
m/z	RELATIVE INTENSITY
12	52
15	2113
25	67
26	524
27	1373
28	407
37	196
38	194
39	168
41	208
42	126
43	1015
44	90
45	257
47	83
49	146
50	356
51	124
53	171
55	1797
56	342
57	74
58	74
59	3599
60	203
61	343
62	761
63	1950
64	157
65	105
71	65
72	251
73	1151
74	1010
75	1290
76	105
77	129
83	330
84	235
85	355
86	127
87	1255
88	88
89	239
90	51
91	284
96	110
97	387
98	874
99	559
100	342
101	196
107	228
109	1652
110	333
111	602
112	122
113	59
117	52
118	78
119	85
125	1099
126	738
127	579
128	441
129	107
133	1515
134	144
135	994
136	111
137	177
145	941
146	218
147	519
148	143
149	85
153	268
154	684
155	207
156	227
159	129
161	1400
162	9999
163	1569
164	6498
165	591
166	1145
167	93
189	4557
190	581
191	2874
192	262
193	415
213	276
248	3669
249	435
250	2409
251	286
252	441
