Mass Spectrum: Phenol, 4,4'-(1,3,3-trimethyl-1-propene-1,3-diyl)bis-
Formula: C18 H20 O2
CAS: 57244-54-9
Molecular weight: 268
Origin: P.A. Leclercq, Lab. Instrum. Anal., Eindhoven Univ. Technol., Netherlands
m/z	RELATIVE INTENSITY
14	59
15	189
16	59
17	79
18	119
27	569
28	149
29	269
31	59
39	1439
40	239
41	649
42	79
43	499
44	59
50	169
51	729
52	229
53	429
54	59
55	449
57	79
62	99
63	599
64	269
65	1879
66	389
67	99
68	49
69	59
74	59
75	149
76	269
77	1929
78	619
79	699
80	69
81	99
82	149
84	59
87	59
88	99
89	639
91	4599
92	439
93	319
94	689
95	319
96	69
97	149
99	69
101	419
102	249
103	729
104	229
105	879
107	4379
108	419
109	179
110	189
113	109
115	1939
116	649
117	319
119	5950
120	759
121	2589
122	309
126	159
127	249
128	389
129	229
131	849
132	419
133	1759
134	9999
135	8050
136	799
139	179
141	309
144	509
145	589
146	199
147	1239
148	909
149	119
151	139
152	309
153	139
155	109
157	139
159	3729
160	549
161	1149
162	149
165	489
166	139
168	159
169	119
173	99
174	369
175	159
176	109
177	79
178	149
181	169
182	89
183	239
189	179
190	99
191	109
194	139
195	169
196	159
197	359
198	89
207	129
209	99
211	1519
212	299
213	1159
214	159
223	159
225	2259
226	379
228	159
237	129
238	99
239	149
251	59
253	3139
254	619
255	89
268	3279
269	659
270	89
