Mass Spectrum: 2,3-Dimethylbenzonitrile
Formula: C9 H9 N
CAS: 5724-56-1
Molecular weight: 131
Origin: M. NELSON, RES. DEP., IMPERIAL TOBACCO LTD., BRISTOL
m/z	RELATIVE INTENSITY
28	980
32	320
37	200
38	320
39	1120
40	170
41	200
49	130
50	670
51	1180
52	510
53	250
61	210
62	340
63	830
64	480
66	130
73	140
74	270
75	450
76	520
77	1400
78	580
79	160
87	160
88	230
89	1010
90	280
91	350
99	130
100	130
101	280
102	530
103	1460
104	810
105	180
114	140
115	140
116	9999
117	1030
128	280
129	280
130	2320
131	6720
132	800
