Mass Spectrum: 2-Chloro-6-methylbenzylamine
Formula: C8 H10 Cl N
CAS: 57264-46-7
Molecular weight: 155
Origin: NIST Mass Spectrometry Data Center, 1994
m/z	RELATIVE INTENSITY
14	61
15	220
16	91
17	234
18	91
26	120
27	468
28	4253
29	673
30	6624
32	22
35	56
36	78
37	265
38	587
39	1854
40	204
41	344
42	207
43	17
44	30
45	54
46	113
47	136
49	167
50	941
51	1580
52	430
53	259
54	129
56	27
58	54
59	633
60	478
61	299
62	778
63	1761
64	468
65	1368
66	184
67	57
72	52
73	395
74	234
75	654
76	412
77	2322
78	505
79	73
80	91
84	65
85	160
86	234
87	221
88	52
89	1402
90	484
91	3959
92	535
93	1198
94	107
97	72
98	50
99	303
100	70
101	283
102	661
103	3981
104	585
105	66
111	54
112	196
113	208
114	113
115	83
116	192
117	421
118	398
119	197
120	1289
121	138
125	241
126	144
127	421
128	80
129	113
138	9999
139	1437
140	3730
141	460
142	160
152	106
154	844
155	896
156	386
157	288
158	28
