Mass Spectrum: 2-Heptenal, (Z)-
Formula: C7 H12 O
CAS: 57266-86-1
Molecular weight: 112
Origin: MASS SPECTRA OF ORGANIC COMPOUNDS, V. 6, B. H. KENNETT ET AL, DIV. OF FOOD RESEARCH, CSIRO, AUSTRALIA
m/z	RELATIVE INTENSITY
26	700
27	6700
29	3900
30	100
31	200
37	100
38	500
39	5200
40	1100
41	9999
42	2500
43	4100
45	100
50	400
51	600
52	300
53	1200
54	500
55	6000
56	4500
57	5300
58	300
60	100
63	100
65	200
67	500
68	2600
69	2700
70	3400
71	700
77	200
79	500
81	500
82	100
83	5500
84	1200
94	500
97	600
112	700
