Mass Spectrum: 2-Tetracosanol, acetate
Formula: C26 H52 O2
CAS: 57289-49-3
Molecular weight: 396
Origin: R RYHAGE MS-LAB KAROLINSKA INSTITUTET STOCKHOLM SWEDEN
m/z	RELATIVE INTENSITY
14	27
15	107
16	12
17	1077
18	464
19	4
26	53
27	227
28	360
29	720
30	100
31	27
32	27
38	27
39	200
40	67
41	208
42	600
43	957
44	1711
45	267
46	27
52	27
53	120
54	453
55	4160
56	216
57	6865
58	1020
59	800
60	187
61	733
62	80
63	27
64	53
65	40
66	133
67	993
68	1027
69	4580
70	2600
71	4280
72	307
73	147
74	80
75	27
76	27
77	40
78	147
79	120
80	120
81	1133
82	2840
83	6640
84	2260
85	3320
86	267
87	5320
88	280
89	67
91	67
92	27
93	80
94	87
95	853
96	2880
97	9999
98	2080
99	1453
100	173
101	133
102	843
103	193
104	53
109	507
110	1520
111	6930
112	1880
113	1133
114	160
115	133
116	107
117	73
118	27
119	40
120	27
121	67
122	120
123	473
124	140
125	4840
126	1493
127	907
128	120
129	160
130	280
131	67
132	27
133	40
134	27
135	60
136	93
137	373
138	1229
139	3400
140	1313
141	720
142	93
143	67
144	27
146	27
147	27
148	27
149	253
150	53
151	147
152	1013
153	2373
154	1120
155	613
156	93
157	53
158	27
159	27
160	27
161	27
163	40
164	27
165	93
166	880
167	2240
168	1016
169	520
170	80
171	53
172	27
173	33
175	27
176	27
177	40
178	27
179	80
180	827
181	1760
182	952
183	413
184	67
185	120
186	27
187	27
189	27
191	27
192	27
193	67
194	767
195	1520
196	813
197	360
198	253
199	427
200	560
201	333
202	731
203	27
204	187
205	27
206	27
207	93
208	709
209	1280
210	760
211	307
212	53
213	40
215	27
219	27
220	27
221	53
222	653
223	1080
224	667
225	253
226	53
227	53
228	40
229	27
231	27
233	27
235	53
236	560
237	907
238	627
239	220
240	53
241	80
242	33
247	27
248	27
249	40
250	480
251	760
252	536
253	200
254	40
255	40
256	40
257	27
263	27
264	393
265	629
266	533
267	293
268	67
269	27
270	27
277	27
278	267
279	493
280	427
281	140
282	40
283	40
284	120
285	227
286	53
291	27
292	280
293	487
294	568
295	173
296	53
297	40
298	27
306	120
307	307
308	1267
309	297
310	67
311	27
320	27
321	107
322	147
323	67
324	40
335	909
336	3000
337	504
352	347
353	307
354	93
358	27
