Mass Spectrum: Isoheptadecanol
Formula: C17 H36 O
CAS: 57289-07-3
Molecular weight: 256
Origin: R RYHAGE MS-LAB KAROLINSKA INSTITUTET STOCKHOLM SWEDEN
m/z	RELATIVE INTENSITY
14	80
15	160
16	330
17	1070
18	240
19	100
26	190
27	1940
29	2850
30	80
31	2260
39	740
40	180
41	1470
42	1440
43	7840
44	350
45	160
51	50
53	350
54	710
55	7840
56	8440
57	9390
58	440
59	110
65	80
66	120
67	1780
68	3450
69	8790
70	3800
71	3330
72	230
73	230
74	160
75	50
77	80
79	150
80	100
81	1220
82	4910
83	9999
84	3560
85	2610
86	180
87	150
93	50
95	710
96	1700
97	7600
98	1980
99	620
100	50
109	280
110	710
111	3520
112	1450
113	420
123	120
124	310
125	1410
126	730
127	160
137	60
138	160
139	560
140	380
141	90
149	210
152	120
153	240
154	410
155	90
166	60
167	250
168	260
169	90
180	150
181	140
182	1080
183	170
194	130
195	350
196	210
209	70
210	1120
211	210
223	200
224	70
238	970
239	190
