Mass Spectrum: 2,3,4-Trimethoxybenzoic acid
Formula: C10 H12 O5
CAS: 573-11-5
Molecular weight: 212
Origin: Japan AIST/NIMC Database- Spectrum MS-NW-6770
m/z	RELATIVE INTENSITY
13	20
14	119
15	1829
16	20
17	20
18	70
25	30
26	169
27	589
28	319
29	609
30	80
31	229
32	20
33	50
36	40
37	489
38	1529
39	2789
40	169
41	319
42	109
43	359
44	70
45	529
46	20
47	30
48	30
49	369
50	1299
51	1579
52	439
53	2119
54	229
55	969
56	80
57	60
59	349
60	50
61	349
62	509
63	659
64	299
65	1319
66	1259
67	609
68	309
69	509
70	40
71	609
72	30
73	60
74	229
75	269
76	359
77	1329
78	799
79	879
80	299
81	969
82	269
83	639
84	50
85	80
86	20
87	10
89	30
90	139
91	229
92	459
93	879
94	969
95	1839
96	299
97	129
98	339
99	99
100	10
101	40
102	10
103	40
104	139
105	249
106	579
107	769
108	539
109	2159
110	409
111	639
112	60
113	70
114	10
115	10
116	10
117	10
118	60
119	339
120	529
121	579
122	409
123	999
124	409
125	259
126	299
127	30
128	10
130	30
131	189
132	139
133	259
134	559
135	649
136	439
137	7139
138	749
139	3409
140	329
141	669
142	60
143	10
145	20
146	30
147	139
148	299
149	359
150	129
151	889
152	959
153	269
154	609
155	60
156	20
157	20
158	40
159	30
160	20
161	139
162	229
163	359
164	349
165	1309
166	379
167	2779
168	339
169	1909
170	189
171	30
173	10
174	10
175	70
176	30
177	99
178	30
179	3919
180	439
181	419
182	179
183	1149
184	139
185	20
187	10
190	10
193	459
194	119
195	1039
196	139
197	2679
198	299
199	50
210	10
211	40
212	9999
213	1099
214	189
215	20
