Mass Spectrum: Naphthalene, 1,2-dimethyl-
Formula: C12 H12
CAS: 573-98-8
Molecular weight: 156
Origin: Japan AIST/NIMC Database- Spectrum MS-NW-1992
m/z	RELATIVE INTENSITY
15	60
26	20
27	119
28	10
29	10
37	10
38	30
39	199
40	10
41	20
42	10
43	239
50	129
51	319
52	50
53	40
55	10
57	159
58	99
61	30
62	99
63	349
64	229
65	90
69	60
70	299
71	50
74	109
75	139
76	399
77	449
78	249
79	10
85	10
86	40
87	60
88	30
89	119
90	10
91	60
98	30
99	20
100	10
101	40
102	90
103	30
110	10
111	10
113	50
114	30
115	1139
116	139
117	10
125	10
126	99
127	349
128	609
129	309
130	30
137	10
138	20
139	339
140	99
141	7329
142	1099
143	80
150	50
151	149
152	499
153	599
154	299
155	1539
156	9999
157	1279
158	80
