Mass Spectrum: 1,4-Butanediol, cyclic sulphate
Formula: C4 H8 O4 S
CAS: 5732-44-5
Molecular weight: 152
Origin: E.Lloyd ET AL.Aust.J.Chem., 30,569(1977)
m/z	RELATIVE INTENSITY
14	210
15	871
26	2602
27	6156
28	2532
29	5885
30	1682
31	1171
37	190
38	571
39	4724
40	1932
41	8618
42	9999
43	1541
44	220
48	1031
50	70
51	80
53	190
54	5075
55	591
57	170
59	500
64	631
65	500
71	2983
72	50
80	500
81	350
123	2022
144	30
151	10
152	10
153	100
154	10
