Mass Spectrum: Benzene, 2-(1,3-butadienyl)-1,3,5-trimethyl-
Formula: C13 H16
CAS: 5732-00-3
Molecular weight: 172
m/z	RELATIVE INTENSITY
77	1400
91	1100
115	2200
128	2200
129	1600
141	2700
142	5499
143	1400
157	9999
172	3600
