Mass Spectrum: 4-Octyn-2-ol
Formula: C8 H14 O
CAS: 57355-72-3
Molecular weight: 126
Origin: NIST Mass Spectrometry Data Center, 1990.
m/z	RELATIVE INTENSITY
14	106
15	114
19	136
26	179
27	1129
28	156
29	732
32	23
38	178
39	1494
40	341
41	1539
42	439
43	1778
44	23
45	4045
46	101
50	485
51	1004
52	830
53	1826
54	2523
55	1279
56	182
57	82
62	139
63	226
65	714
67	9999
68	615
69	252
71	147
77	601
78	138
79	722
80	161
81	1119
82	2239
83	516
84	350
91	189
93	152
95	148
97	257
98	236
111	449
126	147
