Mass Spectrum: Benzaldehyde, 4-butoxy-
Formula: C11 H14 O2
CAS: 5736-88-9
Molecular weight: 178
Origin: Japan AIST/NIMC Database- Spectrum MS-NW-9564
m/z	RELATIVE INTENSITY
15	10
18	20
26	20
27	249
28	80
29	1109
30	20
31	10
37	10
38	60
39	559
40	50
41	1289
42	50
43	20
50	129
51	369
52	30
53	70
54	10
55	189
56	399
57	979
58	40
62	40
63	139
64	90
65	679
66	99
67	50
74	40
75	50
76	99
77	509
78	40
79	90
91	40
92	70
93	539
94	199
95	209
96	10
103	10
104	30
105	259
106	20
107	60
110	70
119	10
120	30
121	9999
122	6279
123	1609
124	129
125	10
135	149
136	10
138	20
147	30
149	10
150	10
177	20
178	3149
179	469
180	40
