Mass Spectrum: Benzaldehyde, 4-(pentyloxy)-
Formula: C12 H16 O2
CAS: 5736-91-4
Molecular weight: 192
Origin: RADIAN CORP
m/z	RELATIVE INTENSITY
15	50
26	130
27	1630
29	2290
30	20
31	20
37	70
38	280
39	2090
40	240
41	2470
42	820
43	4860
44	130
49	20
50	390
51	880
52	90
53	240
54	60
55	1400
56	80
61	20
62	150
63	500
64	290
65	1480
66	280
67	110
68	30
69	120
70	640
71	400
72	30
74	130
75	130
76	310
77	1200
78	140
79	210
80	20
89	10
91	110
92	250
93	720
94	320
95	470
96	30
103	40
104	120
105	500
106	60
107	90
119	10
121	9999
122	6190
123	2890
124	250
125	20
135	220
136	30
147	80
148	10
192	1980
193	320
194	30
