Mass Spectrum: Cyclopenta(def)phenanthrenone
Formula: C15 H8 O
CAS: 5737-13-3
Molecular weight: 204
Origin: M. OEHME, NORW. INST. AIR RES., LILLESTROM, NORWAY
m/z	RELATIVE INTENSITY
61	60
62	110
63	80
74	280
75	710
76	90
86	130
87	750
88	1700
98	250
99	140
100	70
102	370
110	70
111	80
122	110
123	70
124	80
126	70
149	330
150	760
151	70
173	90
174	950
175	1000
176	3110
177	460
203	60
204	9999
205	1810
206	150
