Mass Spectrum: 2,4,6-Octatriene, 3,4-dimethyl-
Formula: C10 H16
CAS: 57396-75-5
Molecular weight: 136
Origin: G.BRAMMER,UNIVERSITY OF TEXAS
m/z	RELATIVE INTENSITY
25	1
26	56
27	681
29	639
30	16
31	3
33	2
34	4
35	2
36	2
37	22
38	107
39	1207
41	1418
42	118
43	644
45	12
46	4
47	3
48	1
49	13
50	144
51	528
52	239
53	823
54	128
55	650
56	43
57	76
58	42
59	13
60	5
61	23
62	86
63	265
64	71
65	613
66	176
67	555
68	202
69	97
70	12
71	4
72	4
73	6
74	37
75	57
76	33
77	1881
78	418
79	2763
80	392
81	286
82	38
83	8
84	3
85	2
86	7
87	19
88	12
89	15
90	23
91	2492
92	397
93	2081
94	497
95	113
96	9
97	3
98	8
99	3
100	2
101	13
102	38
103	328
104	107
105	3631
106	918
107	697
108	102
109	35
110	6
111	5
112	6
113	7
114	5
115	92
116	22
117	86
118	27
119	660
120	228
121	9999
122	1086
123	48
124	5
125	5
126	5
127	4
128	6
129	7
130	6
131	12
132	5
133	19
134	20
135	155
136	5894
137	755
