Mass Spectrum: Glycine, N-(3-pyridinylcarbonyl)-, methyl ester
Formula: C9 H10 N2 O3
CAS: 57397-47-4
Molecular weight: 194
Origin: ACIR AROM METH SE30 05 1687 E M.HORN
m/z	RELATIVE INTENSITY
41	118
42	125
43	156
44	156
45	325
47	187
49	100
50	825
51	3000
52	625
53	250
55	50
56	225
58	56
59	256
61	56
65	50
68	87
73	506
74	68
75	1200
76	237
77	350
78	5250
79	718
80	75
88	100
93	168
95	68
104	50
105	125
106	9999
107	1150
108	87
118	56
134	100
135	2800
136	287
138	68
147	100
151	100
162	1500
163	337
164	268
165	75
176	50
194	1000
195	150
