Mass Spectrum: Ethanone, 1-(2-hydroxy-1-naphthalenyl)-
Formula: C12 H10 O2
CAS: 574-19-6
Molecular weight: 186
Origin: R.G. Weiss, Chem. Dept., Georgetown Univ., DC 20057
m/z	RELATIVE INTENSITY
42	146
43	1205
44	50
45	23
49	30
50	286
51	490
52	81
53	96
54	7
55	67
56	7
57	478
60	10
61	99
62	432
63	983
64	269
65	406
66	49
67	14
69	166
70	130
71	373
73	33
74	298
75	336
76	149
77	280
78	71
79	66
81	4
82	10
83	25
84	78
86	517
87	325
88	387
89	819
90	74
91	20
92	42
93	271
97	24
98	86
99	72
100	33
101	78
102	108
103	46
105	7
109	16
110	41
111	40
113	519
114	893
115	4223
116	428
117	24
119	9
122	13
123	4
125	24
126	138
127	275
128	393
129	163
131	60
137	23
138	34
139	455
140	241
141	15
142	194
143	1518
144	413
145	35
149	9
150	5
151	5
152	9
155	28
157	123
158	24
167	48
168	455
169	143
171	9999
172	1361
173	116
181	9
185	914
186	6455
187	767
188	73
