Mass Spectrum: Phthalocyanine
Formula: C32 H18 N8
CAS: 574-93-6
Molecular weight: 514
Origin: Japan AIST/NIMC Database- Spectrum MS-NW-7762
m/z	RELATIVE INTENSITY
15	10
16	10
26	20
27	60
28	70
29	40
37	20
38	20
39	70
41	10
42	10
43	40
44	70
45	99
49	10
50	149
51	229
52	70
53	20
55	10
56	10
59	10
61	10
62	50
63	60
64	50
65	20
73	10
74	50
75	289
76	419
77	119
78	20
81	10
82	10
86	10
87	30
88	80
89	50
90	20
91	10
99	20
100	40
101	249
102	1819
103	3269
104	349
105	40
108	10
113	20
114	99
115	50
116	20
117	30
118	10
126	10
127	50
128	969
129	3559
130	3199
131	319
132	40
133	30
139	10
140	40
141	20
142	30
143	10
144	10
145	30
146	30
147	40
151	10
152	10
153	20
154	109
155	80
156	90
157	20
158	20
159	10
160	20
161	10
163	10
164	10
166	10
167	10
168	10
169	10
170	10
171	10
172	10
173	10
174	10
175	10
176	20
177	10
178	10
179	10
180	20
181	10
182	10
183	10
184	20
185	20
186	10
188	10
189	20
190	20
191	40
192	40
193	40
201	10
202	20
203	10
204	20
205	20
206	10
214	10
215	40
216	20
217	10
218	10
227	10
228	10
229	30
230	80
231	30
232	30
233	20
234	10
240	10
241	20
242	20
243	20
244	20
245	20
246	20
254	10
255	40
256	80
257	1109
258	179
259	40
260	70
261	60
262	30
264	10
268	20
269	20
270	20
271	20
272	10
281	20
282	30
283	30
284	60
285	30
286	20
287	60
288	30
289	20
294	10
295	10
296	10
297	20
298	10
299	10
300	10
301	10
309	10
310	10
311	20
312	30
313	20
314	10
357	10
358	20
359	10
360	10
371	10
372	30
373	10
383	20
384	30
385	20
386	20
387	10
388	20
389	30
390	20
396	10
397	10
398	10
400	10
409	10
410	20
411	20
412	10
413	20
414	20
415	10
425	10
437	10
440	10
441	10
512	30
513	289
514	9999
515	3759
516	729
517	90
518	10
