Mass Spectrum: 2H-1-Benzopyran-2-one, 7,8-dihydroxy-6-methoxy-
Formula: C10 H8 O5
CAS: 574-84-5
Molecular weight: 208
Origin: Japan AIST/NIMC Database- Spectrum MS-NW-7629
m/z	RELATIVE INTENSITY
12	10
13	10
14	40
15	529
16	10
25	40
26	159
27	579
28	99
29	809
30	50
31	129
32	10
36	30
37	319
38	409
39	829
40	99
41	129
42	99
43	90
44	20
45	90
46	70
47	40
48	20
49	229
50	959
51	1939
52	1269
53	1439
54	309
55	339
56	20
57	10
58	139
59	149
60	50
61	319
62	589
63	1079
64	349
65	479
66	449
67	209
68	50
69	389
70	20
71	40
72	10
73	70
74	209
75	259
76	169
77	319
78	259
79	979
80	599
81	3459
82	239
83	60
84	10
85	109
86	20
87	10
88	10
89	20
90	129
91	389
92	319
93	149
94	99
95	629
96	489
97	40
101	20
102	10
103	80
104	199
105	129
106	199
107	70
108	329
109	3129
110	259
111	30
116	10
117	10
118	10
119	319
120	109
121	109
122	50
123	569
124	309
125	30
131	20
132	60
133	189
134	469
135	70
136	139
137	2959
138	259
139	40
147	169
148	60
149	80
150	179
151	279
152	749
153	70
154	10
155	10
157	10
159	20
160	129
161	179
162	149
163	30
164	20
165	2259
166	239
167	30
173	10
177	20
178	229
179	109
180	2349
181	249
182	40
189	40
190	139
191	20
192	10
193	3599
194	409
195	60
196	10
205	10
206	10
207	229
208	9999
209	1189
210	179
211	10
