Mass Spectrum: 1H-Isoindole-1,3(2H)-dione, 2-(2-bromoethyl)-
Formula: C10 H8 Br N O2
CAS: 574-98-1
Molecular weight: 253
Origin: NIST Mass Spectrometry Data Center, 1994
m/z	RELATIVE INTENSITY
13	8
14	90
15	340
16	10
18	26
25	23
26	182
27	570
28	387
37	161
38	326
39	243
40	198
41	124
42	162
44	10
50	2218
51	614
52	324
53	90
54	11
56	80
58	26
59	8
61	50
62	109
63	201
64	127
65	84
66	296
69	11
70	82
72	46
73	140
74	820
75	892
76	2638
77	1311
78	121
79	68
80	28
81	63
82	22
87	27
88	31
89	124
90	225
91	76
92	54
93	235
94	27
95	223
99	15
102	358
103	227
104	1252
105	1059
106	114
107	40
108	33
109	22
116	33
117	56
118	36
120	9
130	922
131	96
132	128
133	1000
134	87
145	37
146	35
147	233
148	54
155	10
157	12
160	9999
161	994
162	97
172	16
173	52
174	209
175	27
253	832
254	95
255	821
256	93
257	4
