Mass Spectrum: Acridophosphine, 10-methyl-
Formula: C14 H11 P
CAS: 57422-79-4
Molecular weight: 210
Origin: ORMSBG,10(7)515(1975); C. JONGSMA
m/z	RELATIVE INTENSITY
151	200
152	1400
157	200
159	300
163	200
164	100
165	1600
166	200
176	700
177	600
178	9999
179	1800
181	200
183	2000
184	100
194	200
205	200
206	200
207	2800
208	800
209	1400
210	9999
211	1600
