Mass Spectrum: 2,5-Dibromobiphenyl
Formula: C12 H8 Br2
CAS: 57422-77-2
Molecular weight: 310
Origin: J.E. WILKINSON S-CUBED, SAN DIEGO, CA.
m/z	RELATIVE INTENSITY
47	2
49	103
50	1352
51	1288
52	170
53	9
55	23
56	1
57	3
61	190
62	723
63	1265
64	31
65	2
67	8
68	8
69	133
73	89
74	1527
75	1870
76	2815
77	402
78	37
79	23
80	3
81	80
82	3
84	17
85	79
86	421
87	459
88	55
89	16
93	7
95	10
97	22
98	525
99	373
100	148
101	93
102	447
103	21
104	4
105	2
106	3
107	1
109	20
110	67
111	104
112	11
113	99
114	16
115	143
116	239
117	3
119	11
121	10
122	65
123	41
124	36
125	204
126	902
127	40
128	4
130	2
131	1
135	3
137	3
149	94
150	1717
151	2680
152	9999
153	1174
154	29
155	17
156	49
157	16
204	1
230	50
231	3
232	55
233	2
310	3587
311	377
312	7056
313	831
314	3528
315	322
