Mass Spectrum: 4-Nitrobenzoic acid, 2-phenylethyl ester
Formula: C15 H13 N O4
CAS: 57455-00-2
Molecular weight: 271
Origin: V.Zaikin,Topchiev Inst.Petrochem.Synth.,Moscow
m/z	RELATIVE INTENSITY
26	20
27	30
29	10
30	40
36	30
38	20
39	60
40	10
41	20
44	80
50	160
51	110
52	30
53	20
62	20
63	70
64	60
65	230
66	20
73	10
74	70
75	170
76	460
77	270
78	190
79	120
81	10
89	40
90	30
91	691
92	290
93	40
96	10
102	40
103	310
104	9999
105	941
106	60
109	20
119	10
120	240
121	100
122	30
134	80
135	10
137	110
138	10
150	1682
151	180
152	30
165	30
166	10
167	110
168	10
191	10
