Mass Spectrum: Benzenemethanol, 3-iodo-
Formula: C7 H7 I O
CAS: 57455-06-8
Molecular weight: 234
Origin: Japan AIST/NIMC Database- Spectrum MS-NW-6424
m/z	RELATIVE INTENSITY
14	20
15	20
16	10
18	20
25	10
26	70
27	399
28	329
29	469
30	30
31	409
32	80
36	20
37	159
38	249
39	709
40	80
41	30
42	20
43	50
44	30
45	10
48	10
49	129
50	1369
51	1729
52	549
53	429
54	20
55	99
57	20
58	10
60	20
61	109
62	279
63	669
64	149
65	50
66	20
67	10
68	10
71	10
72	10
73	99
74	459
75	359
76	1049
77	4309
78	4269
79	6819
80	449
81	30
84	10
85	30
86	50
87	50
88	40
89	1639
90	739
91	90
92	10
103	10
104	30
105	829
106	189
107	3169
108	279
109	10
113	10
115	10
116	70
127	389
128	119
142	10
152	10
165	20
176	10
203	319
204	50
205	289
206	20
215	10
216	20
217	269
218	50
231	279
232	319
233	409
234	9999
235	809
236	50
