Mass Spectrum: 4-Chloro-ortho-anisic acid
Formula: C8 H7 Cl O3
CAS: 57479-70-6
Molecular weight: 186
Origin: NIST Mass Spectrometry Data Center, 1992
m/z	RELATIVE INTENSITY
13	37
14	110
15	993
16	6
17	52
18	119
25	43
26	73
28	772
29	373
30	76
31	358
32	205
35	60
36	92
37	602
38	789
39	607
40	65
41	83
42	37
43	60
44	95
45	623
46	31
47	111
48	82
49	316
50	1193
51	1318
52	301
53	946
54	79
55	140
56	34
59	69
60	233
61	870
62	1783
63	4110
64	550
65	344
66	181
67	63
68	33
69	134
71	45
72	250
73	1389
74	1435
75	2665
76	486
77	3140
78	325
79	623
80	161
83	56
84	220
85	180
86	144
87	334
88	45
89	303
90	174
91	274
92	105
93	89
94	29
95	103
96	73
97	282
98	1073
99	1159
100	466
101	363
102	59
103	33
104	53
105	328
106	48
107	170
108	199
109	29
110	856
111	2615
112	895
113	2577
114	397
115	1294
116	123
117	219
118	70
119	194
120	25
121	78
122	29
123	55
124	111
125	25
126	2848
127	565
128	1092
129	157
130	64
133	625
134	134
135	49
136	275
139	9999
140	1995
141	3901
142	601
143	564
144	76
145	140
149	103
150	42
151	206
153	115
154	651
155	575
156	953
157	5259
158	690
159	1818
160	133
167	857
168	948
169	3525
170	640
171	1144
172	204
173	56
174	30
182	26
183	39
186	5617
187	607
188	1901
189	146
