Mass Spectrum: Benzalphthalide
Formula: C15 H10 O2
CAS: 575-61-1
Molecular weight: 222
Origin: NIST Mass Spectrometry Data Center, 1992
m/z	RELATIVE INTENSITY
12	7
14	7
17	11
18	82
25	4
26	24
27	123
28	113
29	35
32	1
36	6
37	46
38	186
39	490
40	70
41	10
43	7
45	10
50	935
51	463
52	62
53	40
54	4
55	18
56	10
57	10
61	72
62	331
63	820
64	280
65	64
66	15
68	8
70	189
74	348
75	444
76	1825
77	446
78	33
79	6
82	668
84	60
85	37
86	134
87	175
88	158
89	1318
90	951
91	90
92	17
96	58
97	118
98	99
99	52
100	28
101	47
102	43
104	751
105	335
106	27
109	15
111	415
113	85
114	51
115	248
116	32
117	42
118	112
119	11
121	6
122	20
123	12
124	7
125	19
126	74
127	24
128	12
129	7
133	6
134	6
135	8
137	53
138	71
139	409
140	50
146	5
149	13
150	65
151	55
152	43
153	14
156	4
161	17
163	505
165	6417
166	1366
167	125
168	23
174	14
175	24
176	97
177	188
178	46
179	9
181	28
193	727
194	1497
195	228
196	23
205	27
207	21
208	6
222	9999
223	1624
224	156
225	16
