Mass Spectrum: 1,6-Dihydroxynaphthalene
Formula: C10 H8 O2
CAS: 575-44-0
Molecular weight: 160
Origin: NIST Mass Spectrometry Data Center, 1994
m/z	RELATIVE INTENSITY
14	32
15	25
26	82
27	175
28	35
29	321
37	107
38	289
39	475
40	40
41	22
42	47
43	36
49	83
50	602
51	1358
52	275
53	320
54	47
55	120
56	30
57	57
61	154
62	400
63	671
64	124
65	355
67	67
71	21
73	82
74	451
75	481
76	550
77	2129
78	520
79	150
80	875
85	76
86	166
87	200
88	130
89	115
90	24
91	19
92	36
93	24
97	23
98	84
99	36
101	177
102	849
103	1973
104	885
105	223
106	32
109	24
110	25
113	113
114	199
115	379
116	47
129	59
131	5802
132	3111
133	278
134	31
160	9999
161	1064
162	98
