Mass Spectrum: Butane, 2-cyclopropyl-
Formula: C7 H14
CAS: 5750-02-7
Molecular weight: 98
Origin: NIST Mass Spectrometry Data Center, 1990.
m/z	RELATIVE INTENSITY
26	336
27	2253
28	1057
29	1939
39	3400
41	7896
42	2596
43	440
50	243
51	424
53	1045
55	8360
56	2492
57	1796
67	669
69	4404
70	9999
71	549
83	477
