Mass Spectrum: Imidazoline, 1,3-dinitro-
Formula: C3 H6 N4 O4
CAS: 5754-91-6
Molecular weight: 162
Origin: LAC, NIDDK, NIH, Bethesda, MD 20892
m/z	RELATIVE INTENSITY
42	9999
43	546
44	29
46	831
48	10
49	27
51	11
53	15
54	76
56	130
57	1065
58	324
59	153
60	4
67	21
69	415
70	103
72	4
73	14
85	768
86	37
89	206
99	270
115	1378
116	38
117	21
129	4
145	113
162	27
