Mass Spectrum: Pentane, 1-(1-methylethoxy)-
Formula: C8 H18 O
CAS: 5756-37-6
Molecular weight: 130
Origin: DM6-146-F18
m/z	RELATIVE INTENSITY
15	100
27	700
29	1900
30	100
31	300
39	400
40	100
41	1500
42	100
43	9999
44	400
45	2200
46	100
47	200
48	100
49	400
61	100
69	300
70	700
71	5199
72	200
73	2300
74	100
87	100
97	100
115	1800
116	200
130	600
