Mass Spectrum: Isopulegol acetate
Formula: C12 H20 O2
CAS: 57576-09-7
Molecular weight: 196
Origin: NIST Mass Spectrometry Data Center, 1990.
m/z	RELATIVE INTENSITY
14	24
15	193
27	647
28	156
29	710
31	86
39	1461
40	428
41	2944
42	86
43	9999
44	266
45	129
50	97
51	297
52	222
53	1248
54	324
55	1896
56	397
57	323
61	80
65	554
66	253
67	2220
68	1181
69	1753
70	282
71	609
77	850
78	293
79	2509
80	1365
81	4132
82	603
83	560
84	411
85	323
91	893
92	971
93	4155
94	2250
95	1559
96	353
97	580
98	193
105	307
107	3282
108	1279
109	1060
110	234
111	353
112	169
119	197
121	3560
122	416
123	253
134	115
136	4258
137	520
138	260
139	263
