Mass Spectrum: N-Acetylindole
Formula: C10 H9 N O
CAS: 576-15-8
Molecular weight: 159
Origin: NIST Mass Spectrometry Data Center
m/z	RELATIVE INTENSITY
12	10
13	30
14	100
15	781
18	40
26	50
27	40
37	130
38	280
39	811
40	70
41	90
42	330
43	2963
44	50
49	30
50	390
51	370
52	150
53	20
54	10
58	10
61	170
62	641
63	1481
64	370
65	120
66	30
67	10
73	30
74	80
75	110
76	120
77	100
78	20
85	30
86	100
87	150
88	270
89	2532
90	2732
91	230
98	10
100	10
101	20
102	30
103	30
114	80
117	9999
118	981
119	30
128	10
130	70
144	10
159	2492
160	270
161	10
