Mass Spectrum: Benzene, 2-bromo-1,3,5-trimethyl-
Formula: C9 H11 Br
CAS: 576-83-0
Molecular weight: 198
Origin: NIST Mass Spectrometry Data Center, 1990.
m/z	RELATIVE INTENSITY
15	169
26	112
27	481
38	306
39	1355
40	194
41	707
50	920
51	1851
52	562
53	438
58	848
61	181
62	573
63	1362
64	260
65	1225
66	122
73	86
74	526
75	434
76	367
77	1992
78	1004
79	562
80	76
81	83
85	65
86	150
87	193
88	87
89	560
90	65
91	4328
92	461
93	374
98	266
99	296
100	93
101	82
102	535
103	1721
104	1004
105	112
115	1763
116	434
117	2319
118	82
119	9999
120	1046
183	590
185	556
197	344
198	4916
199	782
200	4943
201	459
