Mass Spectrum: Furalaxyl
Formula: C17 H19 N O4
CAS: 57646-30-7
Molecular weight: 301
Origin: NIST Mass Spectrometry Data Center, 1998.
m/z	RELATIVE INTENSITY
15	90
26	10
27	90
28	40
29	50
30	10
31	10
37	20
38	70
39	670
40	40
41	60
42	30
43	20
44	10
45	20
50	30
51	170
52	60
53	130
54	20
55	160
56	20
57	10
58	10
59	300
60	10
62	10
63	80
64	30
65	200
66	50
67	240
68	30
69	10
70	10
74	10
75	20
76	40
77	800
78	210
79	540
80	50
81	40
82	10
83	10
87	220
88	20
89	80
90	50
91	290
92	50
93	40
94	10
95	9999
96	680
97	80
98	10
101	10
102	70
103	420
104	110
105	780
106	100
107	20
108	20
109	10
110	10
111	10
114	10
115	110
116	70
117	520
118	120
119	50
120	160
121	160
122	30
126	10
127	40
128	120
129	50
130	250
131	330
132	1100
133	120
134	10
135	10
136	10
139	10
140	10
141	40
142	40
143	70
144	110
145	40
146	1480
147	270
148	50
149	10
152	2070
153	210
154	40
155	20
156	40
157	30
158	30
159	10
160	10
162	10
166	10
167	20
168	60
169	20
170	50
171	30
172	30
173	10
174	30
178	10
180	760
181	90
182	30
183	20
184	50
185	20
186	130
187	20
190	10
196	30
197	30
198	120
199	50
200	30
206	330
207	50
208	10
210	20
211	10
212	70
213	50
214	200
215	120
216	20
224	70
225	380
226	100
227	10
240	40
241	90
242	4300
243	750
244	80
245	10
269	540
270	280
271	40
272	40
273	10
283	70
284	20
286	40
287	10
301	1130
302	220
303	30
