Mass Spectrum: Benzo[a]pyrene, 4,5-dihydro-
Formula: C20 H14
CAS: 57652-66-1
Molecular weight: 254
Origin: R.A.HITES, INDIANA UNIV., BLOOMINGTON, IN
m/z	RELATIVE INTENSITY
99	100
100	300
101	200
111	200
112	700
113	1500
114	100
119	500
124	500
125	1000
126	2500
127	100
223	100
224	400
225	300
226	400
239	400
240	100
248	400
249	300
250	2200
251	700
252	7300
253	7600
254	9999
255	1900
256	200
