Mass Spectrum: Isoxazole, 5-methyl-
Formula: C4 H5 N O
CAS: 5765-44-6
Molecular weight: 83
Origin: Japan AIST/NIMC Database- Spectrum MS-NW-6437
m/z	RELATIVE INTENSITY
12	60
13	149
14	249
15	1179
16	20
24	30
25	149
26	679
27	1589
28	669
29	219
30	149
31	40
32	10
36	60
37	249
38	369
39	559
40	2149
41	2149
42	409
43	9999
44	269
45	40
47	10
48	10
49	109
50	379
51	489
52	249
53	259
54	819
55	329
56	119
57	10
67	80
68	3749
69	139
70	20
81	10
82	269
83	7139
84	369
85	30
