Mass Spectrum: 1-Piperidineacetonitrile, .alpha.-phenyl-
Formula: C13 H16 N2
CAS: 5766-79-0
Molecular weight: 200
m/z	RELATIVE INTENSITY
41	1397
42	1536
43	196
50	223
51	447
52	84
53	168
54	419
55	1397
56	503
57	196
76	84
77	503
78	196
79	56
80	28
82	391
83	279
84	9999
85	614
103	196
104	698
105	279
106	56
115	196
116	5865
117	1480
118	503
119	168
121	363
122	223
123	4190
124	307
143	335
144	196
145	28
157	223
158	251
159	279
171	503
172	726
173	782
174	810
175	503
199	4916
200	5474
201	698
