Mass Spectrum: Methyl 2-(aminosulfonyl)benzoate
Formula: C8 H9 N O4 S
CAS: 57683-71-3
Molecular weight: 215
Origin: NIST Mass Spectrometry Data Center
m/z	RELATIVE INTENSITY
12	80
13	100
15	1872
16	360
17	160
18	80
26	110
27	140
28	330
29	1581
30	380
31	871
32	641
33	30
37	370
38	701
39	1471
40	80
41	210
42	90
43	80
44	190
45	250
46	220
47	100
48	420
50	5555
51	1682
52	500
53	400
54	70
58	100
59	290
60	60
61	140
62	330
63	1311
64	2232
65	2652
66	330
67	90
69	420
70	250
72	40
73	350
74	1802
75	1601
76	5645
77	4494
78	410
79	540
80	310
81	120
82	110
83	50
84	120
89	50
90	230
91	761
92	6216
93	741
94	120
95	200
96	270
97	100
98	40
100	70
102	981
103	581
104	1732
105	841
106	140
107	70
108	110
109	70
110	60
111	50
112	60
117	30
119	2222
120	4394
121	1431
122	150
123	50
125	60
132	60
133	40
135	1471
136	160
137	40
138	60
140	190
151	1171
152	310
153	40
166	120
168	60
169	60
183	1862
184	7006
185	671
186	370
196	30
197	100
199	9999
200	961
201	601
202	40
215	711
216	80
217	40
