Mass Spectrum: 4-Chlorobenzenesulfonyl isocyanate
Formula: C7 H4 Cl N O3 S
CAS: 5769-15-3
Molecular weight: 217
Origin: Japan AIST/NIMC Database- Spectrum MS-NW-7624
m/z	RELATIVE INTENSITY
14	20
15	80
16	10
25	20
26	50
27	70
28	239
29	20
30	20
32	20
35	10
36	70
37	209
38	289
39	179
40	10
41	10
42	109
43	449
44	409
45	90
46	60
47	30
48	149
49	139
50	1699
51	689
52	50
53	30
54	20
55	10
56	10
57	30
58	159
59	10
60	40
61	189
62	149
63	319
64	119
65	20
69	109
70	20
71	20
72	50
73	339
74	989
75	3749
76	769
77	80
78	10
79	20
81	40
82	40
83	10
84	129
85	429
86	60
87	159
88	10
89	50
90	189
91	20
92	10
93	10
95	30
96	20
97	10
98	30
99	319
100	30
101	99
105	10
106	40
107	20
108	99
109	60
110	99
111	9999
112	739
113	3209
114	249
115	20
124	20
125	50
126	20
127	219
128	40
129	70
130	10
131	80
133	30
138	20
140	10
142	20
143	30
144	90
145	20
146	40
147	20
148	10
153	20
159	109
160	10
161	30
173	20
175	6469
176	519
177	2369
178	169
179	109
180	10
191	30
193	10
217	1879
218	169
219	699
220	50
221	40
