Mass Spectrum: 2-Acetylbenzoic acid
Formula: C9 H8 O3
CAS: 577-56-0
Molecular weight: 164
Origin: NIST Mass Spectrometry Data Center, 1990.
m/z	RELATIVE INTENSITY
14	63
15	213
18	29
26	54
27	140
29	68
37	130
38	263
39	906
40	48
41	49
42	175
43	1458
44	127
45	159
46	45
49	112
50	1419
51	941
52	198
53	181
59	53
61	65
62	143
63	299
64	208
65	1578
66	169
73	167
74	559
75	462
76	1180
77	1276
78	406
79	51
86	45
87	26
89	140
90	195
91	518
92	26
93	1490
94	92
101	38
102	52
104	705
105	1731
106	145
118	102
119	33
120	174
121	1298
122	131
146	312
147	355
149	9999
150	946
151	114
164	114
