Mass Spectrum: Aphylline
Formula: C15 H24 N2 O
CAS: 577-37-7
Molecular weight: 248
Origin: SAS 0027
m/z	RELATIVE INTENSITY
39	801
40	170
41	2953
42	1381
43	360
44	420
51	100
52	120
53	911
54	1201
55	2332
56	921
57	190
59	120
65	250
66	200
67	981
68	921
69	661
70	420
77	400
78	220
79	601
80	981
81	701
82	1081
83	1661
84	2873
85	200
91	250
92	110
93	430
94	701
95	480
96	3703
97	4704
98	3403
99	350
105	100
106	370
107	220
108	781
109	771
110	2502
111	1001
112	571
120	290
121	210
122	1421
123	2122
124	1862
125	180
132	100
133	100
134	1491
135	901
136	9999
137	4904
138	2752
139	230
147	100
148	370
149	841
150	781
151	440
152	310
153	380
162	300
163	280
164	691
165	390
166	300
167	120
175	100
176	280
177	180
190	100
191	1201
192	1041
193	320
205	751
206	260
207	180
215	150
219	981
220	3303
221	550
233	120
237	100
245	100
246	400
247	4504
248	8007
249	1161
250	100
