Mass Spectrum: 6-Tridecanol
Formula: C13 H28 O
CAS: 5770-03-6
Molecular weight: 200
Origin: NIST Mass Spectrometry Data Center, 1990.
m/z	RELATIVE INTENSITY
15	77
17	81
18	174
27	2114
28	1093
29	3830
30	155
31	437
39	1615
41	6624
42	1469
43	4889
44	1031
45	336
53	626
54	1089
55	9999
56	2641
57	3327
58	531
59	239
65	158
66	154
67	1006
68	154
69	9784
70	2080
71	953
72	207
77	116
79	163
81	438
82	982
83	8269
84	1279
85	374
95	159
96	233
97	1098
98	405
99	239
100	411
101	2578
102	174
111	2300
112	326
125	188
126	104
127	159
128	104
129	1646
130	155
154	85
182	838
183	108
