Mass Spectrum: 1-Phenyl-1-nonyne
Formula: C15 H20
CAS: 57718-18-0
Molecular weight: 200
Origin: NIST Mass Spectrometry Data Center, 1990.
m/z	RELATIVE INTENSITY
15	115
18	75
27	2564
28	510
29	2774
30	77
38	198
39	2042
40	349
41	3417
42	343
43	1987
44	66
50	470
51	1036
52	247
53	314
54	186
55	1011
56	121
57	141
61	70
62	451
63	1587
64	298
65	1226
66	298
67	1100
68	142
69	79
74	320
75	505
76	534
77	1103
78	427
79	578
80	178
81	338
82	94
83	57
85	42
86	170
87	330
88	443
89	1764
90	42
91	3627
92	371
93	141
94	32
95	108
96	188
98	59
99	64
101	235
102	2121
103	531
104	704
105	233
107	36
108	62
109	311
110	51
111	31
112	31
113	406
114	31
115	9999
116	2070
117	7199
118	963
119	79
125	41
126	269
127	1404
128	5089
129	5416
130	2156
131	412
132	101
139	106
141	937
142	1003
143	4604
144	2098
145	231
152	86
153	95
154	75
155	159
156	75
157	1019
158	714
159	116
171	210
172	39
200	1352
201	219
