Mass Spectrum: 2-Propanone, methylhydrazone
Formula: C4 H10 N2
CAS: 5771-02-8
Molecular weight: 86
Origin: ATLAS OF MASS SPECTRA OF ORGANIC COMPOUNDS, V. A. KOPTYUG, ED.
m/z	RELATIVE INTENSITY
26	350
27	1170
28	3690
29	1520
30	9999
31	1130
38	240
39	780
40	570
41	1780
42	5390
43	870
44	780
45	350
54	1080
55	810
56	4560
57	1300
58	300
69	650
71	3390
72	160
85	570
86	8700
87	650
