Mass Spectrum: 5.alpha.-Androstan-3.alpha.-ol-17-one, TBDMS derivative
Formula: C25 H44 O2 Si
CAS: 57711-45-2
Molecular weight: 404
Origin: NIST Mass Spectrometry Data Center
m/z	RELATIVE INTENSITY
26	10
27	60
29	230
30	10
31	10
38	10
39	150
40	40
41	981
42	80
43	310
45	240
46	20
47	300
48	20
49	10
50	10
51	30
52	20
53	290
54	90
55	1331
56	170
57	601
58	120
59	601
60	110
61	250
62	20
63	20
65	150
66	70
67	1221
68	170
69	310
70	30
71	40
73	1722
74	280
75	9999
76	721
77	891
78	110
79	1341
80	200
81	2232
82	190
83	270
84	30
85	110
86	20
87	70
88	10
89	60
91	1491
92	260
93	1651
94	270
95	1101
96	100
97	861
98	70
99	130
100	30
101	230
102	70
103	110
104	90
105	1331
106	370
107	1391
108	330
109	621
110	130
111	100
112	10
113	100
114	30
115	240
116	70
117	380
118	120
119	751
120	190
121	681
122	140
123	240
124	90
125	60
126	10
127	70
128	90
129	200
130	80
131	561
132	120
133	651
134	150
135	550
136	90
137	210
138	480
140	10
141	70
142	40
143	220
144	140
145	901
146	180
147	881
148	150
149	300
150	50
151	170
153	30
154	20
155	60
156	30
157	200
158	70
159	581
160	130
161	1191
162	190
163	190
165	60
166	30
167	40
168	20
169	70
170	20
171	320
172	70
173	320
174	140
175	721
176	110
177	80
178	10
179	10
181	30
182	20
183	70
184	20
185	170
186	40
187	180
188	40
189	400
190	70
191	50
192	10
193	10
195	20
196	10
197	130
198	30
199	190
200	70
201	210
202	40
203	90
204	20
205	100
206	20
207	10
209	10
210	10
211	80
212	30
213	300
214	60
215	270
216	60
217	70
218	30
219	10
221	10
222	10
223	10
224	10
225	50
226	10
227	170
228	80
229	190
230	40
231	40
232	10
233	10
235	10
237	20
238	10
239	80
240	20
241	20
242	10
243	120
244	60
245	10
249	10
251	10
253	1071
254	270
255	400
256	80
257	150
258	30
259	10
269	20
271	9959
272	2052
273	240
274	20
291	10
317	10
329	10
331	20
332	10
345	20
347	6566
348	1822
349	520
350	80
351	10
389	110
390	40
391	10
404	10
