Mass Spectrum: 5.alpha.-Androstan-3.beta.-ol-17-one, TBDMS derivative
Formula: C25 H44 O2 Si
CAS: 57711-44-1
Molecular weight: 404
Origin: D.J.HARVEY UNIV. DEPT. OF PHARMACOLOGY, OXFORD, UK
m/z	RELATIVE INTENSITY
41	237
67	162
68	479
69	97
73	343
75	4458
76	294
77	189
79	114
81	843
83	105
91	220
93	299
95	483
97	211
105	408
107	444
109	224
117	114
119	211
121	242
123	101
131	176
133	237
135	193
145	395
147	466
149	127
159	272
161	615
171	136
173	162
175	268
189	145
199	119
213	141
253	408
255	457
256	105
257	97
271	1269
272	268
347	9999
348	2758
349	738
350	136
389	114
