Mass Spectrum: Benzaldehyde, 2,5-dimethyl-
Formula: C9 H10 O
CAS: 5779-94-2
Molecular weight: 134
Origin: Japan AIST/NIMC Database- Spectrum MS-NW-5886
m/z	RELATIVE INTENSITY
15	20
18	10
26	60
27	699
28	60
29	159
37	70
38	159
39	979
40	99
41	169
43	40
44	30
45	20
49	50
50	509
51	1189
52	349
53	469
54	40
55	30
57	20
58	10
59	50
60	10
61	90
62	219
63	589
64	139
65	569
66	159
67	169
73	40
74	199
75	159
76	109
77	2149
78	639
79	1579
80	119
86	60
87	50
88	20
89	199
90	90
91	2169
92	179
93	20
101	30
102	169
103	1009
104	549
105	7149
106	959
107	179
108	10
109	10
115	50
116	10
117	10
118	30
119	209
120	30
131	30
132	199
133	8659
134	9999
135	1019
136	80
