Mass Spectrum: 8-Quinolinamine
Formula: C9 H8 N2
CAS: 578-66-5
Molecular weight: 144
Origin: Japan AIST/NIMC Database- Spectrum MS-NW-2253
m/z	RELATIVE INTENSITY
26	30
27	50
28	89
37	70
38	129
39	329
40	50
41	70
42	20
43	10
44	20
45	30
49	20
50	139
51	189
52	189
53	50
54	30
56	10
57	60
58	319
59	30
61	70
62	199
63	469
64	209
65	129
66	40
67	20
71	99
72	289
73	10
74	70
75	90
76	109
77	70
78	90
79	40
85	20
86	40
87	70
88	109
89	889
90	949
91	149
92	20
93	20
98	10
99	10
100	20
101	20
102	20
103	20
104	30
105	30
114	70
115	139
116	799
117	3159
118	409
119	20
127	10
128	10
129	20
141	10
142	209
143	629
144	9999
145	1079
146	50
