Mass Spectrum: 2-Chloro-4-methylphenyl isothiocyanate
Formula: C8 H6 Cl N S
CAS: 57878-93-0
Molecular weight: 183
Origin: NIST Mass Spectrometry Data Center, 1994
m/z	RELATIVE INTENSITY
14	99
15	154
26	471
27	961
28	412
32	639
35	99
36	174
37	690
38	1023
39	2797
40	225
41	108
44	1060
45	1905
46	93
47	213
48	93
49	662
50	2086
51	2312
52	517
53	123
56	55
57	90
58	534
59	280
60	570
61	1034
62	1996
63	3611
64	948
65	346
68	67
69	512
70	1074
71	211
72	456
73	1321
74	1241
75	1408
76	896
77	1241
78	412
79	532
80	54
81	249
82	208
83	250
84	396
85	413
86	575
87	660
88	517
89	3354
90	874
91	54
92	810
93	279
94	202
95	266
96	285
97	375
98	185
99	830
100	167
101	243
102	535
103	402
104	1188
105	112
106	88
107	127
108	149
109	50
111	125
112	87
113	59
114	240
115	124
116	463
117	78
119	156
120	307
121	1189
122	239
123	380
124	50
125	4099
126	448
127	1429
128	109
133	98
137	68
138	236
140	75
146	450
148	8994
149	897
150	667
151	206
152	61
153	89
154	44
155	265
156	115
157	122
180	43
182	2164
183	9999
184	1718
185	3681
186	466
187	188
