Mass Spectrum: 4,5-Dibromo-3(2H)-pyridazinone
Formula: C4 H2 Br2 N2 O
CAS: 5788-58-9
Molecular weight: 252
Origin: NIST Mass Spectrometry Data Center, 1994
m/z	RELATIVE INTENSITY
12	137
13	100
24	209
25	183
29	768
36	639
37	3503
38	1498
39	144
42	141
43	60
50	372
51	600
52	165
65	428
66	817
79	879
80	125
81	799
82	135
91	241
93	275
103	204
105	198
106	71
115	154
116	1740
117	1096
118	1950
119	986
120	345
129	104
130	256
131	315
132	279
133	180
144	170
145	308
146	172
147	283
160	128
162	77
172	114
173	1749
174	126
175	1778
176	87
182	89
184	174
186	83
195	879
197	1735
198	99
199	1239
201	195
224	1038
225	190
226	1971
227	141
228	931
252	5011
254	9999
255	562
256	4708
257	200
