Mass Spectrum: Benzoic acid, 2-methoxy-
Formula: C8 H8 O3
CAS: 579-75-9
Molecular weight: 152
Origin: NIST Mass Spectrometry Data Center, 2010
m/z	RELATIVE INTENSITY
15	190
20	10
25	10
26	80
27	310
28	150
29	230
30	40
31	160
33	10
34	10
36	20
37	300
38	771
39	1611
40	80
41	80
42	70
43	220
44	80
45	651
46	30
47	30
48	10
49	130
50	1421
51	1621
52	360
53	1091
54	80
55	150
56	10
57	10
59	10
60	140
61	280
62	711
63	2392
64	1561
65	1682
66	270
67	60
68	10
69	90
73	140
74	631
75	420
76	1171
77	5155
78	1261
79	3173
80	240
81	1081
82	60
83	20
89	70
90	230
91	150
92	2913
93	601
94	210
95	40
97	10
100	10
103	10
104	380
105	9999
106	1301
107	711
108	130
109	220
110	30
111	10
118	10
119	140
120	561
121	470
122	360
123	5225
124	410
125	40
133	1041
134	671
135	2582
136	270
137	110
138	20
150	20
151	50
152	4674
153	410
154	60
