Mass Spectrum: 4,4'-Difluorobenzil
Formula: C14 H8 F2 O2
CAS: 579-39-5
Molecular weight: 246
Origin: NIST Mass Spectrometry Data Center
m/z	RELATIVE INTENSITY
18	10
20	10
26	10
27	20
31	20
37	60
38	90
39	120
45	40
48	10
49	80
50	721
51	410
52	10
53	30
56	30
57	140
61	40
62	100
63	100
68	310
69	540
70	30
73	60
74	470
75	2803
76	220
77	20
80	10
81	20
85	10
86	10
92	50
93	90
95	5065
96	330
97	10
104	10
107	10
123	9999
124	751
125	40
188	10
246	70
247	10
