Mass Spectrum: Bicyclo[2.2.1]heptane, 2,2-dimethyl-3-methylene-, (1R)-
Formula: C10 H16
CAS: 5794-03-6
Molecular weight: 136
Origin: RESEARCH LABORATORY, STATE ALCOHOL MONOPOLY ALKO, HELSINKI, FINLAND; IRMA NYKANEN ET AL
m/z	RELATIVE INTENSITY
26	101
27	574
28	743
29	675
38	135
39	2466
40	439
41	3817
42	270
43	945
50	337
51	878
52	506
53	1452
54	202
55	1047
56	148
57	148
63	270
64	101
65	1250
66	439
67	1824
68	574
69	1216
70	101
77	4054
78	945
79	7702
80	3716
81	2162
82	337
89	67
91	4729
92	2331
93	9999
94	2702
95	709
103	202
104	67
105	844
106	202
107	2635
108	1047
109	148
119	135
121	3750
122	405
135	33
136	878
137	101
