Mass Spectrum: 2-Amino-5-bromobenzoic acid
Formula: C7 H6 Br N O2
CAS: 5794-88-7
Molecular weight: 215
Origin: NIST Mass Spectrometry Data Center, 1994
m/z	RELATIVE INTENSITY
16	102
17	135
18	141
19	248
26	243
27	426
28	535
29	383
30	101
36	160
37	1243
38	1957
39	1789
40	719
41	1177
42	137
45	2376
49	408
50	853
51	926
52	3142
53	1155
54	282
55	109
59	547
60	305
61	1524
62	2862
63	6534
64	2158
65	1671
66	225
67	120
68	212
73	247
74	666
75	568
76	199
77	288
78	248
79	584
80	1011
81	404
82	136
85	806
86	838
87	170
88	417
89	785
90	4266
91	2066
92	426
99	632
106	111
108	541
116	105
117	399
118	229
119	329
141	103
142	532
143	664
144	636
145	543
156	88
169	2662
170	2360
171	2671
172	2078
173	240
197	9999
198	1375
199	9910
200	981
201	85
215	4930
216	401
217	4845
218	399
219	14
