Mass Spectrum: Nonanoic acid, 2-phenylethyl ester
Formula: C17 H26 O2
CAS: 57943-67-6
Molecular weight: 262
Origin: NIST Mass Spectrometry Data Center
m/z	RELATIVE INTENSITY
27	60
28	20
29	130
39	100
40	20
41	370
42	110
43	400
44	20
50	20
51	80
52	20
53	30
54	20
55	310
56	70
57	450
58	20
63	30
64	10
65	130
66	10
67	40
69	60
70	30
71	420
72	20
75	10
76	10
77	280
78	160
79	260
81	60
83	20
89	20
90	10
91	240
92	40
97	20
98	20
102	20
103	270
104	9999
105	2572
106	190
123	20
141	250
142	30
