Mass Spectrum: Carbamic acid, phenyl-, dodecyl ester
Formula: C19 H31 N O2
CAS: 5796-07-6
Molecular weight: 305
Origin: Japan AIST/NIMC Database- Spectrum MS-IW-3888
m/z	RELATIVE INTENSITY
15	30
17	10
18	30
25	10
26	129
27	1259
28	439
29	2609
30	70
31	1169
32	30
36	30
37	449
38	759
39	1489
40	329
41	6079
42	2129
43	7599
44	389
45	299
46	30
48	10
49	80
50	459
51	589
52	339
53	339
54	689
55	7569
56	5979
57	5899
58	259
59	469
60	70
61	169
62	259
63	959
64	2589
65	679
66	219
67	909
68	2499
69	6369
70	5339
71	1989
72	109
73	179
74	119
75	80
76	80
77	329
78	30
79	60
80	30
81	349
82	2669
83	5449
84	3419
85	1049
86	70
87	40
88	50
89	20
90	209
91	4239
92	469
93	2579
94	209
95	109
96	839
97	3629
98	2039
99	229
100	10
103	10
106	109
107	10
109	20
110	339
111	1989
112	1129
113	109
114	10
118	10
119	9999
120	1109
121	80
123	10
124	119
125	769
126	469
127	50
132	10
134	70
135	10
136	70
137	1789
138	879
139	299
140	1209
141	139
148	50
149	10
153	10
154	10
162	30
167	10
168	689
169	99
176	20
185	10
190	20
196	30
204	20
212	90
213	30
218	30
232	40
277	10
305	1789
306	379
307	40
