Mass Spectrum: 17.alpha.-Methyltestosterone
Formula: C20 H30 O2
CAS: 58-18-4
Molecular weight: 302
Origin: NIST Mass Spectrometry Data Center, 1998.
m/z	RELATIVE INTENSITY
15	30
26	20
27	520
29	1000
30	20
31	120
38	30
39	1330
40	340
41	4490
42	360
43	9999
44	280
45	430
50	70
51	450
52	330
53	2320
54	400
55	4830
56	280
57	1490
58	1300
59	360
63	120
64	110
65	1460
66	590
67	4460
68	660
69	1240
70	140
71	4270
72	740
73	60
74	30
76	40
77	4280
78	970
79	6359
80	920
81	3150
82	400
83	960
84	100
85	390
86	100
87	140
88	20
89	100
90	50
91	7139
92	1180
93	4330
94	1120
95	3510
96	770
97	1390
98	150
99	210
100	70
101	70
102	100
103	730
104	430
105	5009
106	1370
107	4460
108	2090
109	3830
110	630
111	820
112	100
113	240
114	50
115	1010
116	450
117	1720
118	600
119	3460
120	2030
121	4910
122	4110
123	3420
124	8389
125	1030
126	90
127	230
128	690
129	890
130	400
131	1900
132	640
133	2390
134	1600
135	1730
136	1050
137	2040
138	450
139	70
140	70
141	320
142	320
143	830
144	440
145	1820
146	760
147	2100
148	1830
149	2460
150	470
151	220
152	100
153	110
154	90
155	270
156	230
157	780
158	460
159	1570
160	1020
161	3240
162	1060
163	930
164	170
165	280
166	120
167	110
168	70
169	250
170	200
171	640
172	310
173	960
174	820
175	790
176	380
177	220
178	210
179	1270
180	190
181	120
182	60
183	230
184	200
185	700
186	410
187	1890
188	580
189	1040
190	350
191	90
192	20
194	20
195	90
196	60
197	210
198	490
199	1330
200	960
201	800
202	2730
203	730
204	280
205	50
209	200
210	100
211	800
212	180
213	970
214	320
215	310
216	230
217	1390
218	240
219	30
220	10
223	70
224	110
225	160
226	690
227	1370
228	650
229	4220
230	800
231	630
232	470
233	80
237	40
238	30
239	50
240	630
241	760
242	1180
243	310
244	770
245	2950
246	570
247	60
251	210
252	60
255	90
256	70
258	60
259	80
260	590
261	100
266	180
267	100
268	30
269	980
270	210
271	30
273	40
274	50
282	20
283	50
284	1510
285	400
286	80
287	1260
288	240
289	30
302	9909
303	2220
304	270
305	30
