Mass Spectrum: Drostanolone
Formula: C20 H32 O2
CAS: 58-19-5
Molecular weight: 304
Origin: NIST Mass Spectrometry Data Center
m/z	RELATIVE INTENSITY
15	10
19	10
26	20
27	380
28	110
29	1031
30	70
31	140
37	10
39	901
40	300
41	5415
42	631
43	2983
44	470
45	190
50	20
51	180
52	130
53	2252
54	561
55	7146
56	721
57	2022
58	240
59	80
60	60
61	20
62	10
63	40
64	30
65	1001
66	420
67	5735
68	2422
69	3193
70	300
71	1001
72	120
73	50
74	220
77	2512
78	561
79	5525
80	1141
81	5905
82	1061
83	1091
84	360
85	320
86	60
87	110
88	40
89	50
91	4704
92	831
93	5395
94	2092
95	5555
96	1091
97	1421
98	190
99	100
100	10
102	60
103	300
104	210
105	3713
106	1031
107	4454
108	1802
109	3253
110	711
111	1201
112	170
113	110
114	30
115	370
116	170
117	781
118	671
119	2863
120	1181
121	4384
122	1932
123	4354
124	1451
125	791
126	90
127	120
128	230
129	330
130	160
131	1081
132	450
133	1902
134	751
135	1902
136	1852
137	1441
138	3393
139	490
140	50
141	90
142	60
143	310
144	200
145	1181
146	460
147	1742
148	881
149	2472
150	901
151	1121
152	200
153	80
154	80
155	100
156	50
157	470
158	210
159	1281
160	380
161	1661
162	651
163	1191
164	360
165	250
166	230
167	571
168	80
169	60
170	20
171	450
172	200
173	1121
174	621
175	1321
176	981
177	3463
178	891
179	581
180	110
181	20
182	10
183	60
184	20
185	330
186	100
187	510
188	240
189	831
190	571
191	310
192	220
193	280
194	40
195	10
196	10
197	90
198	40
199	1631
200	591
201	621
202	210
203	510
204	290
205	180
206	90
207	20
209	10
211	60
212	20
213	130
214	80
215	240
216	110
217	601
218	871
219	300
220	160
221	40
222	10
223	10
225	50
226	10
227	530
228	110
229	1161
230	240
231	1001
232	340
233	250
234	50
235	20
236	10
239	10
240	10
241	30
242	70
243	250
244	190
245	9999
246	2172
247	1131
248	230
249	50
250	10
251	10
253	150
254	40
255	20
256	10
257	40
258	170
259	60
260	1421
261	1081
262	220
263	30
267	10
268	30
269	50
270	10
271	1041
272	220
273	40
274	10
275	120
276	60
277	10
284	20
285	50
286	801
287	200
288	30
289	751
290	160
291	20
300	10
302	150
304	7947
305	1732
306	230
307	20
