Mass Spectrum: Chlordiazepoxide
Formula: C16 H14 Cl N3 O
CAS: 58-25-3
Molecular weight: 299
Origin: MI-0023
m/z	RELATIVE INTENSITY
36	490
37	90
38	290
39	891
40	891
41	1892
42	1091
43	791
44	1491
45	190
49	90
50	390
51	1091
52	290
53	190
54	591
55	1241
56	1992
57	791
58	540
59	190
60	290
61	90
62	290
63	691
64	290
65	591
66	190
67	290
68	290
69	490
70	290
71	290
72	90
73	290
74	290
75	991
76	791
77	2292
78	390
79	290
80	190
81	390
82	490
83	390
84	190
85	190
86	190
87	290
88	490
89	1091
90	490
91	1892
92	290
93	290
94	190
95	290
96	390
97	390
98	290
99	290
100	390
101	340
102	691
103	691
104	490
105	691
106	290
107	190
108	190
109	490
110	490
111	490
112	290
113	290
114	390
115	390
116	490
117	490
118	591
119	190
120	390
121	290
122	190
123	390
124	1091
125	390
126	490
127	390
128	290
129	290
130	190
131	190
132	290
133	90
134	190
135	190
136	290
137	290
138	490
139	390
140	290
141	290
142	290
143	290
144	190
145	190
146	90
147	190
148	90
149	1091
150	591
151	991
152	691
153	390
154	190
155	90
156	90
157	90
158	90
159	90
160	90
161	90
162	290
163	991
164	791
165	1091
166	390
167	290
168	190
169	140
170	90
171	190
172	90
173	90
174	90
175	190
176	390
177	791
178	591
179	791
180	490
181	290
182	90
186	190
187	190
188	290
189	290
190	691
191	490
192	390
193	490
194	290
195	190
196	90
197	90
198	90
199	390
200	190
201	290
202	190
203	390
204	390
205	991
206	490
207	290
208	190
209	90
210	90
211	90
212	90
213	290
214	591
215	390
216	490
217	390
218	991
219	1091
220	1191
221	390
222	190
223	190
224	190
226	290
227	691
228	290
229	490
230	290
231	190
232	290
233	290
234	190
235	140
236	90
237	90
238	190
239	691
240	490
241	1692
242	691
243	691
244	390
245	190
246	490
247	1191
248	490
249	90
251	190
252	591
253	1291
254	741
255	891
256	390
257	390
258	190
259	190
264	190
265	190
266	390
267	490
268	591
269	490
270	390
271	190
272	90
273	90
279	90
280	490
281	390
282	9999
283	7196
284	4394
285	2392
286	490
287	90
298	891
299	3493
300	991
301	1291
302	290
303	90
