Mass Spectrum: Testosterone cypionate
Formula: C27 H40 O3
CAS: 58-20-8
Molecular weight: 412
Origin: Dr. P.K. Shah, NYC Police Laboratory, NY
m/z	RELATIVE INTENSITY
39	791
40	200
41	4254
42	510
43	1531
44	100
45	70
51	130
52	100
53	971
54	540
55	9999
56	611
57	440
60	220
65	480
66	230
67	2823
68	520
69	2382
70	170
71	240
73	240
77	1391
78	390
79	4464
80	711
81	3773
82	480
83	941
84	90
85	100
86	70
91	2933
92	530
93	2362
94	1061
95	2512
96	701
97	1752
98	160
99	110
101	70
103	200
104	210
105	2422
106	571
107	4874
108	831
109	1591
110	390
111	591
112	60
115	320
116	120
117	801
118	330
119	1511
120	581
121	1281
122	1021
123	2032
124	9839
125	4894
126	420
127	80
128	230
129	420
130	210
131	1381
132	500
133	1732
134	1441
135	991
136	530
137	771
138	310
141	200
142	170
143	500
144	631
145	1221
146	2562
147	7076
148	1661
149	1231
150	240
151	110
155	140
156	100
157	470
158	290
159	721
160	430
161	821
162	510
163	420
164	190
165	260
167	60
169	160
170	80
171	370
172	340
173	460
174	420
175	430
176	240
177	200
178	60
181	60
183	170
184	120
185	1211
186	400
187	370
188	180
189	230
190	70
195	110
197	210
198	80
199	360
200	260
201	200
202	80
203	130
207	120
209	120
211	180
212	90
213	741
214	240
215	160
217	60
224	70
225	100
226	140
227	561
228	2292
229	861
230	2352
231	601
232	90
237	210
241	160
242	240
243	210
244	160
245	691
246	260
251	80
252	340
253	631
254	140
255	561
256	120
257	100
260	460
261	90
269	120
270	1131
271	1962
272	420
273	671
274	120
287	180
288	1722
289	470
290	60
327	260
328	230
330	100
370	961
371	270
397	130
412	1171
413	400
