Mass Spectrum: Tetrabenazine
Formula: C19 H27 N O3
CAS: 58-46-8
Molecular weight: 317
Origin: AAFS Toxicology Section MS DB Committee, U. Alberta, Canada
m/z	RELATIVE INTENSITY
39	310
40	60
41	1000
42	470
43	780
44	40
45	20
50	30
51	130
52	60
53	220
54	100
55	1191
56	120
57	50
59	10
62	10
63	110
64	40
65	250
66	50
67	130
68	60
69	120
70	60
71	30
74	10
75	40
76	70
77	580
78	270
79	240
80	80
81	70
82	50
83	70
86	20
87	10
88	10
89	240
90	190
91	710
92	130
93	90
94	70
95	40
96	10
97	70
98	10
101	50
102	210
103	580
104	330
105	360
106	90
107	110
108	30
110	130
111	10
112	20
113	10
114	10
115	510
116	270
117	480
118	340
119	200
120	80
121	230
122	30
123	10
127	80
128	170
129	170
130	320
131	550
132	250
133	540
134	120
135	50
136	10
137	10
140	10
141	30
142	40
143	100
144	230
145	280
146	780
147	420
148	210
149	110
150	40
151	60
152	20
153	10
154	30
155	20
156	60
157	90
158	180
159	170
160	430
161	330
162	170
163	140
164	250
165	120
166	20
167	10
168	20
169	30
170	40
171	80
172	140
173	150
174	530
175	350
176	2782
177	780
178	100
179	10
183	20
184	60
185	50
186	130
187	100
188	280
189	310
190	2702
191	9999
192	2171
193	230
194	20
195	10
196	10
197	10
198	40
199	50
200	90
201	60
202	210
203	270
204	320
205	1211
206	260
207	30
212	20
213	40
214	110
215	40
216	270
217	70
218	860
219	210
220	90
221	10
226	20
227	10
228	50
229	50
230	440
231	70
232	1831
233	290
234	30
240	10
242	80
243	20
244	170
245	50
246	600
247	90
248	10
255	10
256	30
257	10
258	310
260	6255
261	8587
262	1481
263	170
264	10
270	10
271	10
272	80
274	4974
275	940
276	100
286	30
287	10
288	10
300	80
301	10
302	570
303	120
304	10
314	30
316	2542
317	1641
318	300
319	30
