Mass Spectrum: Theophylline
Formula: C7 H8 N4 O2
CAS: 58-55-9
Molecular weight: 180
Origin: NIST Mass Spectrometry Data Center, 1990.
m/z	RELATIVE INTENSITY
13	83
14	163
15	360
16	52
17	24
28	1276
29	249
31	233
32	40
38	236
39	303
40	926
41	1622
42	859
43	110
53	1825
54	364
55	154
56	373
57	136
58	191
65	172
66	363
67	1056
68	4115
69	381
70	302
80	90
81	162
93	153
94	785
95	4526
96	913
97	138
108	122
111	104
121	130
122	600
123	1251
124	348
125	75
135	94
136	202
151	850
152	274
180	9999
181	886
182	137
