Mass Spectrum: 9-.alpha.-d-Arabinofuranosyladenine
Formula: C10 H13 N5 O4
CAS: 58-61-7
Molecular weight: 267
Origin: Japan AIST/NIMC Database- Spectrum MS-NW-8158
m/z	RELATIVE INTENSITY
14	30
15	229
16	20
17	159
18	559
19	179
25	10
26	119
27	609
28	1809
29	1059
30	339
31	959
37	10
38	109
39	329
40	389
41	599
42	339
43	1249
44	299
45	829
46	30
47	70
49	20
50	10
51	40
52	139
53	399
54	809
55	869
56	319
57	1279
58	159
59	109
60	269
61	579
62	10
64	40
65	199
66	679
67	579
68	279
69	359
70	229
71	429
72	80
73	1039
74	139
75	40
76	10
77	50
78	30
79	90
80	189
81	689
82	199
83	40
84	80
85	359
86	179
87	60
88	20
89	40
91	50
92	249
93	119
94	259
95	109
96	40
97	109
98	10
101	20
102	10
103	40
104	20
105	20
106	60
107	109
108	3149
109	379
110	30
112	10
113	10
114	50
115	70
118	40
119	659
120	90
121	139
122	30
123	20
124	10
131	20
132	40
133	139
134	159
135	9999
136	7279
137	519
138	20
145	20
146	10
147	10
148	789
149	249
150	50
151	20
152	20
160	30
161	60
162	80
163	50
164	7999
165	699
166	50
173	20
174	10
176	40
177	149
178	2799
179	279
180	20
186	10
190	80
191	20
192	30
194	139
195	20
202	90
203	10
208	10
218	30
220	129
221	10
231	10
232	40
236	90
237	789
238	90
239	10
249	10
250	99
251	10
267	219
268	109
269	10
