Mass Spectrum: Hydrochlorothiazide
Formula: C7 H8 Cl N3 O4 S2
CAS: 58-93-5
Molecular weight: 297
Origin: EQUINE DRUG TESTING PROG. J.D.HENION,ETAL CORNELL U, ITHACA, NY
m/z	RELATIVE INTENSITY
49	176
52	442
53	88
54	265
55	1415
56	973
57	884
60	707
61	353
62	973
68	176
71	707
73	973
74	619
75	530
76	442
77	530
78	973
79	530
80	88
81	353
83	1769
84	1592
85	1150
86	353
87	176
88	530
89	442
90	619
91	176
94	353
95	707
96	442
97	2920
98	2035
99	1061
102	176
103	265
107	353
109	530
111	884
112	530
113	176
114	619
115	442
116	353
117	973
118	176
120	353
124	973
125	884
126	884
127	265
129	1061
130	353
137	353
138	442
139	353
141	176
142	353
143	442
144	88
151	88
152	530
153	176
155	353
158	442
159	88
160	88
165	176
171	176
175	176
185	176
188	707
190	353
205	3805
206	619
207	1327
208	265
221	3008
222	88
223	973
225	265
232	1150
233	88
234	442
244	88
254	88
255	88
256	176
268	1238
269	9999
270	1504
271	3805
297	4070
298	442
299	1592
300	176
301	88
