Mass Spectrum: .alpha.-Tocopheryl acetate
Formula: C31 H52 O3
CAS: 58-95-7
Molecular weight: 472
Origin: Patti Price, Georgia Bureau of Investigation, Decatur, Georgia
m/z	RELATIVE INTENSITY
41	1030
42	130
43	3753
51	10
52	10
53	150
54	50
55	1181
56	210
57	1641
58	60
59	10
60	10
63	10
65	50
66	10
67	270
68	40
69	720
70	80
71	700
72	30
73	10
77	110
78	10
79	180
80	20
81	360
82	40
83	310
84	20
85	140
86	10
91	310
92	50
93	150
94	10
95	230
96	10
97	150
98	10
99	10
102	10
103	30
104	10
105	140
106	20
107	240
108	40
109	150
110	10
111	70
112	10
113	10
115	50
116	10
117	60
118	10
119	160
120	20
121	630
122	140
123	80
124	10
125	60
126	10
127	10
128	30
129	30
130	10
131	50
132	10
133	80
134	30
135	380
136	540
137	340
138	50
139	30
140	10
141	10
142	10
143	20
144	10
145	60
146	30
147	190
148	50
149	410
150	60
151	130
152	160
153	70
154	10
156	10
157	20
158	10
159	100
160	30
161	160
162	110
163	220
164	3373
165	9999
166	1141
167	100
168	10
169	10
171	20
172	30
173	70
174	40
175	220
176	140
177	350
178	110
179	70
180	10
185	10
186	10
187	80
188	50
189	250
190	200
191	200
192	20
193	10
194	10
197	10
199	10
200	10
201	30
202	20
203	240
204	110
205	1030
206	140
207	2812
208	350
209	30
215	10
216	10
217	20
218	10
219	50
220	20
221	20
229	10
230	10
231	10
232	10
233	20
234	10
245	40
246	30
247	370
248	50
249	10
259	10
260	10
261	10
274	50
275	10
276	10
277	10
288	70
289	20
290	10
301	10
302	50
303	10
304	10
316	50
317	10
318	10
330	20
331	10
344	50
345	10
346	10
358	30
359	10
372	10
373	10
386	10
387	10
388	20
389	10
414	20
415	10
428	20
430	7586
431	2292
432	370
433	40
434	10
457	10
472	770
473	260
474	40
476	10
