Mass Spectrum: Chlorothiazide
Formula: C7 H6 Cl N3 O4 S2
CAS: 58-94-6
Molecular weight: 295
Origin: Japan AIST/NIMC Database- Spectrum MS-IW-4627
m/z	RELATIVE INTENSITY
16	90
17	149
18	349
26	50
27	399
28	111
29	30
30	10
32	90
33	20
34	40
35	10
36	600
37	10
38	200
39	129
40	30
41	40
42	109
43	109
44	349
45	139
46	90
47	70
48	789
49	109
50	269
51	189
52	729
53	129
54	20
55	20
57	40
58	20
59	30
60	90
61	569
62	1459
63	459
64	3079
65	229
66	159
67	30
68	40
69	169
70	60
71	40
72	149
73	489
74	299
75	319
76	599
77	239
78	409
79	129
80	169
81	70
82	70
83	30
84	70
85	149
86	149
87	249
88	1189
89	769
90	289
91	139
92	50
93	189
94	80
95	70
96	169
97	1929
98	429
99	659
100	189
101	50
102	60
103	99
104	109
105	999
106	189
107	139
108	149
109	139
110	70
111	239
112	519
113	459
114	319
115	189
116	149
117	149
118	90
119	60
120	99
121	60
122	70
123	529
124	2109
125	609
126	709
127	169
128	109
129	119
130	70
131	60
132	239
133	179
134	99
135	40
136	20
137	30
138	129
139	449
140	1759
141	889
142	1319
143	309
144	329
145	70
146	40
147	20
148	20
149	40
150	70
151	489
152	239
153	299
154	209
155	169
156	209
157	60
158	90
159	60
160	219
161	50
162	80
163	10
165	10
166	30
167	439
168	329
169	419
170	349
171	129
172	159
173	20
174	30
175	10
176	10
180	20
181	90
182	129
183	70
184	50
185	50
186	40
187	649
188	1799
189	619
190	689
191	159
192	40
196	30
197	209
198	50
199	40
200	10
201	10
202	10
203	70
204	619
205	429
206	269
207	159
208	20
209	10
212	10
213	10
214	40
215	829
216	609
217	379
218	229
219	40
220	10
221	40
222	10
223	20
230	20
231	1329
232	1459
233	2129
234	839
235	639
236	149
237	30
238	30
243	10
245	30
246	10
247	30
248	30
249	20
250	20
251	409
252	119
253	179
254	40
255	10
260	30
261	219
262	30
263	70
264	10
265	20
268	7639
269	739
270	3269
271	299
272	269
273	20
274	10
278	10
279	1109
280	119
281	469
282	50
283	40
285	80
294	10
295	9999
296	1229
297	4219
298	519
299	369
300	40
301	10
