Mass Spectrum: Aspirin methyl ester
Formula: C10 H10 O4
CAS: 580-02-9
Molecular weight: 194
Origin: NIST Mass Spectrometry Data Center, 2010
m/z	RELATIVE INTENSITY
27	200
29	220
36	220
37	170
39	460
42	370
43	2562
44	30
45	10
50	120
51	130
52	40
53	290
60	260
62	420
63	951
64	791
65	821
67	40
75	70
76	100
77	540
78	30
79	30
80	50
81	10
83	10
89	10
92	3603
93	400
94	10
95	140
97	90
120	9999
121	2893
122	300
123	30
135	80
136	200
137	50
149	10
150	10
152	7156
153	711
154	10
163	270
164	20
194	20
