Mass Spectrum: 1,3,5-Triazine-2,4-diamine, 6-chloro-N,N,N',N'-tetraethyl-
Formula: C11 H20 Cl N5
CAS: 580-48-3
Molecular weight: 257
Origin: P.A. Leclercq, Lab. Instrum. Anal., Eindhoven Univ. Technol., Netherlands
m/z	RELATIVE INTENSITY
41	659
42	4349
43	6700
44	2399
45	69
49	49
52	59
53	569
54	779
55	5360
56	2599
57	509
58	239
61	39
62	1419
63	59
64	399
66	49
67	479
68	6830
69	4889
70	669
71	3119
72	8840
73	419
74	29
75	49
76	79
78	79
79	169
80	559
81	479
82	179
83	699
84	59
87	649
88	209
89	249
90	509
91	769
92	199
93	1329
94	1359
95	319
96	2059
97	499
98	109
99	4929
100	289
101	29
102	39
103	109
104	319
105	339
106	179
107	199
108	99
109	129
110	39
111	59
113	59
114	99
115	69
116	199
117	79
118	79
119	109
120	139
121	599
122	529
123	179
124	2009
125	169
126	39
129	329
130	869
131	269
132	569
133	99
134	149
135	79
143	49
144	109
145	39
150	79
151	309
152	29
156	39
157	369
158	129
159	139
160	99
162	49
164	189
165	49
170	829
171	369
172	309
173	129
174	49
178	119
179	29
184	539
185	209
186	599
187	199
188	139
189	39
192	69
198	1119
199	169
200	799
201	159
202	179
203	29
212	269
213	169
214	5720
215	639
216	1929
217	199
222	229
223	59
226	149
227	29
228	9999
229	1689
230	3929
231	469
232	29
240	49
242	2949
243	459
244	1009
245	139
254	59
255	39
256	259
257	3679
258	729
259	1229
260	239
