Mass Spectrum: 2-Quinolinamine
Formula: C9 H8 N2
CAS: 580-22-3
Molecular weight: 144
Origin: Japan AIST/NIMC Database- Spectrum MS-NW-1610
m/z	RELATIVE INTENSITY
26	30
27	70
28	30
29	20
37	70
38	129
39	319
40	60
41	129
42	20
43	30
44	70
45	30
49	20
50	269
51	309
52	169
53	60
54	30
55	10
57	50
58	349
59	40
61	70
62	169
63	409
64	169
65	109
66	50
67	20
69	10
71	80
72	359
73	20
74	119
75	259
76	199
77	169
78	80
79	10
85	10
86	30
87	50
88	99
89	849
90	1079
91	169
92	20
93	20
98	10
99	20
100	30
101	139
102	70
103	20
104	30
105	10
114	60
115	90
116	739
117	3119
118	369
119	20
127	60
128	179
129	40
141	10
142	129
143	429
144	9999
145	1069
146	50
