Mass Spectrum: 7-Quinolinamine
Formula: C9 H8 N2
CAS: 580-19-8
Molecular weight: 144
m/z	RELATIVE INTENSITY
27	300
28	1100
37	300
38	600
39	1200
41	600
50	900
51	1000
52	900
62	1000
63	1800
64	600
65	500
72	900
74	400
75	400
76	500
78	300
89	2300
90	1700
104	100
116	2100
117	6199
118	700
143	900
144	9999
145	1100
