Mass Spectrum: 6-Quinolinamine
Formula: C9 H8 N2
CAS: 580-15-4
Molecular weight: 144
m/z	RELATIVE INTENSITY
27	300
28	1200
37	300
38	600
39	1000
41	500
50	500
51	500
52	900
62	700
63	1500
64	600
65	400
72	800
74	300
75	300
76	300
78	300
89	1800
90	1200
104	100
116	1500
117	2300
118	500
143	1100
144	9999
145	1100
