Mass Spectrum: 2',5'-Dimethoxypropiophenone
Formula: C11 H14 O3
CAS: 5803-30-5
Molecular weight: 194
Origin: Dr. Jiri Zamecnik, DCIEM, North York, Canada, GP Library
m/z	RELATIVE INTENSITY
51	1010
53	880
63	930
64	700
65	510
77	2790
78	440
79	1900
91	450
92	1310
94	520
107	3300
108	390
109	410
122	2040
123	300
135	350
136	90
150	1660
151	260
163	120
165	9999
166	2090
194	5340
195	670
