Mass Spectrum: 3,4-Dichlorophenylacetic acid
Formula: C8 H6 Cl2 O2
CAS: 5807-30-7
Molecular weight: 204
Origin: NIST Mass Spectrometry Data Center
m/z	RELATIVE INTENSITY
12	20
13	20
14	40
17	70
18	170
25	30
26	130
28	120
35	210
36	210
37	530
38	631
39	1201
40	70
42	100
43	360
44	390
45	1952
46	30
47	110
48	70
49	440
50	921
51	681
52	90
53	70
55	70
56	10
57	10
60	200
61	891
62	1611
63	2232
64	180
65	50
66	20
67	10
68	10
69	20
70	10
71	50
72	280
73	1261
74	350
75	781
76	90
77	761
78	140
80	190
81	130
82	40
83	80
84	260
85	510
86	601
87	661
88	270
89	2702
90	250
91	20
94	40
95	30
96	150
97	591
98	90
99	651
100	40
101	140
102	20
103	10
105	40
107	170
108	50
109	220
110	60
111	230
112	80
113	140
114	30
115	30
119	10
120	20
121	40
123	2262
124	961
125	4084
126	571
127	1091
128	90
131	20
133	490
134	80
135	290
136	20
137	50
139	10
141	110
142	10
143	20
145	20
146	10
147	30
148	10
149	20
151	20
155	10
159	9999
160	1161
161	6746
162	621
163	1141
164	120
165	10
168	10
169	50
170	10
171	10
173	20
175	20
186	30
187	10
188	40
190	10
204	3023
205	320
206	1862
207	190
208	300
209	30
