Mass Spectrum: 2-Naphthaleneacetic acid
Formula: C12 H10 O2
CAS: 581-96-4
Molecular weight: 186
Origin: NIST Mass Spectrometry Data Center, 1994
m/z	RELATIVE INTENSITY
15	13
17	12
18	6
26	59
27	100
29	58
31	7
37	23
38	85
39	278
40	9
41	16
42	14
43	12
45	688
46	7
50	206
51	253
52	44
53	21
55	17
58	253
61	54
62	218
63	522
64	74
65	140
66	11
70	137
71	132
74	204
75	174
76	105
77	85
78	22
79	7
85	37
86	126
87	192
88	109
89	353
90	41
91	109
93	46
98	65
99	38
100	21
101	35
102	85
103	14
109	10
110	32
111	33
113	211
115	3013
116	280
117	15
122	7
126	72
127	114
128	194
129	100
130	13
137	54
139	1333
141	9999
142	1556
143	106
144	23
155	7
157	36
158	53
168	52
186	5151
187	673
188	73
