Mass Spectrum: Naphthalene, 2,3-dimethyl-
Formula: C12 H12
CAS: 581-40-8
Molecular weight: 156
Origin: NIST Mass Spectrometry Data Center, 1990.
m/z	RELATIVE INTENSITY
15	49
17	20
18	8
26	57
27	289
28	52
29	15
37	20
38	88
39	484
40	50
41	48
50	316
51	667
52	116
53	93
55	11
56	15
57	241
61	56
62	354
63	980
64	523
65	191
66	20
68	16
69	156
70	379
73	40
74	351
75	492
76	1163
77	921
78	542
85	39
86	158
87	203
88	114
89	384
90	43
91	106
98	110
99	85
100	47
101	129
102	252
103	65
109	13
110	41
111	40
112	18
113	150
114	13
115	2272
116	277
117	19
122	15
125	41
126	303
127	802
128	1610
129	683
130	65
137	39
139	815
141	9999
142	1160
143	65
149	30
150	177
151	411
152	1198
153	1275
154	553
155	2939
156	9811
157	1286
158	83
