Mass Spectrum: Naphthalene, 2,6-dimethyl-
Formula: C12 H12
CAS: 581-42-0
Molecular weight: 156
Origin: NIST Mass Spectrometry Data Center, 1990.
m/z	RELATIVE INTENSITY
15	87
26	65
27	243
28	11
37	29
38	91
39	390
40	36
41	30
44	18
50	327
51	753
52	100
53	68
55	16
57	205
61	62
62	276
63	983
64	659
65	167
69	110
70	300
73	29
74	292
75	378
76	1166
77	1361
78	452
85	46
86	152
87	205
88	99
89	319
90	38
91	64
98	88
99	71
100	30
101	81
102	210
103	56
105	11
110	36
111	34
112	21
113	130
114	11
115	1567
116	181
122	16
125	35
126	279
127	780
128	1354
129	614
130	59
137	26
139	842
141	7523
142	916
143	48
150	156
151	407
152	1195
153	1346
154	678
155	4202
156	9999
157	1286
158	85
