Mass Spectrum: 8-Carboxynaphyhalene-1-carboxamide
Formula: C12 H9 N O3
CAS: 5811-88-1
Molecular weight: 215
Origin: NIST Mass Spectrometry Data Center
m/z	RELATIVE INTENSITY
12	80
15	90
17	20
18	90
27	140
28	40
29	120
31	80
32	30
38	180
39	270
44	120
49	100
50	581
51	370
52	110
57	140
61	290
62	561
63	1511
64	130
71	480
73	90
74	791
75	771
76	641
77	350
85	520
86	390
87	500
88	190
98	480
99	460
100	380
101	120
113	430
114	370
115	90
125	460
126	3443
127	841
140	601
141	200
151	90
153	4444
154	1211
155	711
169	420
197	9999
198	1511
199	220
