Mass Spectrum: m-Methoxybenzamide
Formula: C8 H9 N O2
CAS: 5813-86-5
Molecular weight: 151
Origin: NIST Mass Spectrometry Data Center, 1994
m/z	RELATIVE INTENSITY
15	418
16	29
17	25
26	67
27	152
29	178
30	48
31	38
37	166
38	535
39	600
40	46
41	50
42	37
43	37
44	999
45	40
49	73
50	741
51	520
52	191
53	336
54	52
61	143
62	439
63	1576
64	1481
65	653
66	109
67	36
68	18
73	100
74	388
75	333
76	680
77	3153
78	471
79	334
80	197
81	23
90	67
92	2187
93	233
94	30
95	49
102	30
103	140
104	134
105	196
106	30
107	3948
108	426
109	38
118	20
119	81
120	137
121	374
122	166
123	29
133	193
135	9999
136	967
137	81
150	1790
151	9268
152	842
153	65
