Mass Spectrum: 2,4-Dichlorobenzhydrazide
Formula: C7 H6 Cl2 N2 O
CAS: 5814-06-2
Molecular weight: 204
Origin: NIST Mass Spectrometry Data Center
m/z	RELATIVE INTENSITY
11	40
15	40
16	180
18	20
26	60
28	220
29	661
30	290
31	941
35	110
36	120
37	370
38	200
39	60
43	200
44	130
47	70
49	220
50	731
51	200
53	50
54	40
55	150
56	40
60	90
61	210
62	140
63	140
69	40
71	40
72	140
73	500
74	1682
75	1712
76	150
77	70
78	40
84	390
85	280
86	210
87	160
90	50
97	60
99	70
100	80
101	50
109	1872
110	691
111	861
112	190
113	70
124	70
136	50
137	60
138	120
139	40
140	50
145	2813
146	330
147	2012
148	220
149	310
154	140
171	220
173	9999
174	1051
175	6636
176	681
177	1171
178	110
189	210
191	170
204	1001
205	100
206	571
207	70
208	120
