Mass Spectrum: Palmitic Acid, TBDMS derivative
Formula: C22 H46 O2 Si
CAS: 58160-87-5
Molecular weight: 370
Origin: NIST Mass Spectrometry Data Center
m/z	RELATIVE INTENSITY
27	50
28	10
29	190
39	70
40	20
41	540
42	110
43	821
44	30
45	90
46	10
47	90
53	30
54	30
55	480
56	130
57	520
58	90
59	140
60	40
61	80
62	10
65	10
67	140
68	20
69	210
70	40
71	100
72	70
73	1071
74	150
75	3623
76	270
77	170
78	10
79	40
80	10
81	190
82	20
83	180
84	30
85	90
86	50
87	30
88	20
89	20
91	10
93	40
94	10
95	260
96	30
97	130
98	40
99	110
100	20
101	70
102	30
103	40
105	140
106	10
107	30
109	90
110	10
111	40
112	10
113	20
114	90
115	360
116	370
117	1261
118	160
119	70
121	30
123	30
125	10
127	10
129	2122
130	270
131	1061
132	110
133	50
135	20
137	10
139	10
141	10
142	10
143	110
144	20
145	20
149	10
153	10
155	20
157	60
158	20
159	50
160	10
167	10
169	10
171	290
172	40
173	20
174	10
175	20
181	10
185	160
186	20
187	120
188	20
189	10
199	50
200	10
201	10
213	50
214	10
215	10
227	70
228	10
229	10
239	10
241	40
242	10
243	20
255	20
256	10
257	10
269	40
270	10
271	10
283	20
285	10
297	10
299	10
311	50
313	9999
314	2682
315	721
316	110
317	10
325	10
327	10
353	10
355	160
356	50
357	10
369	10
370	20
371	10
