Mass Spectrum: 3-(Cyclopropylamino)propionitrile
Formula: C6 H10 N2
CAS: 58196-47-7
Molecular weight: 110
Origin: NIST Mass Spectrometry Data Center, 1994
m/z	RELATIVE INTENSITY
4	18
13	30
14	111
15	257
18	32
26	583
27	1378
28	5500
29	482
30	1898
31	31
34	22
37	96
38	315
39	1705
40	627
41	4066
42	1897
43	1121
44	91
50	19
51	184
52	518
53	310
54	2050
55	496
56	583
57	41
65	16
66	47
68	1900
70	9999
71	513
78	66
80	176
81	493
82	207
83	141
84	12
92	11
95	328
96	23
109	158
110	248
111	23
