Mass Spectrum: Bis(.beta.-chloroethyl) sulfoxide
Formula: C4 H8 Cl2 O S
CAS: 5819-08-9
Molecular weight: 174
Origin: A.A.Kutin, Moscow, Russia
m/z	RELATIVE INTENSITY
26	1081
27	8948
29	711
31	100
35	190
36	500
37	210
38	210
39	170
41	120
42	110
44	591
45	1111
46	591
47	1211
48	731
49	581
50	290
51	120
54	120
57	210
58	581
59	1181
60	490
61	250
62	470
63	9999
64	470
65	2742
73	450
75	250
76	4074
77	210
78	190
83	801
85	360
86	190
102	140
109	420
111	420
112	971
113	100
114	280
122	120
138	450
140	210
174	611
176	440
178	100
