Mass Spectrum: Benzamide, N-(4-methylphenyl)-
Formula: C14 H13 N O
CAS: 582-78-5
Molecular weight: 211
Origin: Japan AIST/NIMC Database- Spectrum MS-IW-4267
m/z	RELATIVE INTENSITY
26	10
27	90
28	70
38	20
39	139
40	10
41	30
50	199
51	869
52	169
53	90
54	10
62	20
63	70
64	30
65	109
66	10
74	50
75	60
76	149
77	4459
78	429
79	209
80	20
89	20
90	10
91	70
103	10
104	80
105	9999
106	979
107	209
108	109
115	10
132	20
133	10
139	10
152	10
165	10
166	10
167	40
180	20
181	10
182	10
195	10
208	10
209	20
210	40
211	4129
212	649
213	60
