Mass Spectrum: 2,7-Naphthalenediol
Formula: C10 H8 O2
CAS: 582-17-2
Molecular weight: 160
Origin: Japan AIST/NIMC Database- Spectrum MS-NW- 127
m/z	RELATIVE INTENSITY
17	10
18	30
26	20
27	60
28	40
29	70
37	30
38	90
39	159
49	20
50	199
51	509
52	109
53	80
55	50
57	20
61	60
62	159
63	269
64	60
65	139
66	40
67	20
73	30
74	159
75	179
76	179
77	899
78	159
79	60
80	459
85	30
86	50
87	70
88	40
89	50
98	20
99	10
100	10
101	80
102	409
103	769
104	259
105	70
113	60
114	70
115	239
116	20
129	30
130	50
131	2839
132	689
133	70
142	50
144	20
159	149
160	9999
161	1099
162	90
