Mass Spectrum: 1-Butanone, 1-(4-fluorophenyl)-
Formula: C10 H11 F O
CAS: 582-83-2
Molecular weight: 166
Origin: B.C.SAWHNEY NEW YORK UNIVERSITY, NEW YORK, USA
m/z	RELATIVE INTENSITY
12	12
13	10
14	45
15	160
16	5
17	5
18	18
19	2
20	3
24	2
25	9
26	94
27	629
28	159
29	78
31	37
32	19
33	9
36	10
37	31
38	63
39	396
40	22
41	260
42	225
43	217
44	15
45	47
46	4
47	5
48	8
49	44
50	480
51	300
52	13
53	42
55	162
56	26
57	150
58	2
60	14
61	49
62	19
63	32
64	17
65	10
67	8
68	156
69	334
70	67
71	36
72	6
73	59
74	250
75	1311
76	56
77	49
78	4
79	4
80	74
81	47
82	12
83	99
84	2
85	13
86	13
87	14
88	3
89	16
90	7
91	7
92	28
93	57
94	262
95	3671
96	158
97	21
98	8
99	8
101	35
102	15
103	14
104	15
105	42
106	13
107	41
108	14
109	187
110	14
115	15
120	29
121	21
122	42
123	9999
126	4
127	4
131	6
132	5
133	43
134	5
135	9
136	8
137	8
138	1295
145	5
146	12
147	15
148	60
149	10
150	3
151	159
152	3
163	4
164	12
165	78
166	689
