Mass Spectrum: Benzeneethanamine, .beta.-methyl-
Formula: C9 H13 N
CAS: 582-22-9
Molecular weight: 135
Origin: Drug Lab
m/z	RELATIVE INTENSITY
30	9999
31	170
37	10
38	50
39	370
40	40
41	80
42	70
43	10
47	10
49	10
50	260
51	711
52	190
53	110
54	40
55	10
56	80
57	10
59	90
60	20
61	10
62	80
63	260
64	50
65	300
66	40
67	10
73	10
74	100
75	90
76	120
77	1491
78	681
79	861
80	60
86	10
87	20
89	160
90	60
91	1531
92	130
93	20
98	10
101	20
102	160
103	851
104	571
105	1401
106	310
107	20
115	170
116	50
117	160
118	160
119	50
120	20
130	20
132	30
133	20
134	30
135	450
136	50
