Mass Spectrum: Ethanone, 2-hydroxy-1-phenyl-
Formula: C8 H8 O2
CAS: 582-24-1
Molecular weight: 136
Origin: Japan AIST/NIMC Database- Spectrum MS-NW-2776
m/z	RELATIVE INTENSITY
18	20
26	20
27	129
28	99
29	129
30	20
31	319
37	40
38	70
39	129
42	10
43	10
49	30
50	439
51	1609
52	129
53	20
58	10
61	20
62	40
63	60
64	10
65	30
73	20
74	109
75	90
76	169
77	6029
78	449
79	109
89	20
90	10
91	40
104	30
105	9999
106	789
107	60
120	10
136	599
137	50
