Mass Spectrum: Tritylamine
Formula: C19 H17 N
CAS: 5824-40-8
Molecular weight: 259
Origin: Japan AIST/NIMC Database- Spectrum MS-NW-2319
m/z	RELATIVE INTENSITY
14	30
16	159
17	249
18	519
27	70
38	20
39	149
40	10
41	40
42	20
43	40
44	40
50	129
51	489
52	109
53	30
55	10
56	40
57	50
62	30
63	99
64	10
65	40
69	10
74	60
75	50
76	80
77	1509
78	399
79	70
86	30
87	40
88	30
89	60
90	20
91	90
93	20
94	40
95	10
98	10
99	20
100	20
101	40
102	30
103	20
104	2449
105	1469
106	149
107	40
108	20
112	10
113	60
114	20
115	119
116	20
118	40
119	99
120	70
121	40
122	10
126	30
127	40
128	40
129	40
130	10
137	10
138	10
139	90
140	20
141	10
150	20
151	40
152	119
153	70
154	229
155	159
156	20
162	10
163	90
164	99
165	1239
166	279
167	179
168	20
176	20
177	10
178	30
179	10
180	459
181	209
182	9999
183	2059
184	189
185	20
187	20
188	10
189	40
190	10
200	20
201	20
202	60
203	20
211	10
213	40
214	20
215	109
216	30
226	70
227	40
228	90
229	20
230	10
237	50
238	30
239	349
240	129
241	719
242	989
243	649
244	269
245	40
254	20
255	10
256	40
257	70
258	90
259	129
260	129
261	20
