Mass Spectrum: Benzene, 1-bromo-2,4-dimethyl-
Formula: C8 H9 Br
CAS: 583-70-0
Molecular weight: 184
Origin: Japan AIST/NIMC Database- Spectrum MS-NW-3386
m/z	RELATIVE INTENSITY
15	40
26	40
27	409
29	10
36	10
37	109
38	259
39	769
40	70
41	60
43	10
44	10
49	60
50	519
51	1339
52	379
53	289
54	10
59	20
60	20
61	139
62	349
63	789
64	189
65	259
66	50
73	40
74	229
75	209
76	189
77	2159
78	1179
79	1579
80	99
81	40
82	30
83	10
84	10
85	50
86	80
87	99
88	30
89	329
90	259
91	109
92	139
93	40
97	10
98	30
99	10
101	60
102	299
103	2049
104	989
105	9999
106	929
107	30
116	10
117	40
118	10
119	30
143	20
145	20
156	10
158	10
169	459
170	40
171	479
172	40
182	20
183	519
184	6149
185	1069
186	6009
187	529
188	20
