Mass Spectrum: Benzene, 1-bromo-2-iodo-
Formula: C6 H4 Br I
CAS: 583-55-1
Molecular weight: 282
Origin: Japan AIST/NIMC Database- Spectrum MS-NW-6008
m/z	RELATIVE INTENSITY
12	10
25	20
26	60
27	20
36	50
37	319
38	239
39	99
41	10
44	10
48	30
49	369
50	3279
51	369
52	10
55	10
60	20
61	60
62	30
63	10
65	10
69	10
72	30
73	309
74	1449
75	3319
76	3729
77	239
78	10
79	90
80	40
81	90
82	40
92	10
96	10
101	10
105	30
107	30
111	10
116	10
117	10
118	20
119	10
127	689
128	159
129	99
130	60
131	99
139	10
141	329
142	309
152	30
153	10
154	60
155	4049
156	339
157	3939
158	269
159	10
176	70
177	30
203	309
204	20
281	10
282	9999
283	689
284	9759
285	659
286	20
