Mass Spectrum: Benzoylacrylic acid
Formula: C10 H8 O3
CAS: 583-06-2
Molecular weight: 176
Origin: NIST Mass Spectrometry Data Center, 1994
m/z	RELATIVE INTENSITY
12	26
16	3
17	2
18	37
25	112
26	851
27	1031
28	50
37	118
38	268
39	391
40	38
42	28
43	58
44	51
45	1115
49	149
50	1829
51	4365
52	361
53	689
54	397
55	92
57	32
60	25
61	97
62	169
63	225
64	45
65	70
66	32
69	36
71	199
73	119
74	529
75	418
76	670
77	7709
78	614
79	59
81	233
82	79
85	40
86	56
87	46
89	44
91	143
92	26
99	447
100	37
101	57
102	274
103	528
104	26
105	9999
106	737
107	51
115	25
119	28
120	35
121	38
130	891
131	822
132	710
133	58
138	51
139	31
147	531
148	422
149	43
158	97
159	134
160	39
176	1795
177	217
178	27
