Mass Spectrum: 2-Benzimidazolethiol
Formula: C7 H6 N2 S
CAS: 583-39-1
Molecular weight: 150
Origin: NIST Mass Spectrometry Data Center
m/z	RELATIVE INTENSITY
26	20
27	40
32	20
37	120
38	230
39	360
40	60
41	100
42	30
44	80
45	220
46	40
47	10
49	30
50	250
51	400
52	591
53	130
54	40
55	20
56	10
57	30
58	40
59	140
60	100
61	170
62	310
63	991
64	681
65	1161
66	130
67	30
68	10
69	90
70	200
71	50
72	40
73	20
74	70
75	1021
76	170
77	100
78	350
79	140
80	60
81	10
82	30
83	50
84	20
85	10
86	10
87	30
88	50
89	30
90	390
91	591
92	450
93	50
94	50
95	170
96	540
97	60
98	30
99	10
103	10
104	30
105	390
106	1061
107	80
108	10
110	10
111	10
116	60
117	140
118	1321
119	110
120	20
121	40
122	1121
123	751
124	140
125	40
147	10
148	10
149	751
150	9999
151	961
152	470
153	40
