Mass Spectrum: 1,4-Pentanedione, 1-phenyl-
Formula: C11 H12 O2
CAS: 583-05-1
Molecular weight: 176
Origin: NIST Mass Spectrometry Data Center
m/z	RELATIVE INTENSITY
14	90
15	621
16	10
17	10
18	60
25	10
26	180
27	701
28	520
29	110
31	20
32	30
37	40
38	110
39	350
40	40
41	100
42	340
43	3323
44	80
45	20
50	781
51	2252
52	160
53	90
55	550
56	90
57	10
61	10
62	50
63	110
64	20
65	70
66	20
71	150
72	10
73	20
74	190
75	170
77	5075
78	410
79	70
87	10
89	40
91	120
92	20
99	40
102	20
103	60
105	9999
106	731
107	60
115	140
116	40
117	30
118	10
128	10
129	10
131	20
133	1001
134	400
135	30
157	10
158	30
159	10
161	1762
162	200
163	10
176	410
177	60
