Mass Spectrum: N,N-Dimethylhexanamide
Formula: C8 H17 N O
CAS: 5830-30-8
Molecular weight: 143
Origin: Zaikin V.G., TIPS RAS, Moscow, Russia
m/z	RELATIVE INTENSITY
27	210
28	100
29	250
30	70
39	160
40	30
41	390
42	490
43	1842
44	1862
45	4094
46	621
53	30
54	20
55	470
56	110
57	70
58	170
68	20
69	80
70	100
71	510
72	3193
73	190
74	20
81	20
83	20
86	40
87	9999
88	430
89	20
98	50
99	200
100	1591
101	360
113	40
114	721
115	60
126	20
128	70
142	80
143	490
144	160
