Mass Spectrum: 10-Methyldotriacontane
Formula: C33 H68
CAS: 58349-83-0
Molecular weight: 464
Origin: J. Klune, Insect Chem. Ecol. Lab., USDA, Beltsville, MD 20705
m/z	RELATIVE INTENSITY
41	3211
42	1240
43	8310
44	406
45	110
47	23
49	98
51	44
53	174
54	438
55	4147
56	2583
57	9999
58	918
59	324
60	154
61	53
65	37
66	79
67	738
68	785
69	3196
70	1636
71	7648
72	506
73	200
74	56
77	36
79	126
80	78
81	713
82	1073
83	2705
84	1084
85	5753
86	430
87	129
88	19
91	64
92	28
93	75
94	61
95	569
96	790
97	2675
98	743
99	1927
100	213
101	59
105	39
107	56
108	35
109	300
110	405
111	1421
112	537
113	1098
114	82
115	87
116	22
119	22
120	23
121	52
122	30
123	165
124	219
125	753
126	1100
127	701
128	86
129	115
130	15
133	20
135	97
136	15
137	154
138	127
139	222
140	212
141	468
142	79
143	103
147	34
149	92
150	21
151	84
152	214
153	327
154	7130
155	2458
156	238
157	37
159	23
163	22
165	42
166	84
167	125
168	404
169	471
170	326
171	1151
172	131
173	22
177	20
179	34
180	63
181	121
182	204
183	314
184	156
185	94
186	33
187	55
191	15
193	28
194	57
195	142
196	147
197	306
198	56
199	43
207	25
208	53
209	60
210	159
211	214
212	40
213	25
221	14
222	52
223	45
224	92
225	148
226	32
227	26
236	48
237	41
238	65
239	118
240	26
241	30
250	41
251	32
252	51
253	99
254	20
264	38
265	29
266	44
267	83
268	20
269	14
278	43
279	34
280	58
281	68
282	24
283	23
292	56
293	26
294	50
295	65
296	23
297	22
306	98
307	43
308	945
309	486
310	105
311	72
312	34
321	18
322	64
323	212
324	71
325	43
326	114
327	32
334	112
335	78
336	2861
337	2846
338	633
339	89
340	141
341	44
348	25
349	60
350	215
351	853
352	313
353	201
354	59
363	39
364	136
365	178
366	87
367	108
368	43
369	41
377	21
378	122
379	158
380	54
381	18
392	131
393	194
394	60
395	17
406	113
407	195
408	70
409	17
420	92
421	200
422	64
423	15
434	123
435	314
436	111
437	24
448	51
449	380
450	132
451	29
460	41
461	37
462	114
463	154
464	219
465	76
466	15
