Mass Spectrum: Anthracene, 9-(2-nitroethenyl)-
Formula: C16 H11 N O2
CAS: 58349-77-2
Molecular weight: 249
Origin: J.E. WILKINSON S-CUBED, SAN DIEGO, CA.
m/z	RELATIVE INTENSITY
63	60
74	47
75	245
87	230
88	1174
99	29
100	1397
101	3228
150	295
151	98
152	73
163	40
165	90
174	138
175	107
176	401
177	7
178	390
189	226
190	2
199	7
200	1374
201	970
202	9999
203	2935
204	223
249	2099
250	188
