Mass Spectrum: 2-Pentanol, formate
Formula: C6 H12 O2
CAS: 58368-66-4
Molecular weight: 116
Origin: A.QUAYLE SHELL LTD., THORNTON RES. CENT., CHESTER, CHES., UK
m/z	RELATIVE INTENSITY
27	1459
29	1592
31	1658
39	1144
41	2321
42	2189
43	3814
44	1061
45	9999
55	5555
59	3847
70	6069
71	1824
73	2802
87	995
101	364
