Mass Spectrum: Chloropropylate
Formula: C17 H16 Cl2 O3
CAS: 5836-10-2
Molecular weight: 338
Origin: MASS SPECTROMETRY CENTER, UNIV. OF UTAH EPA-PTSEL 1440
m/z	RELATIVE INTENSITY
26	79
27	587
32	2
36	23
38	113
39	368
40	85
41	732
43	2223
50	10
51	509
53	133
62	91
63	143
73	81
74	222
75	1404
76	711
77	431
85	136
87	142
89	33
90	169
99	117
104	431
105	196
111	3616
112	337
113	1210
114	53
125	11
127	25
138	75
139	8555
140	740
141	2770
142	255
149	83
150	132
151	162
152	485
153	151
163	168
164	90
181	7
186	105
199	144
215	151
216	207
217	87
251	9999
252	1753
253	7457
254	1097
255	1274
256	184
