Mass Spectrum: 3,4-Dimethylcyclopentanone
Formula: C7 H12 O
CAS: 58372-16-0
Molecular weight: 112
Origin: NIST Mass Spectrometry Data Center, 1990.
m/z	RELATIVE INTENSITY
14	108
15	270
16	17
26	208
27	1360
28	358
29	559
37	122
38	383
39	2845
40	740
41	4340
42	9999
43	792
50	162
51	265
52	105
53	434
54	202
55	2163
56	382
62	46
63	62
65	80
66	47
67	199
68	46
69	4838
70	2680
71	155
79	80
83	273
84	76
97	116
112	2193
113	165
