Mass Spectrum: Benzene, 1-bromo-2,4-dinitro-
Formula: C6 H3 Br N2 O4
CAS: 584-48-5
Molecular weight: 246
Origin: NIST Mass Spectrometry Data Center, 2009
m/z	RELATIVE INTENSITY
16	10
25	10
26	30
27	30
28	110
30	4404
31	20
32	10
36	40
37	410
38	490
39	120
40	20
41	40
42	10
44	20
45	50
46	340
47	10
48	30
49	280
50	711
51	330
52	220
53	370
54	40
55	20
60	80
61	571
62	981
63	3633
64	440
65	160
66	80
67	30
68	20
69	30
72	50
73	971
74	6356
75	9999
76	1381
77	330
78	50
79	881
80	140
81	90
82	40
83	10
86	60
87	130
88	150
89	70
90	310
91	460
92	60
93	180
94	10
95	30
103	10
104	270
105	80
106	160
107	1902
108	160
109	50
115	20
116	90
117	220
118	120
119	220
120	50
121	30
122	10
123	50
128	410
129	160
130	470
131	210
132	80
133	140
134	20
135	90
136	10
137	10
139	10
140	10
141	70
142	230
143	150
144	230
145	90
146	20
147	10
152	60
153	2352
154	3053
155	2532
156	2813
157	270
158	110
159	30
160	100
161	10
162	20
167	80
168	40
169	60
170	1011
171	220
172	981
173	150
174	20
183	20
184	80
185	70
186	120
187	60
188	40
199	40
200	440
201	70
202	460
203	30
216	601
217	50
218	621
219	50
230	120
231	10
232	130
233	10
234	10
244	10
246	4444
247	350
248	4304
249	310
250	50
