Mass Spectrum: 1,2-Butanediol
Formula: C4 H10 O2
CAS: 584-03-2
Molecular weight: 90
Origin: Japan AIST/NIMC Database- Spectrum MS-NW-4362
m/z	RELATIVE INTENSITY
14	40
15	419
17	20
18	99
19	90
25	20
26	189
27	909
28	139
29	749
30	80
31	5409
32	99
33	109
37	40
38	70
39	519
40	90
41	2509
42	229
43	1949
44	269
45	179
47	40
49	10
50	30
51	20
53	50
54	20
55	149
56	30
57	559
58	1029
59	9999
60	409
61	2279
62	60
63	10
69	10
71	60
72	80
73	20
75	20
87	20
88	10
89	30
