Mass Spectrum: Propanedioic acid, (phenylmethylene)-
Formula: C10 H8 O4
CAS: 584-45-2
Molecular weight: 192
m/z	RELATIVE INTENSITY
38	1155
39	3133
45	2777
50	4844
51	9732
52	2266
53	1733
59	511
61	644
62	1400
63	2244
64	667
65	1511
69	1911
73	511
74	2866
75	3400
76	3266
77	9999
78	4066
79	1311
87	644
89	2000
90	4711
91	2955
92	467
94	422
98	533
101	1422
102	6733
103	5333
104	644
105	711
106	933
107	933
118	6888
119	1155
120	489
129	1489
130	1489
131	1267
146	6822
147	2511
148	733
173	2689
174	9599
175	1733
191	600
192	2133
