Mass Spectrum: 2-Bromovaleric acid
Formula: C5 H9 Br O2
CAS: 584-93-0
Molecular weight: 180
Origin: Japan AIST/NIMC Database- Spectrum MS-NW-1315
m/z	RELATIVE INTENSITY
12	10
13	10
14	50
15	239
16	20
17	10
18	30
25	50
26	869
27	5489
28	959
29	4269
30	119
31	449
32	129
35	10
36	149
37	129
38	299
39	2499
40	379
41	4799
42	329
43	1639
44	479
45	1349
46	60
47	30
49	60
50	229
51	289
52	109
53	769
54	569
55	8739
56	1279
57	969
58	289
59	1289
60	809
61	30
62	10
63	10
65	10
66	10
67	20
68	139
69	70
70	20
71	259
72	159
73	2239
74	239
75	30
76	10
77	20
79	139
80	299
81	129
82	389
83	1549
84	239
85	209
86	80
87	40
91	20
92	20
93	60
94	169
95	60
96	70
97	10
98	10
99	189
100	569
101	3889
102	239
103	20
105	50
106	149
107	269
108	139
109	229
111	20
117	10
119	50
120	469
121	70
122	469
123	60
125	30
133	50
135	249
136	30
137	209
138	9999
139	229
140	9739
141	219
142	40
151	129
152	10
153	119
158	50
163	159
164	20
165	169
166	10
