Mass Spectrum: 2-Oxazolidinethione
Formula: C3 H5 N O S
CAS: 5840-81-3
Molecular weight: 103
Origin: R.SELF FOOD RESEARCH INSTITUTE, NORWICH, UK
m/z	RELATIVE INTENSITY
29	836
30	390
31	3696
32	76
33	113
34	189
38	133
39	92
40	617
41	6016
42	1493
43	693
44	258
45	600
46	391
47	201
48	32
51	89
52	121
54	31
72	554
73	1476
74	133
75	86
76	263
78	66
103	9999
104	510
105	491
