Mass Spectrum: 3-Methyl-2,5-oxazolidine-dione
Formula: C4 H5 N O3
CAS: 5840-76-6
Molecular weight: 115
Origin: James Little,Eastman Chem.Co.,Kingsport,TN
m/z	RELATIVE INTENSITY
27	1912
28	5005
29	951
35	1251
40	2122
41	3363
42	9999
43	9529
44	2682
51	120
54	230
55	360
56	1001
57	200
60	100
67	100
69	120
70	90
71	2732
72	120
76	80
81	80
83	70
91	140
97	70
104	80
115	8668
116	490
117	110
