Mass Spectrum: Benzene, 1-nitro-2-(phenylmethyl)-
Formula: C13 H11 N O2
CAS: 5840-40-4
Molecular weight: 213
m/z	RELATIVE INTENSITY
50	700
51	1400
52	400
53	100
55	200
62	300
63	1300
64	400
65	1300
66	200
74	400
75	400
76	600
77	2400
78	500
79	900
80	200
81	200
82	1100
83	600
86	200
87	300
88	200
89	800
90	300
91	800
92	1300
93	200
94	100
98	100
101	100
102	300
103	100
104	100
105	1500
106	200
107	100
108	100
113	200
114	100
115	700
116	200
119	100
120	200
125	200
126	400
127	600
128	200
129	100
135	500
136	100
137	100
138	100
139	1100
140	400
141	500
142	100
150	100
151	400
152	1100
153	500
154	200
155	100
156	100
162	100
163	700
164	700
165	5899
166	2000
167	3700
168	1500
169	300
170	100
177	100
178	300
179	2000
180	900
181	400
182	100
183	200
184	200
185	200
192	100
194	200
195	1700
196	9999
197	1600
198	200
212	1500
213	2300
214	400
215	100
