Mass Spectrum: Benzene, 1-nitro-3-(phenylmethyl)-
Formula: C13 H11 N O2
CAS: 5840-41-5
Molecular weight: 213
m/z	RELATIVE INTENSITY
38	190
39	823
41	190
50	380
51	664
52	158
62	253
63	854
64	253
65	886
74	348
75	253
76	380
77	1044
78	316
89	728
90	411
91	2183
92	253
102	221
105	253
107	728
113	221
115	791
116	221
126	63
127	221
128	570
129	158
139	570
140	158
141	285
151	253
152	2088
153	506
163	380
164	443
165	5885
166	4019
167	1867
168	506
178	316
179	253
182	190
183	380
195	253
196	1867
197	316
212	221
213	9999
214	1234
215	221
