Mass Spectrum: Ethaneperoxoic acid, 1-cyano-1-[2-(2-phenyl-1,3-dioxolan-2-yl)ethyl]pentyl ester
Formula: C19 H25 N O5
CAS: 58422-92-7
Molecular weight: 347
Origin: JACSAT, 99(5)1536(1977); D. S. WATT ET AL.
m/z	RELATIVE INTENSITY
105	2800
149	9999
150	1000
151	200
159	100
161	100
185	200
205	200
210	100
