Mass Spectrum: 2-(Diisopropylamino)ethanethiol
Formula: C8 H19 N S
CAS: 5842-07-9
Molecular weight: 161
Origin: VERIFIN - Methodology B2-1980
m/z	RELATIVE INTENSITY
27	500
28	300
30	1000
32	100
39	300
41	1201
42	1101
43	1301
44	4103
45	300
47	50
54	70
55	60
56	600
58	700
59	500
60	400
61	900
68	80
70	900
71	50
72	2702
73	200
84	200
86	2702
87	100
101	100
104	60
114	9999
115	500
118	200
128	200
144	60
146	500
161	200
