Mass Spectrum: Ethaneperoxoic acid, 1-cyano-1-(2-methylphenyl)ethyl ester
Formula: C12 H13 N O3
CAS: 58422-67-6
Molecular weight: 219
Origin: JACSAT, 99(5)1536(1977); D. S. WATT ET AL.
m/z	RELATIVE INTENSITY
130	9999
131	1300
132	3100
134	600
144	2600
145	4400
146	500
147	100
148	100
149	400
160	100
161	100
175	100
176	100
191	100
