Mass Spectrum: Diethyl methyl-isopropylmalonate
Formula: C11 H20 O4
CAS: 58447-69-1
Molecular weight: 216
Origin: NIST Mass Spectrometry Data Center, 1994
m/z	RELATIVE INTENSITY
12	31
14	87
15	520
16	35
17	22
18	30
19	88
26	469
27	4489
28	1046
29	9999
30	358
31	263
39	1263
41	3288
42	392
43	2795
44	168
45	1113
46	45
47	45
50	38
51	103
53	588
54	342
55	2369
56	633
57	1137
58	38
59	1658
60	87
65	49
66	23
67	299
68	23
69	2041
70	228
71	476
72	773
73	549
74	107
79	17
81	51
82	378
83	1892
84	227
85	246
86	17
87	2713
88	172
89	28
95	73
96	738
97	1243
98	332
99	677
100	3369
101	2119
102	262
110	523
111	34
113	212
114	140
115	324
116	39
128	4094
129	2013
130	184
131	23
142	406
143	1076
144	238
145	61
146	271
147	34
155	86
157	177
171	1109
172	117
174	4207
175	405
176	55
