Mass Spectrum: Thiazesim
Formula: C19 H22 N2 O S
CAS: 5845-26-1
Molecular weight: 326
m/z	RELATIVE INTENSITY
41	354
42	1645
43	797
44	557
55	316
56	1013
57	1063
58	4999
59	2101
65	506
70	506
71	9999
72	499
77	886
91	797
103	1114
104	1063
109	861
131	1114
136	886
149	165
150	152
151	278
178	114
179	127
223	190
236	127
255	76
282	76
326	127
