Mass Spectrum: 3-Benzyloxy-4-methoxybenzoic acid
Formula: C15 H14 O4
CAS: 58452-00-9
Molecular weight: 258
Origin: NIST Mass Spectrometry Data Center, 1994
m/z	RELATIVE INTENSITY
15	25
16	36
26	60
38	109
39	638
40	118
41	208
45	18
50	300
51	835
52	193
53	218
54	33
55	104
62	162
63	474
64	138
65	1421
66	97
67	90
68	197
69	92
75	60
76	90
77	320
78	73
79	454
80	64
81	142
82	41
83	46
89	226
91	9999
92	749
93	126
95	69
96	193
97	33
105	55
107	41
109	48
111	175
115	49
119	123
120	49
121	110
122	53
139	45
150	61
151	48
152	57
153	65
163	70
164	94
165	338
166	156
167	71
168	40
203	49
210	140
211	73
241	49
258	1464
259	245
260	18
