Mass Spectrum: Benzophenone, 2,5-diamino-2'-chloro-
Formula: C13 H11 Cl N2 O
CAS: 58479-51-9
Molecular weight: 246
Origin: A.I. Gren, Phys.-Chem. Inst., Acad. Sci. Ukraine, Odessa, Ukraine
m/z	RELATIVE INTENSITY
50	300
51	570
52	870
53	930
54	390
69	1870
75	730
76	220
77	410
78	310
79	670
80	1200
81	170
85	870
86	100
90	350
91	490
105	430
106	800
107	2730
108	250
111	1130
112	150
113	390
119	500
131	480
135	1130
136	120
139	1000
140	170
141	360
166	310
167	240
169	670
181	670
182	730
183	290
193	370
194	210
195	190
210	1200
211	4200
212	730
217	210
219	290
229	320
230	50
231	270
232	30
245	2670
246	9999
247	2070
248	2800
249	470
