Mass Spectrum: Silane, chloro(1,1-dimethylethyl)diphenyl-
Formula: C16 H19 Cl Si
CAS: 58479-61-1
Molecular weight: 274
Origin: Japan AIST/NIMC Database- Spectrum MS-NW-7372
m/z	RELATIVE INTENSITY
27	80
28	70
29	219
39	159
40	20
41	309
42	20
43	20
45	10
50	80
51	309
52	50
53	199
54	20
55	20
56	30
57	219
58	10
63	1449
64	70
65	549
66	30
67	20
74	20
75	30
76	30
77	219
78	90
79	99
80	10
81	10
88	20
89	40
90	10
91	129
92	10
93	40
95	10
101	20
102	30
103	129
104	30
105	299
106	40
107	20
113	20
114	10
115	70
116	10
117	20
119	30
121	20
126	20
127	30
128	30
129	129
130	10
131	20
135	40
139	199
140	419
141	229
142	169
143	60
144	10
145	10
150	10
151	40
152	249
153	109
154	60
155	509
156	80
157	90
158	10
159	10
165	99
166	20
167	40
177	10
178	10
179	70
180	329
181	1189
182	239
183	90
184	10
189	20
191	20
193	10
195	30
196	10
197	20
199	129
200	30
201	10
214	10
215	289
216	80
217	9999
218	1849
219	3689
220	649
221	169
222	20
223	10
231	20
237	30
238	10
239	70
240	20
259	10
273	10
274	169
275	40
276	70
277	20
