Mass Spectrum: Propanoic acid, 2-hydroxy-, 2-methylpropyl ester
Formula: C7 H14 O3
CAS: 585-24-0
Molecular weight: 146
Origin: Japan AIST/NIMC Database- Spectrum MS-NW- 918
m/z	RELATIVE INTENSITY
14	20
15	189
17	20
18	70
26	80
27	849
28	239
29	1779
30	70
31	309
32	20
33	119
37	20
38	40
39	519
40	80
41	2419
42	299
43	1059
44	229
45	9999
46	219
47	30
50	10
51	10
53	40
54	10
55	279
56	1099
57	4039
58	159
59	339
60	60
61	10
63	30
71	30
72	40
73	219
74	50
75	669
76	30
85	159
86	10
87	20
89	20
90	60
91	109
101	10
102	30
103	10
