Mass Spectrum: Ethanone, 1-(3-methylphenyl)-
Formula: C9 H10 O
CAS: 585-74-0
Molecular weight: 134
Origin: Japan AIST/NIMC Database- Spectrum MS-NW-3400
m/z	RELATIVE INTENSITY
14	30
15	189
18	30
26	40
27	149
28	10
29	10
37	80
38	179
39	999
40	80
41	239
42	60
43	1169
44	40
45	80
49	40
50	349
51	589
52	129
53	90
55	10
58	10
59	60
60	10
61	129
62	339
63	849
64	229
65	1889
66	119
69	10
73	30
74	149
75	99
76	70
77	249
78	70
79	70
84	10
85	50
86	90
87	70
88	20
89	699
90	379
91	8089
92	699
93	30
98	10
102	30
103	90
104	30
105	99
106	10
115	80
116	40
117	90
118	90
119	9999
120	899
121	50
131	20
132	50
133	90
134	3719
135	369
136	30
