Mass Spectrum: Benzene, 2-methyl-1,4-bis(1-methylethyl)-
Formula: C13 H20
CAS: 58502-85-5
Molecular weight: 176
Origin: NIST Mass Spectrometry Data Center, 1990.
m/z	RELATIVE INTENSITY
14	82
15	212
27	587
28	61
29	240
39	769
40	145
41	1255
42	61
43	1114
50	152
51	511
52	162
53	323
55	211
58	79
62	77
63	409
64	278
65	715
66	94
67	61
69	107
71	507
72	262
73	171
74	68
75	126
76	150
77	1061
78	366
79	450
89	266
91	2215
92	212
93	335
102	187
103	431
104	241
105	2270
106	243
107	95
115	1565
116	582
117	1186
118	95
119	3230
120	317
121	92
127	262
128	776
129	582
130	368
131	903
132	267
133	2161
134	250
141	120
143	70
145	522
146	400
147	169
159	109
161	9999
162	1407
163	95
176	2276
177	336
