Mass Spectrum: 3-Aminobutyric acid, 2TMS derivative
Formula: C10 H25 N O2 Si2
CAS: 58521-54-3
Molecular weight: 247
Origin: A.Pleshkova, Nesmeyanov Inst.Org.Elem.Cpds, Moscow
m/z	RELATIVE INTENSITY
44	2192
45	2582
46	130
47	100
59	1752
60	120
61	70
73	8518
74	731
75	2132
76	170
77	80
88	530
89	50
100	3413
101	250
102	120
116	9999
117	1111
118	370
119	20
130	320
147	1081
148	170
149	80
150	20
188	250
189	120
232	480
233	100
234	50
247	170
248	30
249	20
