Mass Spectrum: 2,4,6-Trifluorobenzaldehyde
Formula: C7 H3 F3 O
CAS: 58551-83-0
Molecular weight: 160
Origin: NIST Mass Spectrometry Data Center, 1994
m/z	RELATIVE INTENSITY
12	67
13	27
16	26
17	30
18	46
19	51
20	77
24	19
25	47
26	22
29	3026
31	2618
36	168
37	885
38	374
39	47
43	17
44	147
48	74
49	282
50	607
51	281
55	193
56	537
57	733
58	27
60	158
61	1542
62	1700
63	1733
64	107
65	27
66	372
67	27
68	991
69	239
70	39
71	93
72	37
73	213
74	620
75	1041
76	39
77	22
78	22
79	349
80	829
81	5525
82	503
84	34
85	65
86	293
87	297
88	348
89	17
91	43
92	519
93	352
94	100
95	21
98	69
99	535
100	103
101	369
102	24
103	32
104	34
105	72
106	201
110	73
111	270
112	1208
113	253
123	40
125	56
128	78
131	4760
132	1279
133	80
140	51
141	24
143	59
144	31
159	9999
160	6788
161	543
162	32
