Mass Spectrum: cis-.alpha.-Copaene-8-ol
Formula: C15 H24 O
CAS: 58569-25-8
Molecular weight: 220
Origin: J.TASKINEN, RES. LAB. STATE ALCOHOL MONOP., HELSINKI
m/z	RELATIVE INTENSITY
41	2200
43	1200
55	1400
77	1600
79	1500
81	1000
91	3300
92	1300
93	2300
105	5000
106	1400
107	1900
109	1500
117	1800
119	9999
120	2500
121	1500
132	3600
133	3100
134	1400
145	5900
146	1200
159	8500
160	4500
177	500
187	600
202	1000
220	1000
