Mass Spectrum: Dihydro-cis-.alpha.-copaene-8-ol
Formula: C15 H26 O
CAS: 58569-27-0
Molecular weight: 222
Origin: J.TASKINEN, RES. LAB. STATE ALCOHOL MONOP., HELSINKI, FINLAN
m/z	RELATIVE INTENSITY
41	6500
43	4000
55	4500
69	4000
81	5400
93	4200
95	4800
105	7000
119	3000
133	2400
149	2800
161	9999
189	3300
204	3500
222	100
