Mass Spectrum: 1-Butanol, 2-amino-, (S)-
Formula: C4 H11 N O
CAS: 5856-62-2
Molecular weight: 89
Origin: Japan AIST/NIMC Database- Spectrum MS-NW-6037
m/z	RELATIVE INTENSITY
14	30
15	369
16	10
17	30
18	109
25	10
26	119
27	459
28	1019
29	319
30	1609
31	369
32	20
37	20
38	50
39	299
40	80
41	2669
42	1559
43	829
44	219
45	20
46	20
50	20
51	30
52	50
53	70
54	129
55	70
56	529
57	179
58	9999
59	459
60	1899
61	50
67	10
68	20
69	20
70	179
71	90
72	40
85	20
86	10
88	20
89	10
90	10
