Mass Spectrum: R(-)-2-Amino-1-butanol
Formula: C4 H11 N O
CAS: 5856-63-3
Molecular weight: 89
Origin: Chuck Anderson, Aldrich Chemical Co.
m/z	RELATIVE INTENSITY
14	15
15	283
16	9
17	25
18	516
19	10
25	7
26	114
27	535
28	1141
29	593
30	2168
31	510
32	29
33	1
36	3
37	17
38	44
39	368
40	85
41	3367
42	1709
43	1033
44	255
45	19
46	25
50	15
51	28
52	47
53	68
54	119
55	80
56	408
57	62
58	9999
59	465
60	1734
61	49
62	2
68	4
69	6
70	38
71	48
72	20
86	4
88	20
89	9
90	119
91	4
