Mass Spectrum: Diethyl 2-isothiocyanatoglutarate
Formula: C10 H15 N O4 S
CAS: 58560-28-4
Molecular weight: 245
Origin: NIST Mass Spectrometry Data Center, 1994
m/z	RELATIVE INTENSITY
4	17
14	72
15	372
16	52
26	389
27	3670
28	1676
29	9999
30	375
31	320
32	193
38	150
39	1915
40	395
41	2277
42	1306
43	823
44	399
45	1062
46	82
50	113
52	59
53	91
54	404
55	1609
56	485
57	1118
58	738
59	534
60	1475
61	669
62	47
63	215
66	148
67	339
68	405
69	249
70	686
71	769
72	1137
73	368
74	88
82	435
83	302
84	859
85	3720
86	712
87	312
88	669
89	194
95	116
96	51
98	8638
99	1034
100	895
101	337
111	4448
112	554
113	497
114	420
115	651
116	190
117	63
126	4707
127	466
128	305
129	518
130	141
131	70
138	51
139	534
140	242
141	51
142	1605
143	1299
144	261
145	71
157	1137
158	194
159	82
168	232
170	108
171	1327
172	1524
173	197
174	72
199	4144
200	1789
201	360
202	99
245	576
246	71
247	30
248	3
