Mass Spectrum: 2,2,4-Trimethyl-3-pentanone
Formula: C8 H16 O
CAS: 5857-36-3
Molecular weight: 128
Origin: NIST Mass Spectrometry Data Center, 1990.
m/z	RELATIVE INTENSITY
14	101
15	226
26	152
27	1430
28	1032
29	1568
32	137
39	1660
41	4682
42	722
43	4745
44	172
51	81
53	140
55	341
57	9999
58	445
70	1101
71	2396
72	115
85	494
128	708
