Mass Spectrum: Benzenethiol, 2,5-dichloro-
Formula: C6 H4 Cl2 S
CAS: 5858-18-4
Molecular weight: 178
Origin: Japan AIST/NIMC Database- Spectrum MS-NW-5891
m/z	RELATIVE INTENSITY
12	10
14	20
24	10
25	20
26	30
27	10
28	10
29	10
32	20
33	50
34	10
35	50
36	209
37	299
38	229
39	189
40	10
41	10
43	20
44	129
45	539
46	20
47	90
48	40
49	149
50	349
51	90
52	119
53	529
54	99
55	30
56	30
57	129
58	199
59	30
60	90
61	359
62	469
63	1049
64	80
68	99
69	1289
70	109
71	679
72	339
73	499
74	539
75	409
76	30
77	10
79	419
80	50
81	359
82	469
83	99
84	169
85	109
86	60
87	40
88	20
89	379
90	239
91	90
92	129
93	109
94	40
95	50
96	40
97	209
98	40
99	509
100	40
101	149
102	10
103	119
104	30
105	169
106	269
107	1599
108	1599
109	479
110	179
111	199
112	30
113	40
114	10
115	40
116	80
117	30
118	279
119	40
120	109
121	20
122	10
123	10
125	10
126	10
127	10
129	20
131	10
133	259
134	379
135	189
136	259
137	50
138	40
139	10
140	20
141	50
142	2569
143	5779
144	1409
145	2319
146	579
147	209
148	279
149	40
150	50
151	10
152	40
153	10
154	40
175	10
176	40
177	539
178	9999
179	1169
180	6839
181	589
182	1349
183	109
184	50
