Mass Spectrum: 4-Chloro-meta-benzenedithiol
Formula: C6 H5 Cl S2
CAS: 58593-78-5
Molecular weight: 176
Origin: Japan AIST/NIMC Database- Spectrum MS-IW- 597
m/z	RELATIVE INTENSITY
32	20
33	10
34	20
36	60
37	60
38	70
39	99
44	139
45	409
46	10
47	30
48	10
49	30
50	60
51	70
52	10
53	70
54	10
56	30
57	209
58	109
59	20
60	20
61	99
62	179
63	409
64	209
65	109
66	20
68	70
69	789
70	439
71	279
72	50
73	149
74	90
75	119
76	30
77	269
78	30
79	109
80	20
81	189
82	259
83	70
84	70
85	30
86	10
87	99
88	389
89	159
90	20
91	10
92	50
93	139
94	50
95	559
96	1069
97	799
98	99
99	239
100	90
101	159
102	20
103	40
104	10
105	99
106	109
107	349
108	1259
109	199
110	80
111	70
112	4659
113	329
114	1509
115	119
116	50
117	10
118	119
119	30
120	40
121	10
127	10
129	30
130	70
131	439
132	199
133	169
134	70
135	10
138	20
139	599
140	1019
141	2019
142	1079
143	1759
144	599
145	599
146	119
147	30
150	10
156	10
161	10
173	10
174	50
175	819
176	9999
177	1149
178	4159
179	359
180	359
181	20
182	10
