Mass Spectrum: Benzene, 1-bromo-4-(1-methylethyl)-
Formula: C9 H11 Br
CAS: 586-61-8
Molecular weight: 198
Origin: NIST Mass Spectrometry Data Center, 1992
m/z	RELATIVE INTENSITY
12	7
13	15
14	73
15	493
16	12
17	52
18	297
26	169
27	1051
28	357
29	56
32	4
36	8
37	137
38	414
39	1451
40	130
41	1003
42	54
43	119
44	19
45	17
49	178
50	1756
51	2824
52	519
53	196
54	16
55	20
58	324
59	50
60	17
61	156
62	435
63	949
64	168
65	333
66	35
73	152
74	790
75	1048
76	969
77	2737
78	1579
79	307
80	74
81	52
82	48
83	21
84	15
85	51
86	124
87	232
88	77
89	447
90	358
91	1667
92	244
95	9
97	25
98	120
99	75
101	281
102	1134
103	3001
104	9999
105	886
106	47
107	11
109	10
110	10
113	25
115	455
116	132
117	360
118	248
119	1836
120	185
121	16
128	10
129	30
130	16
131	29
141	11
143	35
145	25
154	14
155	64
156	112
157	98
158	108
159	22
169	228
170	40
171	221
172	19
180	18
183	7312
184	1279
185	7291
186	646
187	27
196	10
198	2521
199	448
200	2624
201	266
202	9
