Mass Spectrum: Benzoic acid, 3-methoxy-
Formula: C8 H8 O3
CAS: 586-38-9
Molecular weight: 152
Origin: Japan AIST/NIMC Database- Spectrum MS-NW-6184
m/z	RELATIVE INTENSITY
14	50
15	159
16	20
25	10
26	50
27	279
28	60
29	119
30	10
31	60
32	10
36	10
37	169
38	449
39	679
40	30
41	40
42	30
43	40
44	129
45	199
46	10
49	70
50	539
51	389
52	139
53	509
54	40
55	99
56	10
57	20
59	10
60	20
61	119
62	269
63	989
64	899
65	1009
66	129
67	60
68	20
69	60
71	10
72	10
73	70
74	249
75	249
76	379
77	1619
78	399
79	459
80	60
81	1119
82	90
83	10
84	10
85	10
89	10
90	10
91	70
92	989
93	189
94	109
95	90
96	30
97	10
98	10
99	10
101	10
103	40
104	119
105	1199
106	179
107	1579
108	199
109	309
110	30
111	10
115	10
119	109
120	70
121	139
122	399
123	99
124	50
125	10
133	70
134	50
135	3299
136	319
137	289
138	30
139	10
149	20
150	30
151	469
152	9999
153	909
154	109
155	10
