Mass Spectrum: Dyclonine
Formula: C18 H27 N O2
CAS: 586-60-7
Molecular weight: 289
Origin: J.T. CLERC, ORGANIC CHEM. LAB., ETH, ZURICH, SWITZ.
m/z	RELATIVE INTENSITY
26	10
27	547
28	1174
29	1443
30	368
34	10
35	682
38	279
39	458
40	55
41	951
42	368
43	368
44	637
50	55
51	55
53	55
54	10
55	951
56	771
57	1130
63	99
64	144
65	637
66	55
70	144
75	55
76	144
77	55
84	1846
85	1040
86	55
91	368
92	279
93	547
94	99
97	55
98	144
103	189
104	99
119	189
120	592
121	9999
122	771
123	99
131	55
147	144
148	2787
149	458
150	55
161	55
177	547
178	55
204	4131
205	682
206	99
289	55
