Mass Spectrum: Benzene, 1-ethenyl-3-nitro-
Formula: C8 H7 N O2
CAS: 586-39-0
Molecular weight: 149
Origin: NIST Mass Spectrometry Data Center, 1994
m/z	RELATIVE INTENSITY
14	7
15	44
16	87
17	15
26	479
27	823
28	51
29	7
30	3073
31	34
37	385
38	764
39	1573
40	266
41	246
42	46
43	79
44	39
45	34
46	924
50	3208
51	6075
52	950
53	427
54	130
55	285
56	22
61	405
62	937
63	1802
64	398
65	2408
66	2514
67	697
68	177
69	42
73	295
74	1565
75	1419
76	2262
77	9999
78	1327
79	253
80	86
81	100
83	36
84	26
85	82
86	139
87	205
88	26
89	662
90	26
91	5843
92	1008
93	629
94	547
95	79
96	206
97	66
98	222
99	62
102	6550
103	2546
104	1033
105	589
106	128
116	59
118	274
119	418
120	337
121	167
122	43
132	1599
133	193
149	5039
150	480
151	36
