Mass Spectrum: 4-Pyridinemethanol
Formula: C6 H7 N O
CAS: 586-95-8
Molecular weight: 109
Origin: NIST Mass Spectrometry Data Center, 1994
m/z	RELATIVE INTENSITY
15	51
17	25
18	20
25	123
26	734
27	1376
28	20
29	1074
30	201
31	1251
36	71
37	431
38	693
39	1773
40	196
41	228
42	121
43	54
44	3
49	391
50	2075
51	3330
52	2118
53	2766
54	804
55	300
56	84
60	34
61	180
62	264
63	679
64	617
65	688
66	102
67	40
68	82
70	46
74	36
75	163
76	125
77	34
78	1401
79	1138
80	8353
81	1067
82	108
91	451
92	213
93	42
106	218
108	7554
109	9999
110	704
111	49
