Mass Spectrum: Cyclohexene, 3-methyl-6-(1-methylethylidene)-
Formula: C10 H16
CAS: 586-63-0
Molecular weight: 136
Origin: NIST Mass Spectrometry Data Center
m/z	RELATIVE INTENSITY
27	400
29	260
30	10
37	20
38	110
39	1922
40	410
41	2052
42	160
43	1431
44	50
50	240
51	891
52	400
53	1461
54	150
55	891
56	50
57	70
58	180
61	40
62	140
63	450
64	130
65	1301
66	340
67	2172
68	540
69	150
74	70
75	90
76	90
77	4074
78	801
79	4334
80	611
81	390
82	40
89	150
90	30
91	4934
92	1431
93	9999
94	881
95	240
102	90
103	440
104	160
105	2472
106	611
107	2312
108	310
115	300
116	100
117	270
119	891
120	250
121	7647
122	561
123	30
133	30
134	70
135	150
136	8207
137	811
138	50
