Mass Spectrum: Ethane, 1,2-bis(isopropylthio)-
Formula: C8 H18 S2
CAS: 5865-15-6
Molecular weight: 178
m/z	RELATIVE INTENSITY
15	150
16	40
17	460
19	230
26	190
27	2853
29	350
32	190
33	80
34	220
35	530
37	70
38	110
39	1261
40	210
41	4134
42	490
43	9999
44	751
45	1281
46	420
47	6005
48	190
49	380
55	4274
56	220
57	120
58	480
59	2803
60	3423
61	9889
62	490
63	460
64	350
65	160
66	100
67	60
68	40
69	90
73	190
74	7186
75	3573
76	1842
77	360
78	290
87	210
88	170
89	6626
90	400
91	350
92	190
93	3043
94	210
95	290
101	90
102	2002
103	3713
104	510
105	240
107	320
108	270
109	40
110	30
117	150
119	40
121	150
122	30
134	30
135	1411
136	691
137	180
138	60
149	60
150	100
151	20
152	10
162	30
163	470
164	50
165	40
178	7397
179	781
180	691
181	70
182	20
