Mass Spectrum: 4H-1,2,4-Triazol-3-amine, 4-propyl-
Formula: C5 H10 N4
CAS: 58661-97-5
Molecular weight: 126
Origin: ORMSBG,10(11)946(1975); R.G.COOKS
m/z	RELATIVE INTENSITY
39	590
41	2940
42	880
43	4610
44	250
55	590
56	390
57	2250
70	590
71	490
84	8040
85	640
97	490
98	830
126	9999
127	880
