Mass Spectrum: 13,17,21-Trimethylheptatriacontane
Formula: C40 H82
CAS: 58668-40-9
Molecular weight: 562
Origin: J. Klune, Insect Chem. Ecol. Lab., USDA, Beltsville, MD 20705
m/z	RELATIVE INTENSITY
41	2322
42	925
43	6746
44	289
47	9
49	45
51	22
53	95
54	279
55	3748
56	3160
57	9999
59	8
65	15
66	25
67	346
68	448
69	2979
70	1920
71	7039
72	470
73	11
77	10
79	38
80	25
81	268
82	460
83	2005
84	1028
85	5888
86	425
87	12
91	50
92	11
93	15
94	14
95	165
96	737
97	2249
98	639
99	2260
100	168
104	8
105	19
107	6
108	6
109	81
110	205
111	1053
112	665
113	1559
114	127
119	12
123	38
124	99
125	470
126	307
127	999
128	84
133	12
137	18
138	71
139	219
140	137
141	730
142	76
147	8
151	9
152	48
153	109
154	154
155	567
156	62
165	8
166	39
167	117
168	267
169	451
170	49
180	19
181	43
182	143
183	366
184	50
194	110
195	214
196	1706
197	879
198	104
199	8
208	18
209	31
210	202
211	270
212	40
222	14
223	20
224	286
225	276
226	45
235	9
236	21
237	22
238	247
239	301
240	50
250	87
251	123
252	1223
253	747
254	131
255	12
263	17
264	21
265	40
266	816
267	1095
268	231
269	21
278	3
279	4
280	84
281	137
282	30
292	3
293	9
294	172
295	214
296	43
301	4
302	3
307	3
308	184
309	202
310	44
311	3
315	4
321	9
322	447
323	831
324	203
325	23
336	432
337	678
338	164
339	21
350	24
351	52
352	15
364	142
365	151
366	39
367	4
378	16
379	36
380	8
392	285
393	549
394	156
395	24
406	17
407	49
408	16
420	11
421	29
422	23
423	4
434	8
435	20
436	5
448	11
449	24
450	11
462	9
463	23
464	5
476	9
477	21
478	8
490	13
491	31
492	12
504	4
505	15
506	4
518	5
519	25
520	9
532	16
533	65
534	27
535	3
546	11
547	104
548	42
549	9
560	4
561	11
562	17
563	4
