Mass Spectrum: m-Ethylaniline
Formula: C8 H11 N
CAS: 587-02-0
Molecular weight: 121
Origin: NIST Mass Spectrometry Data Center, 1994
m/z	RELATIVE INTENSITY
14	71
15	452
16	22
17	26
18	42
26	239
27	818
28	791
29	147
30	166
37	125
38	416
39	1316
40	246
41	513
42	288
43	58
44	19
46	39
47	81
50	426
51	784
52	627
53	646
54	330
55	29
56	17
59	392
60	272
61	129
62	267
63	618
64	282
65	1009
66	530
67	209
68	37
73	27
74	134
75	132
76	27
77	2165
78	788
79	1422
80	692
81	59
86	41
87	36
89	265
90	136
91	832
92	329
93	1569
94	564
95	56
101	22
102	104
103	381
104	402
105	22
106	9999
107	801
108	35
116	34
117	144
118	348
119	314
120	2056
121	7604
122	662
123	29
