Mass Spectrum: Butanoic acid, heptyl ester
Formula: C11 H22 O2
CAS: 5870-93-9
Molecular weight: 186
Origin: V.G.Zaikin, Petrochem. Synth. Inst., Moscow
m/z	RELATIVE INTENSITY
26	150
27	2492
28	1021
29	2192
30	70
31	180
39	1241
40	290
41	4554
42	2382
43	8858
44	360
45	190
50	70
51	130
52	70
53	190
54	450
55	3093
56	5735
57	4384
58	360
60	891
61	490
66	40
67	120
68	550
69	2582
70	4494
71	9999
72	510
73	480
79	110
81	140
83	540
86	170
87	90
88	651
89	6916
90	410
93	70
96	130
97	310
98	3143
99	310
101	310
113	120
115	90
129	90
143	80
144	130
