Mass Spectrum: 1-Naphthalenecarbonitrile, 4-amino-
Formula: C11 H8 N2
CAS: 58728-64-6
Molecular weight: 168
Origin: MASS SPECTROMETRY CENTER, UNIV. OF UTAH ALDRICH 12243-2
m/z	RELATIVE INTENSITY
15	21
26	13
27	10
37	167
38	219
39	625
40	109
41	289
42	4
43	1
49	96
50	311
51	388
52	457
53	96
54	10
55	25
56	79
57	374
58	236
61	267
62	507
63	906
64	344
65	266
66	78
70	418
71	1248
73	51
74	319
75	298
76	300
77	273
78	93
83	124
84	1506
85	299
86	301
87	483
88	651
89	363
90	179
91	92
98	107
99	120
101	72
102	30
103	80
109	5
110	26
111	112
112	191
113	1080
114	2108
115	641
116	162
117	103
123	4
125	97
126	73
127	56
128	588
129	83
138	115
139	495
140	5410
141	2350
142	369
151	161
153	56
165	118
166	135
167	412
168	9999
169	2416
170	177
