Mass Spectrum: 3-Butanone,1-(2,3,6-trimethylphenyl)-
Formula: C13 H18 O
CAS: 58720-40-4
Molecular weight: 190
Origin: ASES Database, Dalian Institute, P.R. China
m/z	RELATIVE INTENSITY
41	710
43	3323
51	400
53	390
65	400
77	880
91	1801
105	1201
115	1301
117	2492
119	2212
120	1000
131	990
132	9999
133	8207
147	2512
157	5484
158	700
172	6676
173	990
190	1191
