Mass Spectrum: Oxaziridine, 2-methyl-3-propyl-
Formula: C5 H11 N O
CAS: 58751-77-2
Molecular weight: 101
Origin: ORMSBG,10(12)1155(1975); O. THORSTAD
m/z	RELATIVE INTENSITY
41	3800
42	9999
43	4900
57	5100
58	2900
59	1300
73	2800
86	1100
101	600
