Mass Spectrum: 1-Iodo-3,4-methylenedioxybenzene
Formula: C7 H5 I O2
CAS: 5876-51-7
Molecular weight: 248
Origin: NIST Mass Spectrometry Data Center, 1994
m/z	RELATIVE INTENSITY
4	29
13	30
14	140
25	78
26	149
27	58
28	157
29	497
30	158
31	53
32	37
36	101
37	770
38	595
39	911
40	43
41	31
42	106
48	46
49	356
50	870
51	778
52	31
53	763
54	36
60	191
61	1299
62	2860
63	5944
64	609
65	3119
66	225
73	53
74	137
75	44
76	43
77	66
78	43
79	472
80	31
90	69
91	478
92	228
93	76
120	654
121	2140
122	181
123	181
124	903
127	761
128	64
152	49
164	51
165	28
189	58
190	187
191	48
218	40
247	3393
248	9999
249	743
250	72
