Mass Spectrum: 1-Octyn-3-ol, 4-ethyl-
Formula: C10 H18 O
CAS: 5877-42-9
Molecular weight: 154
Origin: Japan AIST/NIMC Database- Spectrum MS-NW-4839
m/z	RELATIVE INTENSITY
14	10
15	40
16	10
17	50
18	159
25	10
26	109
27	919
28	109
29	1659
30	40
31	60
37	10
38	40
39	499
40	80
41	2609
42	379
43	3499
44	129
45	40
50	40
51	109
52	70
53	219
54	119
55	1369
56	1139
57	9999
58	469
59	40
62	10
63	30
64	10
65	109
66	60
67	189
68	159
69	779
70	589
71	159
72	319
73	30
74	10
77	169
78	40
79	369
80	159
81	289
82	90
83	989
84	689
85	119
86	10
87	10
88	10
91	129
92	20
93	189
94	60
95	99
96	50
97	459
98	1309
99	289
100	20
105	30
107	189
108	30
109	30
110	20
111	279
112	199
113	10
121	40
123	40
124	10
125	179
126	30
136	20
139	40
153	20
