Mass Spectrum: 5-Tridecanol
Formula: C13 H28 O
CAS: 58783-82-7
Molecular weight: 200
Origin: NIST Mass Spectrometry Data Center, 1990.
m/z	RELATIVE INTENSITY
27	902
28	532
29	1700
30	532
31	316
39	526
41	3362
42	636
43	1980
44	548
45	475
53	200
55	2395
56	579
57	2388
58	410
67	384
69	9999
70	795
71	336
81	189
83	2447
84	309
85	202
86	602
87	3737
88	230
95	88
96	138
97	380
98	130
111	119
125	212
143	1146
144	105
182	239
