Mass Spectrum: 2-Propanone, 1-methoxy-
Formula: C4 H8 O2
CAS: 5878-19-3
Molecular weight: 88
Origin: RADIAN CORP
m/z	RELATIVE INTENSITY
14	20
15	180
26	90
27	270
28	130
29	1390
30	80
31	180
32	30
33	10
37	30
38	50
39	130
40	20
41	110
42	700
43	7550
44	350
45	9999
46	250
47	30
53	30
55	20
56	20
57	200
58	3870
59	190
60	20
61	80
88	150
89	10
