Mass Spectrum: Acetamide, N-(phenylmethyl)-
Formula: C9 H11 N O
CAS: 588-46-5
Molecular weight: 149
Origin: Japan AIST/NIMC Database- Spectrum MS-NW-4228
m/z	RELATIVE INTENSITY
14	50
15	329
17	10
18	60
26	40
27	149
28	249
29	99
30	1049
31	20
32	10
37	40
38	90
39	499
40	60
41	129
42	129
43	3159
44	109
45	10
49	30
50	379
51	819
52	239
53	90
54	30
55	10
56	10
58	20
61	30
62	90
63	299
64	90
65	729
66	50
67	20
71	80
72	70
73	20
74	99
75	80
76	99
77	1179
78	619
79	1379
80	139
85	10
86	20
87	20
89	319
90	229
91	3429
92	359
93	20
102	20
103	50
104	549
105	269
106	9999
107	2269
108	179
109	40
116	10
117	10
118	80
119	20
120	10
121	10
129	10
130	60
131	70
132	60
133	20
134	70
135	20
146	20
147	60
148	429
149	8059
150	849
151	70
