Mass Spectrum: Stilbene
Formula: C14 H12
CAS: 588-59-0
Molecular weight: 180
m/z	RELATIVE INTENSITY
50	364
51	673
52	309
62	236
63	509
64	218
65	255
74	273
75	327
76	964
77	545
78	327
87	182
88	400
89	1563
90	582
102	727
103	182
115	309
125	218
126	218
127	218
139	309
150	236
151	418
152	673
153	218
165	2363
166	382
176	509
177	509
178	3363
179	5781
180	9999
181	1545
182	182
