Mass Spectrum: 3-Methoxyacetanilide
Formula: C9 H11 N O2
CAS: 588-16-9
Molecular weight: 165
Origin: M. ODA, MIN. AGRIC. CHEM. INSP. STN., TOKYO, JAPAN
m/z	RELATIVE INTENSITY
43	4000
80	800
93	2300
94	3100
95	700
122	1000
123	9999
165	6600
