Mass Spectrum: 1,2,4,7,8-Pentachlorodibenzo-p-dioxin
Formula: C12 H3 Cl5 O2
CAS: 58802-08-7
Molecular weight: 354
Origin: W. MILES, AGRIC. CAN., LAB. SERV. DIV., OTTAWA, ONT., CAN.
m/z	RELATIVE INTENSITY
50	210
63	250
74	620
84	260
85	260
87	250
97	440
108	690
113	470
115	400
122	220
131	330
132	280
133	280
143	340
145	340
147	360
158	360
177	740
178	1180
179	730
192	180
193	390
195	240
221	180
228	1700
230	1640
232	520
256	140
263	210
265	270
267	130
284	220
291	2280
293	2740
295	1340
319	680
321	860
323	410
354	6260
355	870
356	9999
357	1360
358	6430
359	860
360	2120
