Mass Spectrum: Benzene, (2-bromoethoxy)-
Formula: C8 H9 Br O
CAS: 589-10-6
Molecular weight: 200
Origin: Japan AIST/NIMC Database- Spectrum MS-NW-3602
m/z	RELATIVE INTENSITY
13	10
14	40
15	80
18	20
25	50
26	439
27	4879
28	329
29	90
30	10
31	30
32	10
36	10
37	199
38	769
39	3689
40	489
41	70
42	50
43	149
44	20
45	60
46	10
49	50
50	679
51	1639
52	139
53	129
54	30
55	359
56	10
60	30
61	119
62	319
63	949
64	549
65	4619
66	2239
67	129
68	50
73	30
74	159
75	119
76	149
77	3859
78	329
79	699
80	60
81	60
82	70
87	20
89	20
90	10
91	449
92	169
93	1079
94	9999
95	709
96	50
103	90
104	10
105	20
106	20
107	8869
108	219
109	8939
110	199
119	70
120	419
121	989
122	90
138	119
139	10
143	10
144	90
145	20
146	90
155	10
156	10
172	80
173	10
174	90
200	4969
201	459
202	4779
203	459
204	30
