Mass Spectrum: Cyclohexanone, 4-methyl-
Formula: C7 H12 O
CAS: 589-92-4
Molecular weight: 112
Origin: Japan AIST/NIMC Database- Spectrum MS-NW-3050
m/z	RELATIVE INTENSITY
14	30
15	109
17	20
18	70
26	209
27	1519
28	929
29	1279
30	30
31	20
32	20
37	40
38	119
39	1419
40	299
41	3869
42	1239
43	619
44	60
45	10
49	20
50	149
51	209
52	90
53	419
54	259
55	9999
56	3369
57	2109
58	189
59	10
61	10
62	20
63	40
65	60
66	30
67	319
68	789
69	1239
70	1999
71	129
77	40
78	20
79	509
80	40
81	129
82	30
83	2549
84	1579
85	119
86	10
91	10
93	20
94	849
95	90
96	80
97	679
98	50
111	60
112	4139
113	339
114	30
