Mass Spectrum: N-Allylaniline
Formula: C9 H11 N
CAS: 589-09-3
Molecular weight: 133
Origin: NIST Mass Spectrometry Data Center, 1990.
m/z	RELATIVE INTENSITY
14	27
15	232
17	79
18	75
26	423
27	1402
28	1152
29	183
30	598
37	345
38	1022
39	4545
40	608
41	1387
42	117
49	155
50	1637
51	4190
52	1194
53	353
54	342
55	189
56	932
59	96
61	120
62	341
63	1171
64	909
65	3059
66	789
67	98
73	111
74	467
75	322
76	729
77	6344
78	1628
79	2214
80	194
88	46
89	139
90	322
91	1372
92	1086
93	397
102	129
103	513
104	3327
105	1421
106	9999
107	791
115	713
116	548
117	2515
118	1080
119	102
128	65
130	1410
132	7109
133	8031
134	885
135	68
