Mass Spectrum: Benzenemethanol, 4-methyl-
Formula: C8 H10 O
CAS: 589-18-4
Molecular weight: 122
Origin: Japan AIST/NIMC Database- Spectrum MS-NW-3353
m/z	RELATIVE INTENSITY
14	10
15	50
18	20
26	90
27	619
28	219
29	339
30	20
31	299
32	60
37	119
38	289
39	1659
40	209
41	489
42	20
43	99
44	30
45	90
46	40
47	20
49	70
50	619
51	1369
52	379
53	469
54	30
55	99
58	10
59	70
60	559
61	159
62	369
63	919
64	229
65	1809
66	219
67	60
68	20
71	10
72	10
73	40
74	179
75	149
76	119
77	5139
78	1109
79	5869
80	419
81	40
82	10
84	20
85	50
86	90
87	80
88	20
89	479
90	199
91	5269
92	589
93	4869
94	449
95	30
96	10
97	10
98	20
101	20
102	119
103	729
104	1269
105	1849
106	279
107	9999
108	789
109	50
118	10
119	559
120	319
121	2029
122	8699
123	809
124	60
