Mass Spectrum: 1-Pentanol, 3-methyl-
Formula: C6 H14 O
CAS: 589-35-5
Molecular weight: 102
Origin: Japan AIST/NIMC Database- Spectrum MS-NW-3063
m/z	RELATIVE INTENSITY
14	10
15	119
17	30
18	109
19	10
26	109
27	1579
28	439
29	2789
30	60
31	2379
32	30
33	10
36	10
37	30
38	80
39	1109
40	179
41	5269
42	1599
43	5519
44	239
45	1189
46	319
47	30
49	10
50	70
51	90
52	40
53	299
54	199
55	6699
56	9999
57	2619
58	109
59	199
60	10
62	10
63	10
65	20
66	10
67	129
68	60
69	6169
70	489
71	439
72	70
73	119
74	30
77	10
79	10
81	20
82	10
83	229
84	1659
85	159
86	10
87	20
97	10
98	10
99	10
