Mass Spectrum: Butyl caprylate
Formula: C12 H24 O2
CAS: 589-75-3
Molecular weight: 200
Origin: V.G.Zaikin, Petrochem. Synth. Inst., Moscow
m/z	RELATIVE INTENSITY
26	150
27	1191
28	540
29	2552
30	110
31	150
38	50
39	1371
40	320
41	4884
42	1411
43	4044
44	530
45	310
51	90
53	290
54	270
55	3753
56	9999
57	8798
58	480
59	250
60	4044
61	1511
67	380
68	150
69	811
70	480
71	721
72	90
73	3053
74	350
75	70
79	100
80	50
81	180
82	310
83	851
84	731
85	781
86	120
87	881
88	120
89	390
96	80
97	420
98	450
99	150
101	1251
102	120
103	210
109	190
111	120
112	60
115	390
116	851
117	120
125	120
126	110
127	5995
128	490
129	410
143	80
144	651
145	6496
146	611
147	60
157	100
158	10
171	60
200	80
201	10
