Mass Spectrum: 2-Butenoic acid, 2-methylpropyl ester
Formula: C8 H14 O2
CAS: 589-66-2
Molecular weight: 142
Origin: James Little,Eastman Chem.Co.,Kingsport,TN
m/z	RELATIVE INTENSITY
38	981
39	8448
40	1251
41	8067
42	761
43	1301
53	190
54	60
55	370
56	2212
57	711
58	60
67	40
68	310
69	9999
70	530
71	80
73	160
85	80
86	60
87	3133
88	150
99	220
112	40
127	60
