Mass Spectrum: 3-Heptanol
Formula: C7 H16 O
CAS: 589-82-2
Molecular weight: 116
Origin: Japan AIST/NIMC Database- Spectrum MS-NW-3155
m/z	RELATIVE INTENSITY
14	10
15	80
17	20
18	80
19	30
26	80
27	979
28	209
29	1109
30	109
31	2209
32	50
38	30
39	529
40	90
41	3489
42	289
43	1139
44	289
45	809
46	10
50	20
51	40
52	10
53	109
54	50
55	799
56	579
57	809
58	799
59	9999
60	329
61	20
65	10
67	60
68	30
69	7019
70	539
71	50
72	40
73	99
83	40
84	10
85	40
86	269
87	3129
88	179
89	10
97	10
98	289
99	20
101	20
115	50
