Mass Spectrum: Cyclohexane, 1,4-dimethyl-
Formula: C8 H16
CAS: 589-90-2
Molecular weight: 112
Origin: Japan AIST/NIMC Database- Spectrum MS-NW-1092
m/z	RELATIVE INTENSITY
14	30
15	90
26	80
27	1309
28	40
29	1269
30	30
37	10
38	60
39	1449
40	269
41	3519
42	1489
43	899
44	50
46	10
50	70
51	169
52	70
53	499
54	319
55	9999
56	2449
57	719
58	30
62	10
63	40
65	90
66	40
67	419
68	219
69	1729
70	1219
71	149
77	99
78	30
79	80
80	20
81	219
82	239
83	1149
84	749
85	50
91	30
93	10
95	60
96	889
97	9779
98	769
99	20
111	119
112	3529
113	309
114	10
