Mass Spectrum: Isobutyl isovalerate
Formula: C9 H18 O2
CAS: 589-59-3
Molecular weight: 158
Origin: Japan AIST/NIMC Database- Spectrum MS-NW- 920
m/z	RELATIVE INTENSITY
14	20
15	149
17	30
18	139
26	70
27	1459
28	299
29	2629
30	60
31	199
32	90
37	20
38	70
39	1359
40	249
41	4489
42	659
43	1379
44	50
45	159
50	30
51	30
53	109
54	30
55	529
56	5159
57	9799
58	449
59	279
60	1729
61	399
62	20
68	10
69	179
70	20
71	60
72	40
73	269
74	20
83	30
84	70
85	9999
86	579
87	909
88	50
100	10
101	109
102	299
103	1639
104	99
115	289
116	299
117	20
128	119
143	20
