Mass Spectrum: Tetradecanoic acid, 2,3-dihydroxypropyl ester
Formula: C17 H34 O4
CAS: 589-68-4
Molecular weight: 302
Origin: Japan AIST/NIMC Database- Spectrum MS-IW-4153
m/z	RELATIVE INTENSITY
14	20
15	229
16	10
17	80
18	329
26	80
27	889
28	559
29	2809
30	139
31	729
32	40
33	10
38	10
39	469
40	109
41	4659
42	1329
43	8729
44	1169
45	1069
46	90
47	40
51	10
52	10
53	239
54	499
55	5919
56	2609
57	9019
58	529
59	339
60	1959
61	1489
62	60
63	20
65	40
66	50
67	1049
68	669
69	3739
70	1119
71	4209
72	319
73	2889
74	8579
75	2419
76	109
77	60
78	20
79	259
80	149
81	1159
82	609
83	2579
84	6389
85	2749
86	259
87	1969
88	219
89	149
90	10
91	109
92	10
93	599
94	179
95	1439
96	549
97	2319
98	9999
99	1119
100	159
101	599
102	159
103	149
104	20
105	10
107	179
108	109
109	859
110	359
111	1529
112	3309
113	539
114	99
115	559
116	1899
117	269
118	30
119	10
121	309
122	90
123	439
124	189
125	549
126	759
127	219
128	50
129	1989
130	229
131	50
133	10
134	6739
135	629
136	119
137	229
138	129
139	259
140	539
141	109
142	30
143	819
144	90
145	30
147	959
148	80
149	109
150	30
151	70
152	30
153	159
154	2299
155	289
156	20
157	239
158	50
159	20
161	20
163	60
164	30
166	189
167	189
168	559
169	129
170	10
171	339
172	60
173	20
175	20
176	479
177	70
178	10
179	10
180	10
181	119
182	99
183	30
184	10
185	909
186	129
187	20
189	20
190	129
191	80
192	109
193	90
194	10
195	40
196	10
199	519
200	80
201	10
203	20
204	30
208	60
209	129
210	1599
211	9089
212	1399
213	199
214	20
226	60
227	70
228	2499
229	3109
230	469
231	50
241	149
242	1569
243	279
244	30
254	10
255	40
256	10
259	20
269	10
271	2819
272	509
273	60
274	10
283	30
284	129
285	149
286	20
301	20
302	90
303	289
304	50
