Mass Spectrum: Benzenamine, 4-ethyl-
Formula: C8 H11 N
CAS: 589-16-2
Molecular weight: 121
Origin: Japan AIST/NIMC Database- Spectrum MS-NW- 449
m/z	RELATIVE INTENSITY
15	20
26	30
27	119
28	159
29	30
30	40
37	20
38	70
39	319
40	50
41	139
42	70
43	20
44	10
45	20
46	30
50	99
51	229
52	209
53	299
54	109
55	20
56	10
57	10
58	99
59	70
60	60
61	30
62	70
63	159
64	60
65	309
66	139
67	50
74	30
75	40
76	30
77	759
78	259
79	299
80	129
81	10
89	90
90	30
91	269
92	109
93	249
94	80
102	20
103	119
104	149
105	60
106	9999
107	829
108	30
116	20
117	80
118	189
119	199
120	559
121	3779
122	329
123	10
