Mass Spectrum: 1-Propanol, 2,3-dichloro-, acetate
Formula: C5 H8 Cl2 O2
CAS: 589-96-8
Molecular weight: 170
m/z	RELATIVE INTENSITY
12	10
13	40
14	150
15	1231
16	80
17	130
18	450
19	10
20	20
25	20
26	90
27	360
28	230
29	500
30	20
31	280
32	40
35	40
36	240
37	70
38	130
39	300
40	40
41	150
42	400
43	9999
44	500
45	811
46	10
47	60
48	80
49	791
50	140
51	280
52	30
53	10
55	30
56	20
57	160
58	10
59	10
60	701
61	831
62	330
63	120
64	160
65	50
66	20
71	10
73	701
74	410
75	490
76	50
77	200
78	160
79	8558
80	250
81	2752
82	80
83	40
85	30
86	350
87	60
88	20
89	50
91	60
92	80
93	30
94	20
99	100
100	20
101	20
103	380
104	20
105	20
108	10
109	20
110	180
111	30
112	120
113	20
114	20
115	20
116	100
117	10
120	30
121	1161
122	50
123	380
124	20
126	20
127	50
128	20
134	20
135	30
136	10
137	10
140	20
142	10
144	10
145	30
