Mass Spectrum: Phosphorochloridous acid, diethyl ester
Formula: C4 H10 Cl O2 P
CAS: 589-57-1
Molecular weight: 156
Origin: RADIAN CORP
m/z	RELATIVE INTENSITY
25	30
26	530
27	2110
29	3150
30	150
42	100
43	410
45	240
47	520
48	270
65	3250
68	60
76	140
83	1790
84	20
85	580
93	1390
99	300
100	9999
101	490
102	3320
103	90
111	1010
112	210
113	400
119	20
121	2020
128	1930
129	550
130	660
131	160
140	10
145	10
156	1340
157	80
158	440
159	20
