Mass Spectrum: 4-Heptanol
Formula: C7 H16 O
CAS: 589-55-9
Molecular weight: 116
Origin: Japan AIST/NIMC Database- Spectrum MS-NW-3468
m/z	RELATIVE INTENSITY
14	10
15	80
17	20
18	109
19	109
26	70
27	979
28	109
29	689
30	40
31	1109
32	20
37	20
38	40
39	539
40	90
41	1309
42	249
43	3339
44	539
45	459
46	10
50	20
51	40
52	10
53	119
54	80
55	9999
56	919
57	439
58	90
59	80
63	10
65	10
67	50
68	30
69	399
70	129
71	319
72	629
73	7139
74	339
75	20
77	10
79	10
81	20
83	30
86	60
98	199
99	20
114	50
115	50
