Mass Spectrum: Carbamic acid, hydroxy-, ethyl ester
Formula: C3 H7 N O3
CAS: 589-41-3
Molecular weight: 105
Origin: C.VOIGT, HEINRICH-HEINE-STRASSE, RODENBACH, WEST GER
m/z	RELATIVE INTENSITY
56	6000
57	1300
58	6000
59	4000
60	4100
61	9000
62	1800
71	1000
72	4800
73	9999
74	7100
89	2200
105	900
