Mass Spectrum: Hexane, 2,4-dimethyl-
Formula: C8 H18
CAS: 589-43-5
Molecular weight: 114
Origin: NIST Mass Spectrometry Data Center, 1990.
m/z	RELATIVE INTENSITY
13	11
14	2
15	234
16	4
25	17
26	200
27	2332
28	429
29	2624
30	64
32	34
37	29
38	162
39	2020
40	459
41	5670
42	1528
43	9999
44	377
45	7
50	70
51	134
52	63
53	372
54	127
55	1379
56	3501
57	8270
58	392
62	18
63	32
64	8
65	66
66	26
67	126
68	8
69	614
70	1483
71	1731
72	95
73	6
77	26
78	10
79	23
81	11
84	1313
85	5334
86	349
87	9
97	7
98	20
99	81
100	11
114	248
115	17
