Mass Spectrum: 1,4-Benzenedimethanol
Formula: C8 H10 O2
CAS: 589-29-7
Molecular weight: 138
Origin: Japan AIST/NIMC Database- Spectrum MS-NW-4695
m/z	RELATIVE INTENSITY
14	40
15	20
16	10
18	10
26	70
27	519
28	209
29	589
30	50
31	1239
32	30
36	20
37	109
38	219
39	1089
40	129
41	359
42	20
43	119
44	50
45	50
46	20
47	139
48	10
49	70
50	649
51	1369
52	429
53	559
54	40
55	179
56	10
57	20
58	10
59	50
60	189
61	99
62	239
63	609
64	149
65	839
66	129
67	80
68	119
69	20
70	10
71	10
72	10
73	50
74	229
75	159
76	169
77	4459
78	989
79	9999
80	709
81	169
82	20
83	20
84	10
85	40
86	60
87	50
88	10
89	819
90	319
91	4599
92	3159
93	449
94	60
95	30
97	10
98	10
99	10
101	10
102	80
103	429
104	709
105	279
106	80
107	9229
108	899
109	90
110	10
114	10
115	10
117	10
118	40
119	659
120	649
121	289
122	50
123	10
133	70
134	80
135	199
136	159
137	739
138	4729
139	439
140	40
