Mass Spectrum: Pent-4-yn-3-one, 2,2-dimethyl-
Formula: C7 H10 O
CAS: 5891-25-8
Molecular weight: 110
Origin: A.Pleshkova, Nesmeyanov Inst.Org.Elem.Cpds, Moscow
m/z	RELATIVE INTENSITY
27	701
29	3203
30	70
39	1101
40	200
41	4704
42	200
53	1501
54	200
55	500
56	400
57	9999
58	400
67	601
68	20
95	601
96	20
