Mass Spectrum: Chloropyramine
Formula: C16 H20 Cl N3
CAS: 59-32-5
Molecular weight: 289
Origin: NIST Mass Spectrometry Data Center, 2010
m/z	RELATIVE INTENSITY
15	20
26	10
27	30
28	50
29	40
30	170
38	10
39	80
40	20
41	40
42	430
43	130
44	90
45	60
50	40
51	210
52	190
53	40
54	20
55	20
56	180
57	190
58	9999
59	380
60	10
62	20
63	120
64	30
65	50
66	20
67	20
69	10
70	60
71	1551
72	1381
73	110
74	10
75	40
76	20
77	40
78	410
79	571
80	50
83	10
85	10
87	10
89	460
90	170
91	50
92	20
93	50
94	10
95	10
99	140
100	10
101	50
102	10
103	10
104	10
105	40
106	60
107	90
108	10
111	10
114	10
115	10
116	10
117	20
118	30
119	220
120	40
121	30
123	10
125	2853
126	220
127	931
128	80
129	10
131	10
132	10
133	10
134	10
138	10
139	20
140	70
141	10
142	20
148	10
151	10
152	30
153	10
154	20
155	10
162	30
163	20
166	10
167	20
168	10
181	10
182	10
183	30
184	10
193	10
194	10
195	20
196	10
202	10
214	10
215	20
217	150
218	200
219	410
220	110
221	110
222	20
229	10
231	280
232	40
233	90
234	10
243	10
245	30
246	10
247	10
289	70
290	10
291	20
