Mass Spectrum: Piperoxan
Formula: C14 H19 N O2
CAS: 59-39-2
Molecular weight: 233
Origin: Tox21 Consortium/NIST Mass Spectrometry Data Center, 2012
m/z	RELATIVE INTENSITY
15	10
26	20
27	70
28	100
29	70
30	60
38	20
39	180
40	30
41	771
42	520
43	160
44	190
45	10
50	60
51	100
52	250
53	90
54	100
55	510
56	110
57	30
58	10
62	10
63	40
64	30
65	80
66	10
67	50
68	110
69	180
70	240
71	10
74	10
75	10
76	10
77	120
78	30
79	50
80	130
81	180
82	80
83	40
84	60
85	10
89	10
91	50
92	20
93	10
94	30
95	10
96	230
98	9999
99	711
100	20
103	10
105	10
106	10
107	40
108	10
109	80
110	50
116	10
119	10
120	10
121	80
122	20
123	10
124	220
125	20
134	20
135	70
136	10
147	60
148	30
149	10
231	10
232	10
233	260
234	40
