Mass Spectrum: 2(3H)-Benzoxazolone
Formula: C7 H5 N O2
CAS: 59-49-4
Molecular weight: 135
Origin: Japan AIST/NIMC Database- Spectrum MS-NW-2150
m/z	RELATIVE INTENSITY
12	10
14	10
16	20
17	60
18	66
25	40
26	269
27	219
28	199
29	50
31	60
32	30
36	30
37	249
38	489
39	429
40	99
41	229
42	10
43	20
44	289
45	10
46	10
48	20
49	109
50	509
51	959
52	2969
53	379
54	50
55	10
60	20
61	109
62	199
63	729
64	1229
65	269
66	20
67	249
68	20
74	20
75	60
76	80
77	50
78	439
79	4499
80	289
81	10
90	30
91	1999
92	149
93	10
106	229
107	50
134	109
135	9999
136	809
137	70
