Mass Spectrum: 2H-Indol-2-one, 1,3-dihydro-
Formula: C8 H7 N O
CAS: 59-48-3
Molecular weight: 133
Origin: MASS SPECTROMETRY CENTER, UNIV. OF UTAH. ALDRICH O00980-8
m/z	RELATIVE INTENSITY
26	476
27	804
37	624
38	1057
39	1515
40	294
42	83
49	287
50	1974
51	3319
52	2911
53	898
54	144
61	306
62	527
63	1022
64	387
65	269
66	7
67	387
73	134
74	491
75	507
76	809
77	2330
78	6264
79	500
86	7
87	15
89	564
90	247
102	182
103	588
104	9999
105	5275
106	448
132	509
133	9300
134	898
135	7
