Mass Spectrum: 2,3-Dimercaptopropan-1-ol
Formula: C3 H8 O S2
CAS: 59-52-9
Molecular weight: 124
Origin: NIST Mass Spectrometry Data Center, 1998.
m/z	RELATIVE INTENSITY
15	40
25	20
26	140
27	680
28	20
29	1070
30	80
31	1310
32	150
33	300
34	230
35	320
36	20
37	70
38	120
39	540
40	50
41	550
42	90
43	300
44	190
45	3200
46	760
47	3160
48	490
49	200
50	20
53	50
54	30
55	270
56	90
57	4170
58	1790
59	9999
60	3400
61	1420
62	340
63	90
64	470
65	80
66	100
67	30
68	30
69	120
70	20
71	410
72	740
73	1090
74	110
75	60
76	320
77	1390
78	250
79	280
80	30
81	20
82	10
85	10
87	30
88	30
89	70
90	4970
91	340
92	470
93	1430
94	80
95	130
103	10
105	40
106	3630
107	190
108	330
109	10
110	10
124	220
125	10
126	20
