Mass Spectrum: Morpholine, 4-nitroso-
Formula: C4 H8 N2 O2
CAS: 59-89-2
Molecular weight: 116
Origin: NIST Mass Spectrometry Data Center, 1998.
m/z	RELATIVE INTENSITY
13	10
14	40
15	240
16	10
25	20
26	420
27	1240
28	3190
29	2370
30	1860
31	210
33	10
38	20
39	60
40	240
41	1080
42	1720
43	510
44	220
45	100
51	30
52	140
53	30
54	1040
55	1090
56	9999
57	590
58	50
59	30
68	10
70	10
84	10
85	140
86	4200
87	220
88	10
116	4010
117	230
118	10
