Mass Spectrum: Nitrofurazone
Formula: C6 H6 N4 O4
CAS: 59-87-0
Molecular weight: 198
Origin: RADIAN CORP
m/z	RELATIVE INTENSITY
16	40
17	20
26	130
27	50
29	30
30	600
33	40
34	30
36	30
37	350
38	820
39	420
42	30
44	4220
46	120
47	30
48	10
49	210
50	1670
51	4420
52	1150
53	260
54	1000
59	160
60	1500
62	40
63	80
64	590
65	120
66	80
70	1180
74	150
76	10
79	4190
80	960
81	980
108	1100
116	380
117	20
125	100
139	70
154	110
155	9999
156	690
181	30
182	20
198	2310
199	140
200	30
