Mass Spectrum: Butanal, 3-methyl-
Formula: C5 H10 O
CAS: 590-86-3
Molecular weight: 86
Origin: Japan AIST/NIMC Database- Spectrum MS-IW-3643
m/z	RELATIVE INTENSITY
13	10
14	70
15	419
16	10
17	10
18	50
19	20
25	20
26	279
27	4189
28	399
29	4629
30	99
31	129
32	20
36	20
37	229
38	499
39	3869
40	569
41	8979
42	2459
43	9339
44	9999
45	1959
46	70
49	60
50	249
51	239
52	60
53	569
54	60
55	619
56	359
57	3699
58	8139
59	309
60	269
61	30
62	10
63	10
65	30
66	10
67	189
68	229
69	259
70	60
71	3599
72	169
73	60
83	40
84	10
85	279
86	1169
87	119
