Mass Spectrum: 2-Pentanol, 2-methyl-
Formula: C6 H14 O
CAS: 590-36-3
Molecular weight: 102
Origin: Japan AIST/NIMC Database- Spectrum MS-IW-3853
m/z	RELATIVE INTENSITY
14	10
15	179
18	20
26	50
27	749
28	129
29	599
30	20
31	1759
32	20
33	10
37	10
38	60
39	689
40	99
41	2209
42	219
43	2219
44	80
45	4849
46	109
47	20
50	30
51	50
52	40
53	109
54	20
55	319
56	269
57	329
58	369
59	9999
60	539
61	40
62	10
63	10
65	20
67	60
68	10
69	1199
70	70
71	109
72	10
73	60
74	10
75	20
78	10
79	30
83	30
84	119
85	279
86	20
87	3759
88	209
89	10
98	10
103	10
