Mass Spectrum: 2-Methyl-3-pentyn-2-ol
Formula: C6 H10 O
CAS: 590-38-5
Molecular weight: 98
Origin: NIST Mass Spectrometry Data Center, 1990.
m/z	RELATIVE INTENSITY
15	149
26	112
27	449
29	250
31	109
37	228
38	449
39	1721
40	390
41	516
42	109
43	6089
44	173
49	92
50	485
51	653
52	303
53	696
54	131
55	445
58	95
59	132
61	181
62	283
63	505
64	128
65	525
66	205
67	399
74	120
77	797
78	150
79	931
80	1007
81	398
82	120
83	9999
84	498
