Mass Spectrum: 1-Propene, 1-bromo-
Formula: C3 H5 Br
CAS: 590-14-7
Molecular weight: 120
Origin: Japan AIST/NIMC Database- Spectrum MS-NW-2960
m/z	RELATIVE INTENSITY
13	10
14	30
15	159
25	50
26	249
27	139
28	10
29	10
36	50
37	349
38	569
39	4169
40	459
41	9999
42	329
43	10
79	70
80	40
81	70
82	40
91	10
92	20
93	70
94	20
95	50
104	10
105	40
106	20
107	40
117	10
119	60
120	1529
121	99
122	1479
123	50
