Mass Spectrum: Hexane, 2,2-dimethyl-
Formula: C8 H18
CAS: 590-73-8
Molecular weight: 114
Origin: Chuck Anderson, Aldrich Chemical Co.
m/z	RELATIVE INTENSITY
14	1
15	51
16	2
25	2
26	44
27	1024
28	198
29	1924
30	41
36	1
37	11
38	44
39	1274
40	214
41	4849
42	278
43	2574
44	84
45	5
46	9
47	7
48	5
49	4
50	48
51	121
52	44
53	332
54	71
55	1068
56	6349
57	9999
58	418
59	9
62	3
63	10
64	2
65	29
66	9
67	58
68	11
69	135
70	64
71	162
72	9
74	1
75	1
77	27
78	5
79	27
80	3
81	12
82	2
83	26
84	2
85	4
91	3
97	2
98	53
99	1387
100	96
101	2
114	10
