Mass Spectrum: 1-Propene, 1-chloro-
Formula: C3 H5 Cl
CAS: 590-21-6
Molecular weight: 76
Origin: Japan AIST/NIMC Database- Spectrum MS-NW-2848
m/z	RELATIVE INTENSITY
12	20
13	20
14	40
15	149
24	20
25	80
26	339
27	519
28	139
29	20
35	80
36	199
37	669
38	919
39	6109
40	1369
41	9999
42	329
43	99
44	30
47	129
48	129
49	549
50	50
51	159
58	20
60	80
61	219
62	40
63	70
71	20
72	50
73	179
74	50
75	669
76	4249
77	339
78	1379
79	50
