Mass Spectrum: Acetic acid, chloro-, butyl ester
Formula: C6 H11 Cl O2
CAS: 590-02-3
Molecular weight: 150
Origin: Japan AIST/NIMC Database- Spectrum MS-NW-2174
m/z	RELATIVE INTENSITY
13	30
14	179
15	219
17	20
18	70
25	10
26	199
27	1659
28	919
29	5529
30	119
31	389
32	20
33	10
35	20
36	70
37	30
38	70
39	909
40	199
41	6829
42	1029
43	1089
44	139
45	80
47	30
48	90
49	1549
50	90
51	519
52	20
53	80
54	80
55	1309
56	9999
57	8599
58	379
59	50
60	169
61	30
69	70
71	369
72	70
73	149
74	10
76	159
77	4289
78	149
79	1319
80	30
83	20
91	10
94	60
95	589
96	30
97	179
101	40
107	639
108	50
109	209
110	10
115	30
120	10
121	99
122	10
123	30
