Mass Spectrum: 1,3-Butanediamine
Formula: C4 H12 N2
CAS: 590-88-5
Molecular weight: 88
Origin: G. LUNN,ENVIRON. CONTROL,NATL. CANCER INST.,FREDERICK,MD.,USA
m/z	RELATIVE INTENSITY
44	9999
45	1004
46	37
50	24
51	34
52	39
53	76
54	223
55	136
56	4641
57	419
58	1143
59	143
60	9
65	12
66	12
67	87
68	86
69	94
70	1962
71	7618
72	498
73	121
86	9
87	14
