Mass Spectrum: Propanoic acid, butyl ester
Formula: C7 H14 O2
CAS: 590-01-2
Molecular weight: 130
Origin: Japan AIST/NIMC Database- Spectrum MS-NW- 903
m/z	RELATIVE INTENSITY
14	10
15	60
18	40
26	189
27	1339
28	699
29	4829
30	119
31	299
32	10
38	20
39	399
40	80
41	1889
42	109
43	319
44	30
45	30
51	20
53	40
54	30
55	659
56	3709
57	9999
58	359
59	30
71	269
72	40
73	149
74	279
75	2799
76	99
77	10
87	709
88	40
89	10
100	40
101	99
