Mass Spectrum: Cyclododecyl isothiocyanate
Formula: C13 H23 N S
CAS: 59037-64-8
Molecular weight: 225
Origin: NIST Mass Spectrometry Data Center, 1994
m/z	RELATIVE INTENSITY
15	133
27	2431
28	461
29	3739
30	184
39	3035
41	9999
42	1241
43	3611
44	234
45	145
50	37
51	172
52	136
53	1251
54	1387
55	9420
56	928
57	2411
58	555
59	325
60	326
62	42
63	48
64	33
65	280
66	33
67	2717
68	865
69	6140
70	586
71	1221
72	1029
73	82
74	31
75	47
77	229
78	153
79	486
80	255
81	1517
82	1169
83	5065
84	509
85	1677
86	472
87	159
88	41
91	101
93	140
94	146
95	839
96	975
97	5377
98	920
99	218
100	139
101	102
105	35
107	46
108	123
109	505
110	359
111	2717
112	371
113	76
114	117
115	197
116	35
121	49
122	133
123	188
124	161
125	468
126	109
127	68
128	130
129	66
135	35
136	153
137	67
138	121
139	33
140	68
142	50
150	249
151	54
154	31
155	40
164	132
165	88
166	292
167	161
168	56
178	100
182	36
183	39
192	2334
193	370
224	45
225	214
226	41
