Mass Spectrum: Disulfide, methyl 1-propenyl
Formula: C4 H8 S2
CAS: 5905-47-5
Molecular weight: 120
Origin: H.NISHIMURA HOKKAIDO UNIV., SAPPORO, JAPAN
m/z	RELATIVE INTENSITY
39	4280
40	150
41	6350
42	150
43	830
44	3270
45	6650
46	650
47	1200
48	150
49	150
71	1260
72	3180
73	9999
74	1200
75	1320
79	850
80	2000
87	2250
88	520
89	430
105	1000
106	150
107	100
120	7750
121	700
122	730
