Mass Spectrum: Silanol, dimethyl-
Formula: C2 H8 O Si
CAS: 5906-76-3
Molecular weight: 76
Origin: A.A.Kutin, Moscow, Russia
m/z	RELATIVE INTENSITY
43	1771
45	5394
47	1771
59	1383
60	101
61	9999
62	615
63	340
75	8549
76	623
77	298
