Mass Spectrum: 1H-Azepin-1-amine, hexahydro-
Formula: C6 H14 N2
CAS: 5906-35-4
Molecular weight: 114
Origin: ATLAS OF MASS SPECTRA OF ORGANIC COMPOUNDS, V. A. KOPTYUG, ED.
m/z	RELATIVE INTENSITY
27	1610
29	1000
30	1220
31	290
39	1390
40	280
41	3890
42	5610
43	2280
44	5500
45	3000
46	540
53	250
54	270
55	1110
56	710
57	890
58	2890
59	2280
60	220
67	220
68	440
69	1060
70	380
71	1890
72	2830
73	640
82	160
84	140
85	5000
86	1060
87	110
96	200
97	140
98	9999
99	6440
100	90
113	2330
114	7210
115	1110
