Mass Spectrum: Docosanoic acid, ethyl ester
Formula: C24 H48 O2
CAS: 5908-87-2
Molecular weight: 368
Origin: NIST Mass Spectrometry Data Center
m/z	RELATIVE INTENSITY
26	10
27	90
28	50
29	530
30	20
38	10
39	110
40	30
41	1722
42	430
43	3593
44	110
45	330
46	10
50	10
53	100
54	200
55	2803
56	581
57	2783
58	210
59	120
60	711
61	841
62	20
65	30
66	10
67	520
68	240
69	2082
70	1611
71	1581
72	90
73	1391
74	180
75	70
78	10
79	100
80	80
81	480
82	190
83	1451
84	510
85	771
86	60
87	220
88	9999
89	2462
90	130
91	60
93	70
94	60
95	380
96	150
97	1201
99	170
100	10
101	7076
102	601
103	60
104	10
105	40
107	130
108	70
109	330
110	120
111	641
113	110
114	20
115	851
116	110
117	20
118	10
119	60
121	230
122	40
123	170
124	60
125	340
126	100
127	70
128	50
129	450
130	190
131	20
133	50
134	20
135	230
136	60
137	60
138	70
139	190
141	40
142	20
143	831
144	230
145	40
147	50
149	160
151	70
153	70
155	130
156	20
157	2362
158	260
159	50
163	80
164	60
167	60
169	20
171	280
172	70
185	140
186	40
187	40
199	340
200	70
213	520
214	90
227	190
228	50
241	60
255	190
256	50
269	510
270	110
271	40
272	10
283	540
284	350
285	50
297	150
298	60
299	20
311	190
312	70
321	80
322	30
323	671
324	150
325	1461
326	370
327	30
328	10
339	230
340	60
367	10
368	2983
369	811
370	120
371	10
