Mass Spectrum: Biphenyl, 2,6-dibromo-
Formula: C12 H8 Br2
CAS: 59080-32-9
Molecular weight: 310
Origin: J.E. WILKINSON S-CUBED, SAN DIEGO, CA.
m/z	RELATIVE INTENSITY
49	85
50	1242
51	1243
52	142
53	1
55	3
61	218
62	744
63	1232
64	30
65	1
69	7
73	115
74	1606
75	2145
76	2397
77	375
78	23
79	8
80	1
81	8
82	1
84	9
85	97
86	461
87	517
88	53
89	13
97	22
98	612
99	460
100	184
101	103
102	290
103	11
104	1
109	12
110	77
111	121
112	12
113	101
114	11
115	441
116	347
119	9
121	3
122	80
123	33
124	42
125	249
126	939
127	41
128	2
130	2
149	76
150	1803
151	2688
152	9999
153	1194
154	25
155	6
156	13
157	2
230	60
231	18
232	76
233	19
234	1
310	3096
311	322
312	6115
313	720
314	3041
315	291
