Mass Spectrum: Acetamide, N-(aminocarbonyl)-
Formula: C3 H6 N2 O2
CAS: 591-07-1
Molecular weight: 102
Origin: Japan AIST/NIMC Database- Spectrum MS-NW-5013
m/z	RELATIVE INTENSITY
12	139
13	139
14	589
15	2019
16	909
17	1159
18	60
24	30
25	50
26	189
27	319
28	1019
29	939
30	109
31	199
32	119
34	10
38	299
39	479
40	1229
41	2279
42	2639
43	9999
44	3859
45	80
46	10
54	40
56	30
59	3679
60	129
61	50
70	1129
71	30
74	70
85	309
86	10
102	139
