Mass Spectrum: Cyclohexanol, 3-methyl-
Formula: C7 H14 O
CAS: 591-23-1
Molecular weight: 114
Origin: Japan AIST/NIMC Database- Spectrum MS-NW- 706
m/z	RELATIVE INTENSITY
14	50
15	189
16	30
17	299
18	1079
19	10
26	119
27	1689
28	1559
29	1319
30	70
31	559
32	169
37	40
38	139
39	1919
40	339
41	3419
42	1989
43	1889
44	2249
45	389
46	20
47	10
48	10
49	10
50	119
51	249
52	99
53	779
54	1279
55	3829
56	909
57	4239
58	589
59	129
61	10
62	30
63	60
64	20
65	159
66	189
67	1529
68	1669
69	719
70	1119
71	9999
72	609
73	60
74	20
75	10
77	169
78	40
79	319
80	80
81	6529
82	549
83	129
84	40
85	90
86	179
87	10
91	70
92	30
93	50
94	40
95	729
96	7069
97	609
98	30
99	279
100	30
112	20
113	199
114	139
115	10
