Mass Spectrum: Pentanoic acid, butyl ester
Formula: C9 H18 O2
CAS: 591-68-4
Molecular weight: 158
Origin: V.Zaikin,Topchiev Inst.Petrochem.Synth.,Moscow
m/z	RELATIVE INTENSITY
27	1501
28	651
29	5385
30	180
31	310
34	30
36	30
37	50
38	130
39	2422
40	460
41	7357
42	1511
43	1491
44	490
45	601
46	40
47	30
50	100
51	210
52	100
53	370
54	140
55	2312
56	8358
57	9999
58	360
59	200
60	2342
61	681
68	20
69	70
70	30
71	110
73	1481
74	200
75	330
76	30
77	30
83	100
84	140
85	8097
86	520
87	200
89	30
95	20
98	40
100	20
101	220
102	290
103	4764
104	350
105	50
115	190
116	180
128	30
129	80
130	20
158	10
