Mass Spectrum: Hexane, 2-methyl-
Formula: C7 H16
CAS: 591-76-4
Molecular weight: 100
Origin: Japan AIST/NIMC Database- Spectrum MS-NW-4009
m/z	RELATIVE INTENSITY
15	80
26	60
27	1139
28	90
29	1459
30	30
37	10
38	50
39	749
40	139
41	3049
42	3519
43	9999
44	319
50	30
51	50
52	20
53	119
54	30
55	509
56	2099
57	2929
58	129
59	20
63	10
65	10
67	30
69	109
70	159
71	219
72	10
77	10
78	10
84	499
85	3699
86	259
99	10
100	299
101	20
