Mass Spectrum: Butanoic acid, 4-hydroxy-
Formula: C4 H8 O3
CAS: 591-81-1
Molecular weight: 104
Origin: Patti Price, Georgia Bureau of Investigation, Decatur, Georgia
m/z	RELATIVE INTENSITY
31	260
32	60
34	20
36	60
37	320
38	460
39	1581
40	1151
41	4724
42	9999
43	640
44	270
45	130
49	20
51	20
52	40
53	180
54	80
55	950
56	3573
57	690
58	40
61	20
73	20
75	20
78	20
82	20
85	1221
86	4844
87	230
88	30
89	20
96	130
103	20
