Mass Spectrum: Benzene, 1-bromo-3-iodo-
Formula: C6 H4 Br I
CAS: 591-18-4
Molecular weight: 282
Origin: Japan AIST/NIMC Database- Spectrum MS-NW-8531
m/z	RELATIVE INTENSITY
25	20
26	80
27	50
36	90
37	559
38	539
39	109
41	10
48	50
49	579
50	5509
51	629
52	20
55	10
60	40
61	109
62	60
63	20
65	10
69	10
72	50
73	649
74	2859
75	5539
76	5699
77	399
78	10
79	70
80	60
81	70
82	60
91	10
92	10
93	10
104	20
105	60
106	20
107	50
116	10
117	20
118	10
119	10
127	859
128	229
129	149
130	70
131	139
139	10
141	329
142	319
145	20
152	60
153	20
154	80
155	7069
156	549
157	6799
158	459
159	10
164	10
165	10
171	10
173	10
176	70
177	20
200	10
202	10
203	189
204	10
272	20
281	10
282	9999
283	669
284	9769
285	639
286	10
