Mass Spectrum: 2-Butene, 1-chloro-
Formula: C4 H7 Cl
CAS: 591-97-9
Molecular weight: 90
Origin: Japan AIST/NIMC Database- Spectrum MS-NW-4373
m/z	RELATIVE INTENSITY
14	10
15	40
24	10
25	60
26	489
27	1799
28	289
29	2019
30	40
35	70
36	129
37	179
38	249
39	2269
40	179
41	759
42	20
43	20
44	30
45	10
47	20
48	30
49	279
50	559
51	549
52	229
53	1649
54	1259
55	9999
56	459
57	10
60	30
61	80
62	589
63	90
64	189
65	20
73	50
74	10
75	999
76	40
77	309
78	10
87	10
88	10
89	80
90	2499
91	139
92	809
93	40
