Mass Spectrum: Butanoic acid, 3-oxo-, butyl ester
Formula: C8 H14 O3
CAS: 591-60-6
Molecular weight: 158
m/z	RELATIVE INTENSITY
27	1802
28	1001
29	2102
39	701
41	3803
42	2002
43	9999
44	1601
55	701
56	7607
57	2502
58	1001
60	1001
69	2002
84	2502
85	3503
103	3003
116	300
143	200
158	400
