Mass Spectrum: 2-Hexanone
Formula: C6 H12 O
CAS: 591-78-6
Molecular weight: 100
Origin: NIST Mass Spectrometry Data Center
m/z	RELATIVE INTENSITY
14	20
15	190
26	140
27	901
28	240
29	1161
30	30
31	30
37	30
38	110
39	1061
40	120
41	2152
42	661
43	9999
44	250
45	80
49	10
50	110
51	130
52	40
53	180
54	40
55	360
56	130
57	2632
58	6646
59	400
60	20
62	10
63	10
65	10
67	30
69	10
71	841
72	150
83	10
85	1191
86	60
100	1611
101	140
