Mass Spectrum: Allyl acetate
Formula: C5 H8 O2
CAS: 591-87-7
Molecular weight: 100
Origin: NIST Mass Spectrometry Data Center, 1992
m/z	RELATIVE INTENSITY
11	4
12	18
13	63
14	264
15	824
16	15
17	7
18	8
19	4
20	4
24	8
25	54
26	313
27	674
28	430
29	678
30	79
31	148
32	24
35	2
37	148
38	350
39	1717
40	377
41	1642
42	2
43	9999
44	264
45	56
52	6
53	22
54	14
55	91
56	6
57	793
58	979
59	35
61	228
62	4
71	41
72	87
73	19
74	6
82	6
85	27
99	3
100	13
101	4
