Mass Spectrum: Cyclohexane, 1,3-dimethyl-
Formula: C8 H16
CAS: 591-21-9
Molecular weight: 112
Origin: NIST Mass Spectrometry Data Center, 1990.
m/z	RELATIVE INTENSITY
14	17
15	211
18	82
26	147
27	1807
28	680
29	1111
32	114
39	2435
40	394
41	3800
42	1639
43	941
44	57
50	129
51	237
52	127
53	662
54	57
55	9167
56	1763
57	350
63	84
65	191
67	529
68	261
69	2121
70	808
71	189
77	143
79	153
81	243
82	137
83	448
84	249
95	106
97	9999
98	730
112	2937
113	283
