Mass Spectrum: Cyclohexene, 1-methyl-
Formula: C7 H12
CAS: 591-49-1
Molecular weight: 96
Origin: Japan AIST/NIMC Database- Spectrum MS-NW-9258
m/z	RELATIVE INTENSITY
15	20
26	40
27	639
28	109
29	399
30	10
37	20
38	80
39	1249
40	359
41	1069
42	189
43	70
44	10
45	60
46	80
47	10
50	129
51	329
52	179
53	1259
54	1569
55	2839
56	179
57	10
58	10
61	10
62	50
63	109
64	20
65	369
66	289
67	4159
68	3599
69	239
70	10
71	10
74	10
75	10
77	529
78	109
79	1139
80	179
81	9999
82	689
83	40
89	20
91	239
92	40
93	129
94	50
95	809
96	4139
97	399
98	20
