Mass Spectrum: Acetamide, N-(aminothioxomethyl)-
Formula: C3 H6 N2 O S
CAS: 591-08-2
Molecular weight: 118
Origin: Japan AIST/NIMC Database- Spectrum MS-NW-5012
m/z	RELATIVE INTENSITY
12	60
13	119
14	459
15	1189
16	259
17	309
18	40
24	10
25	30
26	119
27	489
28	589
29	119
30	60
31	30
32	729
33	289
34	589
35	20
36	60
38	99
39	179
40	439
41	929
42	1599
43	9999
44	879
45	109
46	70
47	99
48	149
49	20
50	10
51	10
52	10
53	20
54	20
55	10
56	10
57	10
58	259
59	1429
60	989
61	90
62	50
64	20
66	30
67	10
69	80
70	30
71	10
72	40
74	20
75	159
76	3429
77	129
78	159
80	20
82	10
85	20
86	70
90	169
91	20
92	10
97	10
101	80
102	10
103	10
117	10
118	5319
119	279
120	279
121	10
