Mass Spectrum: Benzene, iodo-
Formula: C6 H5 I
CAS: 591-50-4
Molecular weight: 204
Origin: Chuck Anderson, Aldrich Chemical Co.
m/z	RELATIVE INTENSITY
25	15
26	69
27	270
28	7
36	44
37	302
38	342
39	290
40	7
48	15
49	212
50	1783
51	2754
52	119
60	11
61	44
62	51
63	11
72	13
73	204
74	835
75	433
76	513
77	9999
78	696
79	17
127	732
128	32
139	8
152	38
153	5
164	8
165	5
176	18
177	5
203	13
204	7451
205	445
206	9
