Mass Spectrum: 2,4-Pentanedione, 3-phenyl-
Formula: C11 H12 O2
CAS: 5910-25-8
Molecular weight: 176
m/z	RELATIVE INTENSITY
37	10
38	200
39	1101
40	100
41	200
42	200
43	9999
44	300
45	50
46	10
48	50
49	10
50	300
51	1101
52	200
53	300
54	10
61	50
62	300
63	901
64	200
65	601
66	200
67	10
68	10
69	50
70	10
71	10
72	10
73	10
74	100
75	200
76	100
77	1501
78	300
79	601
80	50
81	10
82	10
83	50
84	10
85	500
86	100
87	100
88	100
89	901
90	500
91	1702
92	200
93	10
94	10
95	10
98	10
99	10
100	10
101	50
102	200
103	601
104	200
105	1001
106	100
107	10
109	10
110	100
111	10
112	10
113	50
114	100
115	2302
116	1001
117	200
118	300
119	300
126	10
127	100
128	200
129	300
130	50
131	200
132	100
133	2803
134	1501
135	200
136	10
141	10
142	10
143	10
145	10
147	100
148	50
149	10
150	10
157	10
158	200
159	50
160	50
161	6306
162	801
163	100
174	10
175	300
176	8107
177	2102
178	300
179	10
