Mass Spectrum: Pyrazine, 2,3-dimethyl-
Formula: C6 H8 N2
CAS: 5910-89-4
Molecular weight: 108
Origin: NIST Mass Spectrometry Data Center, 1990.
m/z	RELATIVE INTENSITY
12	31
13	25
14	113
15	443
16	5
18	23
26	1798
27	1316
28	799
29	23
32	3
36	39
37	360
38	683
39	1722
40	3102
41	1764
42	2333
43	77
48	40
49	125
50	569
51	864
52	1025
53	626
54	301
55	35
63	86
64	232
65	161
66	919
67	9999
68	532
76	35
77	23
78	30
79	58
80	139
81	134
82	29
92	44
93	334
94	40
96	21
106	56
108	9070
109	720
110	29
