Mass Spectrum: 1-Tridecanamine, N-tridecyl-
Formula: C26 H55 N
CAS: 5910-75-8
Molecular weight: 381
Origin: RADIAN CORP
m/z	RELATIVE INTENSITY
11	30
12	30
13	90
16	40
17	20
18	140
19	10
20	50
22	10
23	30
24	10
26	10
27	30
29	270
30	670
36	10
39	30
40	30
41	1180
42	420
43	2820
44	5590
45	270
46	10
48	10
50	10
51	50
52	20
53	20
54	30
55	1460
56	1000
57	1980
58	510
59	30
60	20
67	140
68	180
69	990
70	1040
71	720
72	260
73	130
75	90
78	170
79	30
80	20
81	140
82	160
83	420
84	820
85	320
86	190
91	60
93	80
95	80
96	150
97	230
98	880
99	60
100	30
102	20
109	20
110	10
111	20
112	690
114	70
115	20
126	510
127	40
128	350
131	10
133	20
135	250
140	250
141	20
142	10
147	10
154	50
168	50
172	10
182	40
196	80
197	250
198	560
200	50
204	40
210	3970
211	600
212	9999
213	1540
219	10
224	20
226	80
238	300
253	20
269	20
315	10
