Mass Spectrum: (Chloromethyl)cyclopropane
Formula: C4 H7 Cl
CAS: 5911-08-0
Molecular weight: 90
Origin: NIST Mass Spectrometry Data Center
m/z	RELATIVE INTENSITY
14	20
15	30
25	50
26	510
27	1682
28	190
29	921
30	20
35	70
36	70
37	290
38	440
39	2953
40	220
41	1732
42	60
47	40
48	60
49	530
50	661
51	781
52	190
53	1471
54	3003
55	9999
56	510
60	40
61	140
62	2512
63	140
64	781
65	30
72	10
73	90
74	10
75	731
76	20
77	230
89	20
90	190
91	10
92	60
