Mass Spectrum: Phenol, 2-methoxy-4-(1-propenyl)-, (Z)-
Formula: C10 H12 O2
CAS: 5912-86-7
Molecular weight: 164
Origin: NIST Mass Spectrometry Data Center, 1998.
m/z	RELATIVE INTENSITY
15	150
26	50
27	300
29	130
30	10
31	50
37	50
38	190
39	1030
40	160
41	360
42	50
43	300
44	20
45	80
46	50
49	40
50	510
51	1230
52	480
53	860
54	90
55	2420
56	90
57	40
59	40
60	40
61	90
62	300
63	730
64	200
65	1120
66	350
67	130
68	40
69	80
71	10
73	20
74	190
75	190
76	180
77	3480
78	870
79	730
80	80
81	270
82	80
85	20
86	50
87	60
88	30
89	360
90	110
91	2990
92	370
93	540
94	260
95	80
96	10
98	20
101	60
102	320
103	3300
104	1640
105	830
106	120
107	460
108	70
109	150
110	20
114	10
115	290
116	70
117	90
118	120
119	230
120	150
121	1740
122	300
123	40
124	30
130	30
131	2590
132	590
133	1660
134	190
135	120
136	20
137	660
138	60
145	30
146	20
147	370
148	100
149	3410
150	340
151	30
161	10
162	20
163	370
164	9999
165	1090
166	100
