Mass Spectrum: Phenol, 2-methoxy-4-(1-propenyl)-, acetate, (E)-
Formula: C12 H14 O3
CAS: 5912-87-8
Molecular weight: 206
Origin: Japan AIST/NIMC Database- Spectrum MS-IW-5499
m/z	RELATIVE INTENSITY
15	50
27	40
28	20
29	10
38	10
39	119
40	20
41	70
42	20
43	449
44	10
45	10
46	10
50	40
51	109
52	40
53	60
55	249
56	10
57	10
62	20
63	90
64	30
65	169
66	50
67	10
69	10
74	10
75	20
76	20
77	329
78	90
79	139
80	10
81	20
89	50
90	20
91	409
92	60
93	80
94	10
95	10
102	30
103	359
104	319
105	139
106	10
107	149
108	10
109	10
115	80
116	20
117	40
118	20
119	50
120	30
121	369
122	40
130	10
131	669
132	309
133	539
134	60
135	50
136	10
137	119
138	10
147	149
148	30
149	1609
150	159
151	10
161	10
162	20
163	259
164	9999
165	1119
166	99
206	1899
207	259
208	20
