Mass Spectrum: R-(-)-Cyclohexylethylamine
Formula: C8 H17 N
CAS: 5913-13-3
Molecular weight: 127
Origin: Chuck Anderson, Aldrich Chemical Co.
m/z	RELATIVE INTENSITY
15	42
17	21
18	245
27	183
28	176
29	128
30	274
32	3
39	292
40	67
41	524
42	319
43	723
44	9999
45	220
51	40
53	118
54	111
55	258
56	104
57	19
65	42
66	9
67	305
68	65
69	69
70	103
77	51
79	56
80	20
81	87
82	60
83	19
95	87
112	38
