Mass Spectrum: 1,5-Hexadiene
Formula: C6 H10
CAS: 592-42-7
Molecular weight: 82
Origin: Japan AIST/NIMC Database- Spectrum MS-NW-1213
m/z	RELATIVE INTENSITY
14	20
15	169
25	10
26	289
27	1769
28	339
29	509
30	10
31	20
32	40
37	149
38	379
39	5199
40	559
41	9989
42	579
43	90
44	40
49	40
50	339
51	459
52	229
53	949
54	5879
55	569
56	80
57	30
61	20
62	30
63	70
65	339
66	169
67	9999
68	559
69	30
73	20
74	40
75	20
77	209
78	40
79	319
80	50
81	789
82	149
83	10
84	10
