Mass Spectrum: Heptane, 2-methyl-
Formula: C8 H18
CAS: 592-27-8
Molecular weight: 114
Origin: Japan AIST/NIMC Database- Spectrum MS-NW-4071
m/z	RELATIVE INTENSITY
15	80
26	60
27	1269
28	50
29	1679
30	40
37	10
38	40
39	869
40	169
41	3049
42	3959
43	9999
44	349
50	30
51	60
52	20
53	139
54	60
55	1089
56	799
57	8609
58	409
63	10
65	20
67	40
68	10
69	139
70	1949
71	1499
72	80
83	10
84	70
85	179
86	10
98	409
99	1489
100	129
114	409
115	40
