Mass Spectrum: 3-Heptene
Formula: C7 H14
CAS: 592-78-9
Molecular weight: 98
Origin: Japan AIST/NIMC Database- Spectrum MS-NW-3106
m/z	RELATIVE INTENSITY
15	99
26	139
27	1759
28	229
29	1449
30	50
31	20
37	40
38	139
39	1929
40	359
41	9999
42	1899
43	1469
44	50
45	10
49	10
50	119
51	239
52	99
53	699
54	639
55	5519
56	7919
57	949
58	50
59	20
61	20
62	30
63	60
64	10
65	119
66	50
67	529
68	339
69	5839
70	1559
71	169
72	50
73	10
74	10
77	60
78	10
79	80
80	10
81	139
82	20
83	429
84	30
95	10
96	30
97	70
98	3609
99	289
100	20
