Mass Spectrum: Diallyl sulfide
Formula: C6 H10 S
CAS: 592-88-1
Molecular weight: 114
Origin: Japan AIST/NIMC Database- Spectrum MS-NW-3308
m/z	RELATIVE INTENSITY
14	30
15	309
18	30
25	20
26	199
27	849
28	70
29	219
30	10
32	50
33	30
34	40
35	10
36	30
37	269
38	629
39	6199
40	499
41	8149
42	419
43	60
44	99
45	9999
46	769
47	1719
48	60
49	80
50	30
51	50
52	30
53	399
54	209
55	329
56	40
57	80
58	319
59	349
60	529
61	50
62	30
63	20
65	199
66	109
67	1229
68	1109
69	319
70	70
71	2189
72	5339
73	8059
74	719
75	399
76	40
77	139
78	40
79	569
80	1749
81	2209
82	159
83	10
84	30
85	1069
86	729
87	419
88	60
89	20
91	109
92	20
97	40
98	20
99	2679
100	169
101	139
102	10
103	10
105	20
106	50
107	10
111	10
112	10
113	339
114	4869
115	409
116	289
117	20
