Mass Spectrum: Urea, butyl-
Formula: C5 H12 N2 O
CAS: 592-31-4
Molecular weight: 116
Origin: Japan AIST/NIMC Database- Spectrum MS-NW-7817
m/z	RELATIVE INTENSITY
15	60
16	30
17	99
18	319
26	50
27	539
28	629
29	619
30	9999
31	289
38	30
39	339
40	60
41	739
42	259
43	379
44	1459
45	80
50	10
51	20
52	10
53	40
54	40
55	149
56	209
57	109
58	129
60	169
61	329
68	10
70	30
71	20
72	119
73	2989
74	1639
75	60
87	899
88	90
99	20
100	10
101	249
102	10
115	10
116	1199
117	279
118	10
