Mass Spectrum: 2-Propanone, 1-(acetyloxy)-
Formula: C5 H8 O3
CAS: 592-20-1
Molecular weight: 116
Origin: Japan AIST/NIMC Database- Spectrum MS-NW-9351
m/z	RELATIVE INTENSITY
13	10
14	129
15	709
16	10
18	40
26	50
27	159
28	199
29	199
30	10
31	99
32	10
38	10
39	30
40	10
41	30
42	359
43	9999
44	259
45	50
55	10
56	20
57	60
58	10
60	10
73	409
74	99
75	10
86	969
87	40
88	20
101	20
116	289
117	20
