Mass Spectrum: 1,4-Hexadiene
Formula: C6 H10
CAS: 592-45-0
Molecular weight: 82
Origin: M. IWAMOTO TOYO RAYON CO., SONOYANA, OTSU, SHIGA-KEN, JAPAN
m/z	RELATIVE INTENSITY
12	18
13	25
14	72
15	338
16	17
24	7
25	87
26	706
27	3350
28	732
29	909
30	22
31	22
32	7
36	28
37	393
38	737
39	5630
40	834
41	5090
42	638
43	105
44	29
48	22
49	161
50	812
51	1008
52	461
53	1930
54	2190
55	1222
56	153
57	7
60	19
61	85
62	125
63	261
64	79
65	1160
66	385
67	9999
68	559
69	16
72	2
73	36
74	96
75	65
76	18
77	431
78	104
79	788
80	159
81	1072
82	4150
83	274
84	11
