Mass Spectrum: 1,3-Cyclohexadiene
Formula: C6 H8
CAS: 592-57-4
Molecular weight: 80
Origin: NIST Mass Spectrometry Data Center, 1990.
m/z	RELATIVE INTENSITY
15	82
25	67
26	405
27	1121
28	109
29	31
36	39
37	314
38	563
39	1995
40	325
41	264
49	270
50	1398
51	1785
52	1023
53	557
54	217
61	55
62	122
63	322
64	64
65	552
66	26
73	144
74	285
75	72
76	26
77	4484
78	1221
79	9999
80	4472
81	265
