Mass Spectrum: 1-Heptene
Formula: C7 H14
CAS: 592-76-7
Molecular weight: 98
Origin: Japan AIST/NIMC Database- Spectrum MS-NW- 972
m/z	RELATIVE INTENSITY
15	109
26	199
27	2569
28	489
29	5589
30	119
36	10
37	50
38	179
39	3049
40	489
41	9679
42	5489
43	1589
44	50
49	10
50	149
51	229
52	99
53	649
54	759
55	6759
56	9999
57	3069
58	129
61	10
62	30
63	50
65	80
66	30
67	229
68	359
69	3109
70	4419
71	249
77	40
78	10
79	30
81	30
82	10
83	419
84	30
97	10
98	1379
99	109
