Mass Spectrum: C2H5CH=CHCH=CH2
Formula: C6 H10
CAS: 592-48-3
Molecular weight: 82
Origin: NIST Mass Spectrometry Data Center, 1990.
m/z	RELATIVE INTENSITY
15	248
26	345
27	1809
28	361
29	321
37	182
38	519
39	3720
40	739
41	3670
42	386
43	66
44	22
48	19
49	116
50	719
51	875
52	449
53	1282
54	1632
55	416
56	107
60	18
61	74
62	173
63	254
64	18
65	1501
66	355
67	9999
68	486
69	15
73	37
74	89
75	23
76	15
77	402
78	94
79	743
80	15
81	1104
82	3863
83	271
84	11
