Mass Spectrum: 1H-Pyrazole, 3-ethyl-4,5-dihydro-
Formula: C5 H10 N2
CAS: 5920-29-6
Molecular weight: 98
Origin: ATLAS OF MASS SPECTRA OF ORGANIC COMPOUNDS, V. A. KOPTYUG, ED.
m/z	RELATIVE INTENSITY
26	410
27	2310
28	3850
29	2020
30	960
38	260
39	1730
40	380
41	5000
42	4130
43	860
44	210
51	190
52	210
53	570
54	1060
55	1250
56	770
57	330
67	230
68	540
69	3460
70	1250
81	350
82	320
83	9999
84	530
95	360
96	220
97	3650
98	7020
99	440
