Mass Spectrum: 2-Nonyn-1-ol
Formula: C9 H16 O
CAS: 5921-73-3
Molecular weight: 140
Origin: NIST Mass Spectrometry Data Center, 1990.
m/z	RELATIVE INTENSITY
14	234
26	385
27	3244
28	759
29	3912
30	234
31	742
32	24
38	548
39	6055
40	1594
41	8996
42	3333
43	6375
44	409
50	687
51	1759
52	2235
53	2824
54	1656
55	9999
56	1735
57	1778
58	149
62	169
63	416
64	143
65	1442
66	1384
67	9419
68	3006
69	5330
70	6841
71	748
77	2005
78	502
79	4325
80	1107
81	2989
82	576
83	4278
84	689
85	215
91	1639
93	4954
94	892
95	734
96	470
97	654
98	112
105	187
107	1351
109	2412
110	289
111	1415
