Mass Spectrum: Formamide, N-[3-(dimethylamino)propyl]-
Formula: C6 H14 N2 O
CAS: 5922-69-0
Molecular weight: 130
Origin: James Little,Eastman Chem.Co.,Kingsport,TN
m/z	RELATIVE INTENSITY
27	500
29	2452
30	1982
40	3433
41	581
42	2122
43	661
44	1742
45	340
56	410
57	440
58	9999
59	771
70	360
71	150
72	410
73	320
84	340
85	200
86	150
102	170
130	490
131	50
