Mass Spectrum: Benzenemethanol, 4-(1-methylethyl)-, acetate
Formula: C12 H16 O2
CAS: 59230-57-8
Molecular weight: 192
Origin: Philip Morris R&D
m/z	RELATIVE INTENSITY
36	54
37	8
38	20
39	433
40	41
41	591
42	82
43	6225
44	191
45	3
49	8
50	120
51	464
52	79
53	127
54	43
55	94
57	112
58	155
59	23
62	59
63	217
64	89
65	372
66	38
67	36
69	18
71	403
72	10
73	5
74	25
75	76
76	56
77	775
78	227
79	1001
80	69
81	3
82	10
84	25
86	23
89	242
90	92
91	1735
92	211
93	377
94	31
101	23
102	102
103	278
104	196
105	1254
106	110
107	9999
108	869
109	87
115	1108
116	321
117	4913
118	945
119	489
120	36
121	33
127	38
128	56
129	69
130	10
131	803
132	1210
133	2174
134	352
135	1488
136	145
147	38
148	41
149	1949
150	4001
151	428
152	18
161	5
177	4062
178	415
179	41
191	46
192	5229
193	584
194	43
