Mass Spectrum: Benzenecarbothioic acid, S-methyl ester
Formula: C8 H8 O S
CAS: 5925-68-8
Molecular weight: 152
m/z	RELATIVE INTENSITY
28	631
31	30
32	150
37	100
38	130
39	250
45	530
46	180
47	340
49	120
50	1271
51	2933
52	180
53	60
61	60
62	90
63	90
65	130
69	130
73	100
74	480
75	370
76	400
77	6376
78	470
79	40
82	40
91	40
93	40
95	40
104	60
105	9999
106	811
107	70
108	90
109	130
121	40
125	60
151	100
152	1461
153	150
154	90
