Mass Spectrum: Chloroacetic acid, hexyl ester
Formula: C8 H15 Cl O2
CAS: 5927-57-1
Molecular weight: 178
Origin: V.G.Zaikin,TIPS,Russian Acad.Sci.Moscow
m/z	RELATIVE INTENSITY
27	70
28	40
29	170
31	80
36	70
38	70
39	550
40	110
41	2392
42	2582
43	5865
44	731
45	180
47	50
48	50
49	1051
50	290
51	561
52	190
53	190
54	390
55	3984
56	9999
57	1371
58	90
59	130
60	30
61	30
65	30
66	70
67	150
68	130
69	3153
70	911
71	470
72	80
73	80
76	110
77	3643
78	270
79	1331
80	90
81	30
82	80
83	681
84	3773
85	1611
91	70
94	90
95	1261
96	60
97	390
99	30
101	90
105	110
107	280
108	30
109	110
110	20
121	290
123	100
129	90
