Mass Spectrum: 1-Methyl-2-tripropyl-silyloxybenzene
Formula: C16 H28 O Si
CAS: 59280-16-9
Molecular weight: 264
Origin: Zaikin V.G., TIPS RAS, Moscow, Russia
m/z	RELATIVE INTENSITY
27	50
28	30
39	70
41	110
42	70
43	80
44	30
45	260
47	40
59	70
61	50
65	220
67	50
68	30
71	70
73	100
75	420
76	50
77	140
78	30
79	40
81	30
82	390
83	80
87	40
89	160
90	100
91	1782
92	190
93	70
96	40
103	30
105	80
107	30
115	60
121	70
133	170
134	50
135	2222
136	310
137	3904
138	470
139	140
147	60
149	540
150	80
151	631
152	80
161	30
163	80
177	160
178	70
179	9999
180	1391
181	390
182	30
221	4904
222	911
223	230
264	2652
265	561
266	130
