Mass Spectrum: 3,4-Dichlorobenzyl mercaptan
Formula: C7 H6 Cl2 S
CAS: 59293-67-3
Molecular weight: 192
Origin: NIST Mass Spectrometry Data Center
m/z	RELATIVE INTENSITY
13	10
14	10
17	10
18	30
25	20
26	100
27	130
28	10
29	10
31	30
32	220
33	561
34	80
35	120
36	80
37	340
38	340
39	581
40	20
41	10
43	150
45	1992
46	150
47	280
48	50
49	240
50	641
51	400
52	30
56	10
57	30
59	150
60	891
61	530
62	881
63	1371
64	90
65	20
69	350
70	50
71	80
72	160
73	801
74	510
75	721
76	60
77	270
78	220
79	140
81	80
82	50
83	60
84	170
85	290
86	350
87	360
88	150
89	1231
90	100
92	50
93	210
94	60
95	80
96	150
97	370
98	70
99	380
100	30
101	60
103	30
105	20
106	30
107	80
108	40
109	190
110	60
111	220
112	60
113	60
114	30
116	10
117	50
118	20
119	110
120	140
121	170
123	1641
124	581
125	520
126	180
127	10
129	10
131	20
133	280
135	170
136	10
137	40
142	20
144	20
145	10
146	30
147	20
148	20
149	10
153	10
154	50
155	190
156	120
157	140
159	9999
160	991
161	6376
162	510
163	1051
164	70
189	50
192	2462
193	280
194	1631
195	150
196	310
197	20
198	10
