Mass Spectrum: 1-Bromo-1-chloroethane
Formula: C2 H4 Br Cl
CAS: 593-96-4
Molecular weight: 142
Origin: NIST Mass Spectrometry Data Center
m/z	RELATIVE INTENSITY
12	60
13	80
14	90
15	140
18	10
19	40
24	100
25	510
26	2332
27	7477
28	360
32	10
35	410
36	140
37	150
38	50
40	10
47	130
48	160
49	70
50	40
59	30
60	200
61	480
63	9999
64	330
65	3003
66	80
79	891
80	220
81	871
82	190
91	40
92	30
93	50
94	30
104	50
105	120
106	100
107	310
108	70
109	210
114	20
116	30
127	260
128	40
129	310
131	90
142	300
144	410
145	20
146	100
