Mass Spectrum: Vinyl bromide
Formula: C2 H3 Br
CAS: 593-60-2
Molecular weight: 106
m/z	RELATIVE INTENSITY
24	70
25	490
26	1461
27	9999
28	280
52	130
54	110
79	681
80	270
81	691
82	230
91	180
92	40
93	180
94	40
103	100
104	290
105	440
106	9879
107	591
108	9268
109	70
