Mass Spectrum: Methane, bromochlorofluoro-
Formula: C H Br Cl F
CAS: 593-98-6
Molecular weight: 146
m/z	RELATIVE INTENSITY
12	340
13	591
19	40
20	10
31	1151
32	941
35	550
36	60
37	170
38	20
47	771
48	781
49	240
50	240
63	10
64	10
65	10
66	160
67	9999
68	50
69	3203
79	791
80	60
81	761
82	60
91	190
92	100
93	190
94	100
110	60
111	921
112	60
113	891
114	30
116	30
118	10
126	30
127	120
128	30
129	150
130	10
131	40
145	40
146	360
147	50
148	470
149	10
150	110
