Mass Spectrum: Phosphine, ethyl-
Formula: C2 H7 P
CAS: 593-68-0
Molecular weight: 62
Origin: R.W. KISER KANSAS STATE UNIV., MANHATTAN, KANSAS, USA
m/z	RELATIVE INTENSITY
34	5320
43	2530
44	1440
45	3520
46	1090
47	1970
57	5070
58	3520
59	1940
60	1870
61	1320
62	9999
