Mass Spectrum: Ethene, iodo-
Formula: C2 H3 I
CAS: 593-66-8
Molecular weight: 154
Origin: NIST Mass Spectrometry Data Center, 1998.
m/z	RELATIVE INTENSITY
12	10
13	10
14	10
24	40
25	200
26	700
27	3750
28	80
63	40
77	100
127	4300
128	970
129	10
139	120
140	80
141	10
151	50
152	190
153	110
154	9999
155	230
