Mass Spectrum: 3-Hexadecanol
Formula: C16 H34 O
CAS: 593-03-3
Molecular weight: 242
Origin: NIST Mass Spectrometry Data Center, 1990.
m/z	RELATIVE INTENSITY
14	142
16	76
27	609
28	114
29	1554
30	76
31	767
39	769
41	4812
42	975
43	3948
44	352
45	160
51	56
53	506
54	797
55	5524
56	1790
57	4837
58	1905
59	9999
60	368
65	129
66	123
67	1254
68	858
69	4958
70	1614
71	1957
72	614
73	245
77	83
78	32
79	176
80	32
81	776
82	842
83	4236
84	1018
85	1092
86	87
91	35
93	45
95	404
96	555
97	3770
98	631
99	217
109	135
110	233
111	2005
112	376
113	127
123	58
124	109
125	877
126	195
127	46
138	64
139	288
140	104
153	90
154	45
196	65
211	91
213	1437
214	221
224	344
225	63
