Mass Spectrum: 2-Tridecanone
Formula: C13 H26 O
CAS: 593-08-8
Molecular weight: 198
Origin: NIST Mass Spectrometry Data Center, 1998.
m/z	RELATIVE INTENSITY
15	40
26	20
27	390
28	40
29	710
30	20
31	10
38	10
39	530
40	110
41	2270
42	580
43	7019
44	180
45	90
50	10
51	30
52	20
53	230
54	220
55	1660
56	530
57	1630
58	9999
59	4010
60	140
61	10
63	10
65	40
66	30
67	360
68	220
69	550
70	380
71	3850
72	260
73	20
77	30
78	10
79	70
80	30
81	340
82	610
83	410
84	270
85	1190
86	120
87	10
91	10
93	20
94	10
95	400
96	680
97	480
98	200
99	160
100	200
101	20
107	10
108	10
109	230
110	310
111	330
112	170
113	240
114	120
115	10
123	70
124	110
125	20
127	270
128	50
137	30
138	450
139	50
140	570
141	120
142	70
143	10
151	30
152	10
154	10
155	150
156	70
157	10
165	10
169	80
170	30
180	80
181	10
183	250
184	30
198	510
199	110
200	10
