Mass Spectrum: Methyl isocyanide
Formula: C2 H3 N
CAS: 593-75-9
Molecular weight: 41
Origin: R.G.GILLIS AUST SCI SERVICE, ASCOT VALE, VIC., AUSTRALIA
m/z	RELATIVE INTENSITY
15	800
26	200
27	400
28	800
38	1300
39	2000
40	4900
41	9999
42	300
