Mass Spectrum: Ethyne, chloro-
Formula: C2 H Cl
CAS: 593-63-5
Molecular weight: 60
m/z	RELATIVE INTENSITY
24	851
25	2262
26	470
27	70
35	801
36	190
37	220
38	70
39	20
41	10
47	811
48	40
49	250
50	60
59	1281
60	9999
61	601
62	3173
63	50
