Mass Spectrum: Chloroiodomethane
Formula: C H2 Cl I
CAS: 593-71-5
Molecular weight: 176
Origin: Japan AIST/NIMC Database- Spectrum MS-IW- 697
m/z	RELATIVE INTENSITY
13	10
14	20
35	30
36	50
37	10
38	10
47	179
48	179
49	5929
50	129
51	1939
52	20
63	20
83	10
127	1869
128	209
139	289
140	179
141	2129
142	30
162	60
164	20
174	30
175	179
176	9999
177	189
178	3279
179	40
