Mass Spectrum: Phosphine, methyl-
Formula: C H5 P
CAS: 593-54-4
Molecular weight: 48
m/z	RELATIVE INTENSITY
15	200
31	133
32	667
33	133
44	3133
45	5866
46	9999
47	1666
48	8666
