Mass Spectrum: Arsonous dichloride, methyl-
Formula: C H3 As Cl2
CAS: 593-89-5
Molecular weight: 160
Origin: A.A.Kutin, Moscow, Russia
m/z	RELATIVE INTENSITY
36	3563
38	1281
75	500
88	1001
89	2913
110	2402
112	791
123	200
124	1001
125	3293
126	200
127	1081
145	9999
147	6306
149	1001
160	3603
162	2502
164	510
