Mass Spectrum: Octadecane
Formula: C18 H38
CAS: 593-45-3
Molecular weight: 254
m/z	RELATIVE INTENSITY
12	40
13	30
15	160
16	110
24	20
25	60
26	340
27	1631
29	3113
30	80
36	10
37	40
38	70
39	771
40	190
41	4444
42	1501
43	8988
44	310
50	20
51	40
52	20
53	190
54	300
55	2532
56	1822
57	9999
58	430
59	10
65	30
66	20
67	260
68	250
69	1331
70	1261
71	5805
72	310
73	10
77	30
78	10
79	40
80	20
81	100
82	180
83	781
84	761
85	3974
86	250
87	10
91	20
92	10
93	10
94	10
95	30
96	80
97	480
98	530
99	871
100	70
109	10
110	40
111	210
112	390
113	621
114	50
124	20
125	90
126	310
127	500
128	50
138	10
139	30
140	250
141	430
142	50
152	10
153	10
154	200
155	380
156	50
167	10
168	160
169	340
170	50
182	120
183	310
184	40
196	90
197	260
198	40
210	50
211	170
212	30
224	30
225	90
226	20
239	10
252	20
253	10
254	991
255	190
256	20
