Mass Spectrum: Borane, trimethyl-
Formula: C3 H9 B
CAS: 593-90-8
Molecular weight: 56
Origin: CCC 0004
m/z	RELATIVE INTENSITY
10	80
11	350
12	80
13	240
14	80
15	300
22	10
23	10
24	50
25	170
26	490
27	741
28	30
29	10
30	10
31	10
32	10
34	10
35	40
36	310
37	851
38	390
39	1071
40	2552
41	9999
42	220
43	40
47	10
48	60
49	160
50	170
51	90
52	20
53	80
54	10
55	40
56	140
57	20
