Mass Spectrum: Bismuthine, trimethyl-
Formula: C3 H9 Bi
CAS: 593-91-9
Molecular weight: 254
m/z	RELATIVE INTENSITY
209	9999
210	136
222	272
223	816
224	6802
238	204
239	8298
240	340
253	204
254	4421
