Mass Spectrum: Butane, 2-chloro-2,3-dimethyl-
Formula: C6 H13 Cl
CAS: 594-57-0
Molecular weight: 120
Origin: Japan AIST/NIMC Database- Spectrum MS-IW-5277
m/z	RELATIVE INTENSITY
14	30
15	139
26	99
27	1749
28	119
29	649
31	50
35	80
36	239
37	70
38	199
39	1909
40	389
41	7909
42	3289
43	9999
44	339
47	149
49	209
50	119
51	249
52	70
53	569
54	90
55	699
56	259
57	749
58	40
59	159
61	70
62	40
63	339
65	139
67	209
68	40
69	3629
70	269
75	40
76	7369
77	6889
78	2589
79	2229
80	70
83	99
84	699
85	2679
86	439
87	30
88	70
89	40
105	489
106	30
107	159
108	10
119	30
120	10
121	10
