Mass Spectrum: 1-Butene, 2,3,3-trimethyl-
Formula: C7 H14
CAS: 594-56-9
Molecular weight: 98
Origin: Japan AIST/NIMC Database- Spectrum MS-NW-4819
m/z	RELATIVE INTENSITY
14	30
15	249
16	10
26	70
27	969
28	70
29	1549
30	30
31	20
36	20
37	40
38	149
39	1979
40	329
41	5719
42	379
43	1409
44	60
45	30
49	10
50	99
51	179
52	80
53	499
54	129
55	8589
56	1599
57	1809
58	129
59	439
60	20
61	10
62	30
63	50
64	10
65	139
66	60
67	559
68	90
69	589
70	99
71	40
72	10
73	10
74	20
75	60
77	60
78	20
79	90
80	20
81	179
82	80
83	9999
84	789
85	109
86	10
91	10
95	10
96	30
97	30
98	1839
99	199
100	10
