Mass Spectrum: Propane, 2-methyl-2-nitro-
Formula: C4 H9 N O2
CAS: 594-70-7
Molecular weight: 103
Origin: NIST Mass Spectrometry Data Center, 1992
m/z	RELATIVE INTENSITY
13	31
14	95
15	480
16	27
17	12
18	6
26	319
27	1710
28	951
29	5344
30	1559
31	48
32	91
37	191
38	538
39	3325
40	48
41	9625
42	443
43	181
44	31
46	237
49	42
50	170
51	254
52	68
53	204
54	81
55	669
56	31
57	9999
58	464
59	33
