Mass Spectrum: Acetamide, 2,2,2-trichloro-
Formula: C2 H2 Cl3 N O
CAS: 594-65-0
Molecular weight: 161
Origin: Japan AIST/NIMC Database- Spectrum MS-NW-5006
m/z	RELATIVE INTENSITY
12	40
13	10
15	10
16	149
26	40
27	199
28	409
29	40
35	289
36	199
37	90
38	69
39	10
42	40
43	199
44	9999
45	139
46	20
47	459
48	99
49	149
50	30
52	20
54	50
61	319
62	109
63	169
64	40
65	20
73	10
74	10
75	10
76	10
82	419
83	609
84	259
85	399
86	40
87	60
98	299
100	189
102	30
110	80
112	40
117	159
119	149
121	50
126	179
127	50
128	119
130	20
