Mass Spectrum: Ethane, 1,1-dichloro-1-nitro-
Formula: C2 H3 Cl2 N O2
CAS: 594-72-9
Molecular weight: 143
m/z	RELATIVE INTENSITY
14	170
15	340
16	40
24	40
25	300
26	1661
27	2913
28	1171
29	60
30	2823
31	40
32	60
35	530
36	881
37	200
38	450
39	500
40	340
41	1481
42	130
43	170
44	40
46	430
47	240
48	40
49	200
51	60
57	90
59	40
60	530
61	6466
62	1672
63	2272
64	390
65	40
77	911
78	40
79	300
82	150
83	60
84	90
96	100
97	9999
98	280
99	6396
100	80
101	921
117	120
119	110
