Mass Spectrum: Propane, 2-chloro-2-nitro-
Formula: C3 H6 Cl N O2
CAS: 594-71-8
Molecular weight: 123
Origin: J.E. WILKINSON S-CUBED, SAN DIEGO, CA.
m/z	RELATIVE INTENSITY
46	506
47	29
49	1049
50	13
51	381
52	22
53	5
54	7
55	3
57	7
58	4
59	2
61	539
62	131
63	165
64	27
72	13
73	31
74	1
75	107
76	298
77	9999
78	393
79	3243
80	84
84	1
