Mass Spectrum: Trimethylphosphine
Formula: C3 H9 P
CAS: 594-09-2
Molecular weight: 76
Origin: D.HENNEBERG, MAX-PLANCK INSTITUTE, MULHEIM, WEST GERMANY
m/z	RELATIVE INTENSITY
27	729
28	103
29	176
31	32
32	41
33	113
34	74
35	70
39	114
40	41
41	934
42	77
43	26
44	439
45	3761
46	710
47	1076
48	121
49	64
50	14
53	12
54	10
55	35
56	171
57	2688
58	1057
59	7000
60	659
61	9999
62	211
64	17
65	12
67	49
68	29
69	27
70	28
71	85
72	19
73	447
74	54
75	1649
76	6723
77	270
78	9
