Mass Spectrum: Stannane, tetramethyl-
Formula: C4 H12 Sn
CAS: 594-27-4
Molecular weight: 180
Origin: Japan AIST/NIMC Database- Spectrum MS-NW-1476
m/z	RELATIVE INTENSITY
13	10
14	60
15	319
16	10
26	20
27	80
29	10
112	40
113	20
114	20
115	20
116	509
117	569
118	989
119	779
120	1279
121	649
122	159
123	90
124	199
125	119
126	10
127	80
128	20
129	119
130	299
131	1359
132	1009
133	2179
134	1149
135	2549
136	109
137	399
138	90
139	439
140	10
141	20
142	80
143	40
144	60
145	80
146	979
147	609
148	1689
149	709
150	2229
151	139
152	309
153	20
154	389
155	30
157	299
158	10
159	199
160	139
161	4439
162	2569
163	7449
164	2919
165	9999
166	349
167	1399
168	60
169	1709
170	60
176	20
177	10
178	30
179	10
180	40
