Mass Spectrum: Ethane, hexabromo-
Formula: C2 Br6
CAS: 594-73-0
Molecular weight: 498
Origin: Susan Richardson
m/z	RELATIVE INTENSITY
39	190
40	120
79	2482
80	130
81	2602
82	10
91	1742
93	1491
103	3513
105	3003
158	130
160	390
162	150
170	240
171	240
172	1021
173	230
174	230
182	3383
183	30
184	6506
185	80
186	3223
249	280
250	30
251	961
253	1001
255	230
261	2102
263	6266
264	80
265	5865
266	60
267	1882
340	1792
342	6786
343	100
344	9999
345	150
346	6516
347	80
348	1551
420	350
421	2042
423	4064
425	3984
426	20
427	1872
429	340
498	10
500	30
502	180
504	230
506	170
508	30
