Mass Spectrum: Butane, 1,1,1,2,3,3,4,4,4-nonafluoro-2-(trifluoromethyl)-
Formula: C5 F12
CAS: 594-91-2
Molecular weight: 288
m/z	RELATIVE INTENSITY
12	10
19	10
31	430
43	10
50	160
55	10
62	20
69	9999
74	20
81	40
93	220
100	320
105	10
112	50
119	1651
124	10
131	821
143	10
150	180
162	10
169	20
181	450
200	110
219	90
269	180
288	10
