Mass Spectrum: Stibine, trimethyl-
Formula: C3 H9 Sb
CAS: 594-10-5
Molecular weight: 166
m/z	RELATIVE INTENSITY
121	2585
122	816
123	2721
124	680
125	544
134	408
135	1769
136	3673
137	1837
138	2721
139	544
147	272
148	204
149	2585
150	272
151	9999
152	408
153	6122
154	272
166	4557
167	476
168	3401
169	204
