Mass Spectrum: Propane, 2,2-dichloro-
Formula: C3 H6 Cl2
CAS: 594-20-7
Molecular weight: 112
Origin: Japan AIST/NIMC Database- Spectrum MS-NW-4425
m/z	RELATIVE INTENSITY
12	10
13	20
14	60
15	199
24	10
25	60
26	309
27	599
29	10
35	209
36	229
37	359
38	519
39	2009
40	269
41	5939
42	269
43	90
44	10
47	60
48	30
49	539
50	10
51	179
59	10
60	119
61	1499
62	309
63	669
64	109
65	80
72	20
73	50
75	119
76	279
77	9999
78	439
79	3249
80	119
82	10
83	20
85	10
95	10
96	99
97	2049
98	99
99	1289
100	40
101	209
112	20
114	10
