Mass Spectrum: Methanesulfenyl chloride, trichloro-
Formula: C Cl4 S
CAS: 594-42-3
Molecular weight: 184
Origin: NIST Mass Spectrometry Data Center, 1998.
m/z	RELATIVE INTENSITY
12	40
32	660
33	10
34	40
35	1570
36	170
37	530
38	60
39	30
44	2370
45	40
46	120
47	1850
48	20
49	630
50	10
57	10
58	10
60	10
67	1090
68	10
69	400
70	110
71	20
72	70
74	40
75	40
79	6379
80	120
81	2390
82	1520
83	120
84	960
85	10
86	160
102	40
104	30
106	10
114	3530
115	70
116	2430
117	6439
118	530
119	6119
120	80
121	1950
122	20
123	210
128	10
149	9999
151	9919
152	180
153	3450
154	60
155	460
156	10
157	10
184	2400
185	50
186	3180
187	60
188	1610
189	30
190	390
191	10
192	40
