Mass Spectrum: 1,1,1,2,2,3,3-Heptachloropropane
Formula: C3 H Cl7
CAS: 594-89-8
Molecular weight: 282
Origin: Japan AIST/NIMC Database- Spectrum MS-NW-9129
m/z	RELATIVE INTENSITY
12	10
24	10
25	10
35	189
36	489
37	409
38	119
47	369
48	80
49	119
50	30
53	149
54	99
55	10
59	50
60	199
61	20
62	60
70	10
71	429
72	609
73	149
74	179
82	279
83	9999
84	289
85	6329
86	99
87	1009
88	99
89	129
90	60
91	10
94	239
95	169
96	159
97	109
98	20
99	20
105	10
106	279
107	749
108	209
109	469
110	40
111	70
117	5249
118	50
119	4999
120	50
121	1609
122	10
123	179
129	179
130	639
131	189
132	599
133	70
134	189
135	10
136	20
141	189
142	10
143	189
144	10
145	60
147	10
164	5299
165	1159
166	6759
167	1469
168	3249
169	699
170	699
171	149
172	60
173	10
177	1139
178	40
179	1449
180	50
181	719
182	20
183	149
185	10
199	789
200	10
201	1269
202	30
203	809
204	10
205	259
207	40
211	239
212	70
213	389
214	109
215	249
216	70
217	80
218	20
219	10
247	189
249	349
250	10
251	289
252	10
253	119
255	30
