Mass Spectrum: Methane, dibromodichloro-
Formula: C Br2 Cl2
CAS: 594-18-3
Molecular weight: 240
m/z	RELATIVE INTENSITY
12	250
13	10
35	761
37	250
47	1531
48	70
49	510
50	20
79	2252
81	2222
82	740
83	30
84	741
85	30
91	731
93	731
114	50
116	60
126	881
127	50
128	1151
129	60
130	280
131	10
159	70
160	130
161	6226
162	140
163	9999
164	110
165	4484
166	50
167	631
168	30
169	70
170	30
205	681
207	1611
209	1111
211	220
