Mass Spectrum: Disulfide, bis(1-methylpropyl)
Formula: C8 H18 S2
CAS: 5943-30-6
Molecular weight: 178
Origin: NIST Mass Spectrometry Data Center
m/z	RELATIVE INTENSITY
15	10
26	40
27	561
28	50
29	1611
30	30
35	40
37	10
38	20
39	751
40	70
41	2953
42	130
43	20
45	320
46	40
47	140
49	20
50	30
51	60
52	10
53	200
54	50
55	681
56	470
57	9999
58	571
59	721
60	220
61	380
62	20
63	10
64	150
65	50
66	160
67	10
68	10
69	10
71	50
72	10
73	100
74	20
75	10
79	50
85	10
87	150
88	200
89	130
90	30
91	10
92	20
93	290
94	10
95	20
107	10
122	4804
123	300
124	440
125	20
126	10
149	20
178	3463
179	360
180	320
181	30
