Mass Spectrum: 3-Acetamidofuran
Formula: C6 H7 N O2
CAS: 59445-85-1
Molecular weight: 125
Origin: R.A. FRANICH, FOREST RES. INST., ROTORUA, NEW ZEALAND
m/z	RELATIVE INTENSITY
43	6000
54	3700
55	3500
56	400
68	200
69	200
83	9999
84	800
85	200
86	400
96	200
110	100
125	4700
126	500
