Mass Spectrum: Midazolam
Formula: C18 H13 Cl F N3
CAS: 59467-70-8
Molecular weight: 325
Origin: NIST Mass Spectrometry Data Center
m/z	RELATIVE INTENSITY
15	10
26	50
27	100
28	50
31	10
33	10
37	10
38	100
39	420
40	90
41	190
42	270
43	10
45	10
46	10
49	20
50	200
51	240
52	220
53	140
54	100
55	20
56	10
57	100
58	10
59	10
60	10
61	40
62	120
63	240
64	80
65	30
66	50
67	100
68	140
69	70
70	40
71	10
72	30
73	100
74	270
75	1031
76	220
77	170
78	50
79	40
80	70
81	140
83	80
84	120
85	120
86	100
87	260
88	160
89	160
90	90
93	50
94	200
95	460
96	150
97	450
98	190
99	250
100	520
101	711
102	460
103	80
104	40
105	90
106	70
107	150
108	70
109	230
110	490
111	811
112	180
113	170
114	290
115	490
116	140
117	70
118	70
119	40
120	100
121	200
122	170
123	180
124	390
126	210
127	360
128	1171
129	200
130	50
131	110
132	80
133	70
134	90
135	120
136	601
137	330
138	270
139	120
140	170
141	200
142	841
143	230
144	140
145	70
146	40
147	40
148	70
149	130
150	180
151	120
152	190
153	80
154	300
155	110
156	70
157	60
158	40
159	10
160	10
161	70
162	310
163	1351
164	290
165	430
166	70
167	100
168	460
169	671
170	150
171	30
172	10
173	30
174	80
175	160
176	180
177	200
178	60
179	80
180	80
181	300
182	160
183	80
184	20
185	10
186	10
187	40
188	60
189	240
190	50
191	90
192	50
193	90
194	250
195	280
196	90
197	20
198	10
199	30
200	80
201	150
202	120
203	170
204	70
205	60
206	60
207	50
208	120
209	40
210	20
211	10
212	10
213	10
214	20
215	30
216	40
217	60
218	30
219	100
220	120
221	300
222	801
223	200
224	30
225	10
226	10
227	20
228	40
229	60
230	210
231	40
232	80
233	20
234	30
235	60
236	40
237	30
238	30
239	20
240	10
241	10
242	50
243	20
244	20
245	10
246	20
247	80
248	50
249	500
250	110
251	10
252	10
254	20
255	40
256	120
257	230
258	100
259	90
260	50
261	40
262	30
263	60
264	30
265	50
266	10
267	20
268	10
269	10
270	20
271	20
272	70
273	30
274	80
275	110
276	30
277	30
278	10
279	40
280	10
281	20
282	10
283	641
284	180
285	270
286	70
287	30
288	20
289	20
290	100
291	30
292	30
293	10
295	20
296	40
297	1041
298	340
299	370
300	110
301	20
303	10
304	40
305	50
306	60
307	30
308	100
310	9999
311	2012
312	3393
313	651
314	60
322	10
323	10
324	320
325	2482
326	611
327	811
328	150
329	20
