Mass Spectrum: Kaur-15-ene
Formula: C20 H32
CAS: 5947-50-2
Molecular weight: 272
Origin: A. MCCORMICK GC-MS UNIT, CHEM. DEPT., UNIVERSITY OF GLASGOW
m/z	RELATIVE INTENSITY
51	180
53	900
54	180
55	2400
56	300
57	600
65	400
66	200
67	1700
68	400
69	2600
70	200
71	100
77	1600
78	400
79	1900
80	300
81	2000
82	600
83	1650
91	3300
92	1300
93	2800
94	9999
95	2400
96	300
97	400
103	200
104	150
105	3600
106	6450
107	1600
108	400
109	900
110	140
111	400
115	200
116	140
117	500
118	1250
119	2800
120	1200
121	600
122	240
123	2100
124	400
125	1200
126	100
128	100
129	100
131	700
132	200
133	800
134	1600
135	600
136	240
137	900
138	150
143	100
145	450
146	150
147	1450
148	400
149	200
150	150
159	700
160	200
161	700
162	200
163	2100
164	450
165	100
173	350
174	100
175	700
176	150
177	100
178	500
179	210
187	950
188	200
189	100
190	100
201	300
202	100
203	120
204	50
213	30
214	100
215	110
216	110
229	850
230	150
243	100
244	600
245	100
257	1800
258	400
272	2100
273	400
274	50
