Mass Spectrum: 2-Iodobenzyl chloride
Formula: C7 H6 Cl I
CAS: 59473-45-9
Molecular weight: 252
Origin: Chuck Anderson, Aldrich Chemical Co.
m/z	RELATIVE INTENSITY
26	56
27	68
28	15
32	1
35	39
36	35
37	167
38	339
39	767
40	106
41	7
43	26
44	20
48	7
49	95
50	422
51	400
52	31
60	26
61	259
62	712
63	1688
64	438
65	87
72	10
73	169
74	134
75	171
76	55
77	16
84	30
85	123
86	202
87	168
88	57
89	3881
90	4867
91	400
92	13
97	36
99	383
100	16
101	116
108	85
123	27
124	195
125	422
126	93
127	608
128	51
162	12
164	11
165	14
217	9999
218	712
219	19
251	20
252	5218
253	348
254	1600
255	106
