Mass Spectrum: Methyltartronic acid
Formula: C4 H6 O5
CAS: 595-98-2
Molecular weight: 134
Origin: NIST Mass Spectrometry Data Center, 1994
m/z	RELATIVE INTENSITY
12	30
13	83
14	222
15	595
16	41
17	74
18	94
19	1056
24	26
25	72
26	475
27	1440
28	501
29	2577
30	197
31	115
37	22
40	14
41	86
42	377
43	1555
44	14
45	9999
46	365
47	80
53	44
55	88
56	32
57	11
71	4
72	4
74	6
75	58
76	12
90	23
133	20
