Mass Spectrum: Cyclohexene, 6-ethenyl-6-methyl-1-(1-methylethyl)-3-(1-methylethylidene)-, (S)-
Formula: C15 H24
CAS: 5951-67-7
Molecular weight: 204
m/z	RELATIVE INTENSITY
27	821
28	140
29	671
39	961
40	170
41	2973
42	170
43	1581
44	70
50	50
51	340
52	140
53	961
54	100
55	1772
56	100
57	220
58	100
59	70
63	140
64	140
65	601
66	190
67	861
68	340
69	771
70	100
71	190
72	100
73	100
75	50
76	50
77	1251
78	310
79	1181
80	240
81	1011
82	120
83	290
87	50
88	100
89	120
90	50
91	2182
92	360
93	1942
94	310
95	480
96	70
97	50
102	50
103	240
104	120
105	2883
106	430
107	1631
108	410
109	340
110	100
111	50
115	460
116	220
117	601
118	140
119	3453
120	601
121	2112
122	430
123	190
127	190
128	340
129	340
130	190
131	651
132	170
133	1822
134	430
135	721
136	430
137	70
139	120
140	20
141	100
142	70
143	140
144	120
145	550
146	310
147	911
148	290
149	170
157	70
158	70
159	581
160	260
161	9999
162	1391
163	140
173	100
174	140
175	170
176	70
177	290
178	70
187	170
188	100
189	2402
190	380
202	190
203	50
204	2973
205	480
206	50
