Mass Spectrum: Thiirane, 2,3-dimethyl-, trans-
Formula: C4 H8 S
CAS: 5955-98-6
Molecular weight: 88
m/z	RELATIVE INTENSITY
26	1143
27	4206
28	1238
29	3587
39	3809
41	2222
45	6825
47	825
50	667
51	587
53	1825
54	2222
55	7301
56	952
58	952
59	9999
60	6190
61	1111
73	1746
88	7539
