Mass Spectrum: Naphthalene, decahydro-1,1,4a-trimethyl-6-methylene-5-(3-methyl-2,4-pentadienyl)-, [4aS-(4a.alpha.,5.alpha.,8a.beta.)]-
Formula: C20 H32
CAS: 5957-33-5
Molecular weight: 272
m/z	RELATIVE INTENSITY
27	1411
28	1982
29	2212
30	420
31	50
32	80
37	30
38	50
39	1511
40	310
41	7717
42	571
43	3023
44	3783
45	50
50	80
51	310
52	180
53	1852
54	260
55	5705
56	651
57	1742
58	130
59	50
63	100
64	100
65	891
66	360
67	3263
68	731
69	5605
70	631
71	811
72	100
73	50
75	50
76	50
77	2142
78	631
79	3914
80	1351
81	6206
82	1041
83	1461
84	260
85	420
86	80
87	80
89	80
90	50
91	4114
92	1381
93	5035
94	1511
95	5365
96	681
97	1251
98	180
99	130
100	80
101	100
102	80
103	360
104	340
105	4584
106	1641
107	3703
108	1331
109	3964
110	520
111	601
112	100
113	80
114	550
115	290
116	1071
117	470
118	470
119	3543
120	1611
121	2712
122	991
123	2342
124	731
125	360
126	50
127	160
128	390
129	520
130	210
131	1301
132	440
133	2762
134	1772
135	2242
136	1381
137	3073
138	360
139	50
140	50
141	210
142	180
143	390
144	180
145	1121
146	360
147	1641
148	1672
149	1822
150	701
151	160
152	100
153	80
154	50
155	100
156	80
157	390
158	160
159	991
160	340
161	3413
162	781
163	811
164	130
165	80
168	50
169	50
170	50
171	290
172	100
173	811
174	230
175	1561
176	490
177	490
178	130
179	50
185	260
186	230
187	2192
188	601
189	1171
190	631
191	470
192	100
199	360
200	80
201	991
202	490
203	701
204	781
205	160
206	80
213	180
214	100
215	520
216	470
217	160
218	50
227	310
228	100
229	681
230	470
231	80
241	651
242	180
243	701
244	360
245	130
255	100
256	731
257	9999
258	2242
259	310
260	50
272	3183
273	681
274	80
