Mass Spectrum: 1-Naphthalenepropanol, .alpha.-ethenyldecahydro-.alpha.,5,5,8a-tetramethyl-2-methylene-, [1S-[1.alpha.(S*),4a.beta.,8a.alpha.]]-
Formula: C20 H34 O
CAS: 596-85-0
Molecular weight: 290
m/z	RELATIVE INTENSITY
18	115
26	231
27	1038
28	327
29	1077
30	19
31	19
38	115
39	1096
40	288
41	3211
42	404
43	3577
44	115
45	77
50	77
51	231
52	154
53	1115
54	250
55	2923
56	423
57	1038
58	269
59	19
63	96
65	558
66	327
67	3615
68	1077
69	4538
70	673
71	7153
72	327
73	19
77	1192
78	442
79	3269
80	2673
81	7634
82	1423
83	1423
84	269
85	192
89	19
91	2692
92	1288
93	5307
94	2730
95	7807
96	1115
97	1538
98	154
99	19
103	212
104	135
105	2807
106	1384
107	4346
108	2019
109	4923
110	673
111	885
112	96
113	38
115	212
116	115
117	635
118	308
119	2577
120	1500
121	4153
122	1577
123	3846
124	1077
125	461
126	38
127	38
128	115
129	154
130	77
131	654
132	385
133	2057
134	2384
135	3019
136	3154
137	9999
138	1327
139	154
141	38
142	38
143	96
144	38
145	615
146	269
147	1538
148	2057
149	1673
150	692
151	288
152	96
153	96
154	19
155	19
157	58
158	38
159	673
160	250
161	1827
162	654
163	1211
164	308
165	212
166	154
167	38
171	38
172	19
173	538
174	212
175	1846
176	961
177	2538
178	461
179	423
180	58
187	1192
188	558
189	1961
190	1192
191	1769
192	500
193	115
194	19
195	135
199	19
201	885
202	1000
203	1519
204	1808
205	500
206	58
207	58
213	19
215	461
216	731
217	635
218	173
219	154
220	115
221	19
229	846
230	538
231	135
232	461
233	96
241	19
243	519
244	1115
245	461
246	38
247	58
256	58
257	5961
258	1269
259	192
261	19
262	38
263	19
271	38
272	3327
273	865
274	96
275	500
276	96
290	135
291	19
