Mass Spectrum: Cyclopropanecarboxylic acid, 3-(2,2-dichloroethenyl)-2,2-dimethyl-, ethyl ester
Formula: C10 H14 Cl2 O2
CAS: 59609-49-3
Molecular weight: 236
Origin: Japan AIST/NIMC Database- Spectrum MS-NW-7328
m/z	RELATIVE INTENSITY
14	10
15	70
18	10
26	129
27	1299
28	109
29	5049
30	159
31	90
32	10
35	30
36	159
37	60
38	179
39	1469
40	229
41	1499
42	139
43	659
44	60
45	199
46	20
47	40
48	10
49	129
50	389
51	1049
52	189
53	569
54	80
55	489
56	279
57	80
58	30
59	879
60	90
61	159
62	99
63	489
64	70
65	899
66	159
67	409
68	90
69	129
70	50
71	80
72	70
73	779
74	109
75	599
76	70
77	1549
78	319
79	469
80	189
81	279
82	90
83	409
84	80
85	699
86	99
87	599
88	169
89	349
90	70
91	4849
92	699
93	739
94	80
95	289
96	119
97	109
98	60
99	539
100	99
101	289
102	50
103	159
104	20
105	90
106	20
107	99
108	40
109	1139
110	50
111	869
112	329
113	559
114	159
115	269
116	60
117	80
118	40
119	119
120	50
121	309
122	109
123	379
124	80
125	499
126	109
127	4519
128	1149
129	1659
130	389
131	319
132	30
133	129
134	20
135	90
136	50
137	209
138	90
139	50
140	60
141	239
142	40
143	40
144	20
145	60
146	20
147	139
148	70
149	459
150	139
151	279
152	90
153	279
154	60
155	189
156	60
157	169
158	50
159	80
160	20
161	70
162	109
163	9999
164	869
165	6609
166	649
167	1169
168	199
169	50
170	30
171	60
172	30
173	1479
174	149
175	529
176	70
177	30
178	30
179	20
180	20
181	50
182	20
183	20
184	10
185	10
187	10
188	10
189	40
190	50
191	1879
192	239
193	1399
194	129
195	309
196	30
197	20
198	10
199	10
200	40
201	2879
202	369
203	1009
204	119
205	20
207	30
208	30
209	30
210	20
211	10
217	20
221	30
222	10
223	20
236	379
237	60
238	279
239	40
240	50
241	10
