Mass Spectrum: 4-Chloro-1-azabicyclo[2.2.2]octane
Formula: C7 H12 Cl N
CAS: 5960-95-2
Molecular weight: 145
Origin: J. PALECEK,DEP. ORG. CHEM.,INST. CHEM. TECHNOL.,PRAGUE,CZECH.
m/z	RELATIVE INTENSITY
27	2000
28	1330
39	1110
41	1670
42	7220
53	810
81	520
110	9999
111	980
145	80
