Mass Spectrum: Azetidine, 3-methyl-3-phenyl-
Formula: C10 H13 N
CAS: 5961-33-1
Molecular weight: 147
m/z	RELATIVE INTENSITY
77	1301
78	1802
79	200
91	1702
92	200
103	3003
104	300
115	1101
116	100
117	5205
118	9999
119	1201
120	100
147	100
