Mass Spectrum: 3,5-Dimethyl-3-heptene
Formula: C9 H18
CAS: 59643-68-4
Molecular weight: 126
Origin: NIST Mass Spectrometry Data Center, 1990.
m/z	RELATIVE INTENSITY
15	82
27	926
28	382
29	1019
39	1583
40	306
41	3011
42	271
43	446
44	66
50	127
51	333
52	157
53	843
54	66
55	9999
56	609
57	336
63	101
65	308
66	133
67	924
68	101
69	4248
70	482
71	78
77	330
78	79
79	378
80	62
81	421
82	127
83	85
91	84
95	137
97	7049
98	563
111	163
126	1635
127	161
