Mass Spectrum: .beta.-D-Glucopyranose, 4-O-.beta.-D-galactopyranosyl-
Formula: C12 H22 O11
CAS: 5965-66-2
Molecular weight: 342
Origin: Japan AIST/NIMC Database- Spectrum MS-IW-4088
m/z	RELATIVE INTENSITY
13	30
14	149
15	1009
16	30
17	319
18	1049
19	109
25	30
26	219
27	1039
28	1169
29	3199
30	589
31	5469
32	829
33	70
36	10
37	40
38	90
39	829
40	339
41	1739
42	1599
43	6759
44	2319
45	2299
46	299
47	389
49	469
50	30
51	80
52	70
53	309
54	279
55	1459
56	1269
57	4809
58	2109
59	579
60	6069
61	4899
62	229
63	30
65	30
66	30
67	149
68	629
69	2109
70	659
71	3709
72	1039
73	9999
74	1149
75	209
76	40
77	609
78	30
79	60
80	99
81	399
82	119
83	279
84	359
85	4189
86	1239
87	979
88	109
89	549
90	239
91	2169
92	90
93	60
94	40
95	209
96	339
97	1889
98	719
99	439
100	99
101	1039
102	959
103	2369
104	199
105	50
106	10
107	50
108	30
109	189
110	139
111	109
112	60
113	629
114	289
115	619
116	359
117	80
118	10
119	409
120	90
121	70
122	30
123	50
124	30
125	80
126	429
127	739
128	249
129	90
130	20
131	1009
132	199
133	469
134	109
135	50
136	30
137	50
138	20
139	40
140	30
141	30
142	20
143	50
144	529
145	999
146	129
147	40
148	10
149	199
150	20
151	20
152	20
153	20
154	10
155	30
156	20
157	40
158	10
159	20
160	20
161	60
162	99
163	719
164	60
165	30
166	10
167	10
168	10
169	20
170	10
171	20
173	209
174	30
175	30
177	20
179	20
181	10
182	10
183	10
185	20
186	10
187	20
189	10
191	309
192	30
193	20
194	10
196	20
199	10
203	20
204	30
205	20
207	10
209	10
211	10
213	10
215	10
221	20
222	10
233	10
256	20
265	10
