Mass Spectrum: 4-n-Heptylbiphenyl
Formula: C19 H24
CAS: 59662-32-7
Molecular weight: 252
Origin: NIST Mass Spectrometry Data Center, 1994
m/z	RELATIVE INTENSITY
15	14
17	33
18	62
26	18
27	672
28	43
29	914
30	27
39	403
40	61
41	986
42	76
43	718
44	35
50	39
51	156
52	34
53	68
55	145
56	31
57	53
62	36
63	142
64	25
65	120
75	50
76	84
77	233
78	58
82	44
83	46
87	30
88	32
89	151
90	25
91	136
101	35
102	107
103	53
113	24
115	391
116	45
117	38
126	68
127	95
128	248
129	40
139	176
140	26
141	117
142	34
150	51
151	217
152	1252
153	343
154	221
155	61
163	101
165	1989
166	756
167	9999
168	1936
169	192
176	39
177	46
178	256
179	170
180	338
181	118
189	25
191	24
193	33
194	25
195	37
209	29
252	2971
253	603
254	55
