Mass Spectrum: 2,2-Dimethyl-3-hydroxypropionaldehyde
Formula: C5 H10 O2
CAS: 597-31-9
Molecular weight: 102
Origin: NIST Mass Spectrometry Data Center, 1994
m/z	RELATIVE INTENSITY
14	188
15	260
26	308
27	1975
28	961
29	3474
30	263
31	2613
32	187
37	235
38	525
39	3437
40	652
41	4969
42	748
43	3100
44	366
45	2002
50	169
51	160
53	634
55	5675
56	9999
57	5943
58	267
69	220
70	112
71	395
72	1791
73	910
83	216
84	301
87	148
