Mass Spectrum: Triethylsilanol
Formula: C6 H16 O Si
CAS: 597-52-4
Molecular weight: 132
Origin: V.G. Zaikin, TIPS RAS, Moscow, Russia
m/z	RELATIVE INTENSITY
27	1591
28	90
29	1051
30	50
31	60
37	50
38	50
39	170
40	50
41	90
42	90
43	160
44	90
45	5215
46	480
47	4294
48	210
49	190
50	160
51	220
52	280
53	190
54	70
55	190
56	70
57	190
58	40
59	150
60	250
61	530
62	60
63	50
65	50
67	50
70	50
71	90
72	70
73	410
74	681
75	9999
76	731
77	380
78	60
79	290
80	30
83	40
86	40
87	40
93	40
101	40
102	40
103	8338
104	771
105	310
132	190
133	50
134	30
