Mass Spectrum: Pentaerythritol tetraacetate
Formula: C13 H20 O8
CAS: 597-71-7
Molecular weight: 304
Origin: NIST Mass Spectrometry Data Center, 1994
m/z	RELATIVE INTENSITY
12	9
14	86
15	838
16	12
17	2
18	2
26	11
27	75
29	127
30	15
31	53
39	110
40	63
41	171
42	11
43	9999
44	276
45	41
51	7
52	10
53	40
54	180
55	74
56	19
57	33
58	13
59	5
61	216
62	8
68	42
69	200
70	149
71	187
72	808
73	98
74	15
82	536
83	297
84	48
85	27
86	28
87	178
88	16
96	322
97	25
99	151
100	120
101	19
102	16
103	513
104	29
105	6
110	10
112	802
113	383
114	799
115	63
116	8
121	5
124	89
125	10
129	255
130	128
131	17
141	33
142	206
143	23
145	21
154	7
156	8
159	121
160	15
172	589
173	64
174	23
175	5
184	11
201	205
202	17
203	11
231	17
245	66
246	7
