Mass Spectrum: 2-Nitro-2-ethyl-1,3-propanediol
Formula: C5 H11 N O4
CAS: 597-09-1
Molecular weight: 149
Origin: NIST Mass Spectrometry Data Center, 1998.
m/z	RELATIVE INTENSITY
13	10
14	20
15	100
16	10
17	10
18	30
25	10
26	200
27	2180
28	730
29	5889
30	950
31	3630
32	50
33	10
36	10
37	60
38	190
39	2880
40	350
41	5799
42	540
43	7549
44	630
45	560
46	210
47	410
48	80
49	50
50	200
51	340
52	160
53	1690
54	1170
55	9999
56	1480
57	6699
58	300
59	210
60	50
61	630
62	50
63	10
65	150
66	50
67	1700
68	120
69	370
70	60
71	600
72	2280
73	1610
74	110
81	10
82	10
83	650
84	1820
85	1540
86	110
87	30
89	10
90	420
91	20
99	10
100	30
101	90
102	370
103	90
104	10
119	160
120	10
