Mass Spectrum: 3-Pentanol, 3-ethyl-
Formula: C7 H16 O
CAS: 597-49-9
Molecular weight: 116
Origin: Japan AIST/NIMC Database- Spectrum MS-NW-2702
m/z	RELATIVE INTENSITY
14	10
15	70
17	30
18	109
19	10
26	80
27	849
28	149
29	1389
30	50
31	609
32	40
37	10
38	30
39	419
40	60
41	2489
42	149
43	1249
44	40
45	7369
46	169
47	20
50	30
51	50
52	20
53	189
54	30
55	819
56	229
57	1119
58	60
59	249
60	10
63	10
65	40
66	10
67	119
68	40
69	2809
70	269
71	50
72	10
73	20
77	10
79	10
81	10
83	159
84	10
85	30
86	60
87	9999
88	539
89	30
98	279
99	50
