Mass Spectrum: 3-Hexanol, 3-methyl-
Formula: C7 H16 O
CAS: 597-96-6
Molecular weight: 116
Origin: CONTINENTAL OIL COMPANY, PONCA CITY, OKLAHOMA, USA
m/z	RELATIVE INTENSITY
12	5
13	42
14	109
15	1073
16	61
17	173
18	599
19	71
25	18
26	295
27	3075
28	591
29	2359
30	76
31	1188
32	50
37	5
38	49
39	1507
40	233
41	2980
42	497
43	4246
44	190
45	6354
46	151
47	34
50	77
51	138
52	59
53	371
54	108
55	3808
56	391
57	1303
58	283
59	1358
60	50
61	12
62	18
63	32
65	51
66	27
67	124
68	69
69	1670
70	424
71	305
72	134
73	9999
74	468
75	33
77	24
79	22
81	32
82	5
83	281
84	28
85	36
86	27
87	4562
88	248
89	12
98	173
99	37
101	1011
102	69
115	4
116	2
