Mass Spectrum: tri-4-Tolyl thiophosphate
Formula: C21 H21 O3 P S
CAS: 597-84-2
Molecular weight: 384
Origin: NIST Mass Spectrometry Data Center, 1994
m/z	RELATIVE INTENSITY
16	27
17	35
18	56
27	234
28	36
32	8
38	85
39	1013
40	92
41	199
45	379
47	295
50	243
51	797
52	428
53	526
54	44
55	36
63	1795
65	2644
66	189
67	51
69	40
75	52
77	3102
78	661
79	2089
80	209
81	24
89	435
90	489
91	3171
92	281
95	32
97	58
105	52
107	2158
108	1007
109	134
110	49
111	133
115	48
121	191
123	3741
124	559
125	216
126	39
128	27
136	79
137	117
139	237
140	39
141	43
152	177
153	595
154	200
155	445
156	42
165	301
166	258
167	74
168	42
169	1376
170	234
171	103
178	26
179	51
180	34
181	263
182	138
183	64
184	26
185	1325
186	196
187	93
195	59
196	123
197	160
198	1104
199	287
200	45
201	23
211	76
212	776
213	489
214	1529
215	329
216	97
217	26
227	96
229	38
230	136
231	41
243	1195
244	214
245	519
246	86
257	28
259	119
260	373
261	1163
262	189
275	111
276	226
277	1559
278	295
279	96
292	268
293	1402
294	217
295	89
351	86
352	70
367	31
368	56
383	2891
384	9999
385	2538
386	833
387	140
