Mass Spectrum: 2,2-Dimethylbutanedioic acid
Formula: C6 H10 O4
CAS: 597-43-3
Molecular weight: 146
Origin: NIST Mass Spectrometry Data Center, 1994
m/z	RELATIVE INTENSITY
14	168
15	368
26	230
27	1230
28	282
29	1803
30	168
31	649
32	83
37	196
38	524
39	3445
40	737
41	4841
42	1126
43	2232
44	83
45	2925
50	236
51	318
53	691
54	417
55	2624
56	3913
57	1008
58	236
59	9999
60	1346
69	1803
70	150
71	148
72	1194
73	131
82	382
83	449
85	847
87	6462
88	363
100	3122
101	1092
102	755
113	424
118	97
128	464
129	143
