Mass Spectrum: Lorcainide
Formula: C22 H27 Cl N2 O
CAS: 59729-31-6
Molecular weight: 370
Origin: Patti Price, Georgia Bureau of Investigation, Decatur, Georgia
m/z	RELATIVE INTENSITY
41	1181
42	1871
43	1721
51	240
53	240
54	310
55	2041
56	5635
57	680
58	1411
63	250
65	1351
66	90
67	550
68	490
69	420
70	820
71	860
72	640
75	270
77	100
79	50
80	500
81	290
82	9999
83	1090
84	2382
85	320
86	340
89	410
90	280
91	7486
92	650
93	60
94	130
95	60
96	360
98	2111
99	390
101	40
110	7807
111	1271
112	80
113	180
117	180
118	180
119	60
124	2722
125	1801
126	1541
127	700
128	130
129	160
130	410
131	170
138	280
140	210
152	340
153	310
154	280
155	100
164	190
166	290
167	230
168	140
169	220
180	1251
181	160
182	420
194	120
223	40
232	130
235	300
236	370
237	1231
238	320
239	320
240	30
245	130
246	300
251	3803
253	1171
254	210
263	30
279	680
281	240
299	40
320	90
355	9758
356	2131
357	3553
358	730
359	90
369	100
370	1000
371	220
372	360
