Mass Spectrum: 5-Methyl-4-octanol
Formula: C9 H20 O
CAS: 59734-23-5
Molecular weight: 144
Origin: NIST Mass Spectrometry Data Center, 1990.
m/z	RELATIVE INTENSITY
14	11
15	119
17	31
18	111
19	92
27	1859
28	412
29	1645
30	108
31	980
32	18
39	1051
40	252
41	2546
42	672
43	4023
44	456
45	1172
50	34
51	112
53	349
55	9999
56	896
57	1185
58	265
59	749
65	51
67	143
68	62
69	482
70	647
71	874
72	1597
73	5363
74	256
77	39
79	45
81	54
83	1770
84	347
85	49
97	181
98	29
99	42
100	155
101	755
102	49
126	196
