Mass Spectrum: Fluridone
Formula: C19 H14 F3 N O
CAS: 59756-60-4
Molecular weight: 329
Origin: NIST Mass Spectrometry Data Center, 1990.
m/z	RELATIVE INTENSITY
15	51
17	7
18	51
20	5
28	54
29	4
30	6
38	11
39	71
40	2
41	2
42	445
43	13
44	5
50	46
51	79
52	28
53	12
54	7
55	6
57	9
61	5
62	39
63	103
64	18
65	20
66	5
69	65
70	5
73	1
74	40
75	83
76	73
77	77
78	12
79	5
81	14
83	4
85	4
86	11
87	41
88	50
89	152
90	87
91	21
93	12
94	29
95	28
97	4
98	14
99	24
100	17
101	58
102	132
103	53
104	19
106	10
107	39
108	23
109	19
111	7
112	11
113	16
114	37
115	64
116	65
117	20
118	23
119	40
120	43
122	11
123	13
124	8
125	16
126	19
127	51
128	48
129	39
130	53
131	21
132	22
133	35
134	30
135	4
136	4
137	41
138	22
139	49
140	25
141	10
142	6
143	8
144	15
145	25
147	53
149	12
150	18
151	63
152	14
154	259
156	24
157	41
158	59
159	10
160	3
161	6
162	10
163	42
164	126
166	5
167	8
168	10
169	42
170	30
171	9
172	7
173	4
175	10
176	10
177	11
178	16
180	6
181	7
182	21
183	23
184	30
185	7
186	15
187	21
188	30
189	133
190	59
191	38
192	10
193	8
194	8
195	8
196	7
197	4
198	13
199	13
200	12
201	13
202	47
203	27
204	21
205	9
206	11
207	16
208	7
209	6
210	4
212	5
213	8
214	23
215	20
216	60
217	53
218	59
219	17
220	18
221	10
223	11
224	4
225	10
226	11
227	9
228	10
229	8
230	46
231	83
232	42
233	48
234	17
235	6
236	12
237	10
238	50
239	22
240	12
241	6
242	8
243	37
244	36
245	31
246	12
247	5
248	4
249	5
250	7
251	12
252	7
253	6
255	4
256	16
257	35
258	49
259	166
260	112
261	27
262	10
263	10
264	13
265	18
266	11
267	23
268	11
269	4
270	7
271	6
272	5
273	6
274	16
275	8
276	5
278	6
279	7
280	13
282	7
283	11
284	51
285	168
286	77
287	19
288	19
289	7
290	6
292	37
293	17
294	20
295	4
298	26
299	52
300	146
301	81
302	20
306	9
307	14
308	15
309	54
310	227
311	61
312	92
313	181
314	46
315	10
325	11
326	51
328	9999
329	4568
330	758
331	73
332	6
