Mass Spectrum: 2-Chloro-2-propen-1-ol
Formula: C3 H5 Cl O
CAS: 5976-47-6
Molecular weight: 92
Origin: NIST Mass Spectrometry Data Center, 1990.
m/z	RELATIVE INTENSITY
14	85
16	168
18	109
24	130
25	426
26	1534
27	2873
28	1126
29	6123
30	517
31	3381
32	200
35	235
36	290
37	691
38	869
39	1577
40	350
42	93
49	310
51	97
53	295
54	141
55	1296
56	93
57	9999
58	299
60	266
61	969
62	681
63	638
64	190
65	265
73	85
91	279
92	1025
93	153
94	327
