Mass Spectrum: Bromoacetyl bromide
Formula: C2 H2 Br2 O
CAS: 598-21-0
Molecular weight: 200
Origin: Japan AIST/NIMC Database- Spectrum MS-NW-2899
m/z	RELATIVE INTENSITY
12	109
13	419
14	1059
28	20
29	10
40	60
41	549
42	3449
43	99
79	799
80	209
81	779
82	209
91	259
92	449
93	2989
94	609
95	2759
96	189
107	60
109	60
120	439
121	9999
122	649
123	9619
124	219
125	20
