Mass Spectrum: Acetamide, 2-amino-
Formula: C2 H6 N2 O
CAS: 598-41-4
Molecular weight: 74
Origin: Japan AIST/NIMC Database- Spectrum MS-NW-5419
m/z	RELATIVE INTENSITY
13	10
14	30
15	20
16	159
26	20
27	199
28	1789
29	399
30	9999
31	239
39	20
40	40
41	50
42	119
43	109
44	859
45	139
46	30
53	20
54	20
55	50
56	20
57	20
58	10
71	30
73	10
74	699
75	20
