Mass Spectrum: Carbamic acid, methyl ester
Formula: C2 H5 N O2
CAS: 598-55-0
Molecular weight: 75
Origin: NIST Mass Spectrometry Data Center, 1998.
m/z	RELATIVE INTENSITY
14	50
15	360
16	260
17	120
18	90
27	50
28	230
29	950
30	470
31	1650
32	340
33	50
42	130
43	640
44	9999
45	2090
46	2820
47	240
59	240
74	40
75	2510
76	60
