Mass Spectrum: Urea, N,N-dimethyl-
Formula: C3 H8 N2 O
CAS: 598-94-7
Molecular weight: 88
Origin: Japan AIST/NIMC Database- Spectrum MS-NW-5005
m/z	RELATIVE INTENSITY
12	50
13	60
14	179
15	1949
16	239
17	99
18	839
19	10
26	80
27	329
28	1789
29	429
30	1129
31	30
32	10
38	50
39	90
40	259
41	339
42	2139
43	1649
44	9999
45	4289
46	119
53	70
54	20
55	40
56	199
57	30
58	20
59	70
60	10
67	10
69	459
70	289
71	20
72	659
73	99
87	10
88	4319
89	219
90	20
