Mass Spectrum: Propionyl bromide
Formula: C3 H5 Br O
CAS: 598-22-1
Molecular weight: 136
Origin: Japan AIST/NIMC Database- Spectrum MS-NW-2720
m/z	RELATIVE INTENSITY
13	80
14	129
15	159
16	10
17	10
18	30
24	60
25	329
26	2239
27	6669
28	2159
29	9999
30	239
31	40
32	20
35	20
36	119
37	149
38	139
39	189
40	20
41	199
42	689
43	60
44	40
45	80
49	10
52	30
53	109
54	219
55	379
56	1199
57	9959
58	339
59	20
63	60
65	20
69	30
71	30
73	70
74	119
75	10
76	10
79	619
80	389
81	599
82	379
91	30
92	20
93	90
94	20
95	70
104	20
105	10
106	10
107	189
109	189
110	10
119	10
121	10
