Mass Spectrum: Butane, 1,1'-sulfonylbis-
Formula: C8 H18 O2 S
CAS: 598-04-9
Molecular weight: 178
Origin: Japan AIST/NIMC Database- Spectrum MS-NW-1886
m/z	RELATIVE INTENSITY
15	60
18	10
26	109
27	1469
28	639
29	5509
30	119
31	20
38	30
39	849
40	99
41	4999
42	219
43	209
45	40
46	10
47	20
48	20
50	20
51	40
52	10
53	129
54	40
55	849
56	1579
57	9999
58	439
59	10
61	10
63	119
64	10
65	70
66	30
67	129
71	10
80	90
81	379
82	10
83	20
84	10
85	70
89	40
93	50
94	99
105	109
106	20
107	90
108	10
119	90
121	759
122	70
123	2999
124	159
125	139
136	50
149	149
150	10
161	90
163	10
178	269
179	90
180	20
