Mass Spectrum: Cyclobutane, methyl-
Formula: C5 H10
CAS: 598-61-8
Molecular weight: 70
Origin: NIST Mass Spectrometry Data Center, 1990.
m/z	RELATIVE INTENSITY
15	253
25	40
26	500
27	1785
28	40
29	533
30	24
31	38
37	198
38	464
39	2702
40	999
41	4224
42	9999
43	444
49	41
50	169
51	213
52	61
53	282
54	41
55	2673
56	141
61	43
62	57
63	48
65	39
67	73
68	25
70	1313
71	90
