Mass Spectrum: Methyl nitrate
Formula: C H3 N O3
CAS: 598-58-3
Molecular weight: 77
m/z	RELATIVE INTENSITY
2	50
12	90
13	140
14	350
15	631
16	200
17	40
18	60
19	10
20	10
25	10
26	10
27	40
28	270
29	2492
30	3143
31	90
32	280
46	9999
47	50
48	40
60	10
61	10
76	50
77	10
