Mass Spectrum: Propanoic acid, 2,2-dimethyl-, methyl ester
Formula: C6 H12 O2
CAS: 598-98-1
Molecular weight: 116
Origin: NIST Mass Spectrometry Data Center, 1992
m/z	RELATIVE INTENSITY
12	9
13	33
14	209
15	2210
16	33
17	5
18	15
24	3
26	193
27	1198
28	390
29	3294
30	155
31	112
33	37
37	84
38	296
39	2166
40	3
41	5849
42	587
43	357
44	30
45	147
46	3
49	16
50	75
51	99
52	31
53	169
54	3
55	546
56	2969
57	9999
58	494
59	893
60	35
61	68
67	8
69	407
70	88
71	26
72	8
73	1579
74	84
75	8
82	8
83	24
85	759
86	39
87	4
99	19
101	369
102	23
116	470
117	39
118	2
