Mass Spectrum: Urea, methyl-
Formula: C2 H6 N2 O
CAS: 598-50-5
Molecular weight: 74
Origin: Japan AIST/NIMC Database- Spectrum MS-NW-1722
m/z	RELATIVE INTENSITY
12	90
13	50
14	99
15	1429
16	599
17	719
18	399
26	219
27	909
28	4769
29	1299
30	9999
31	5499
32	199
38	30
39	60
40	30
41	50
42	1349
43	6019
44	2209
45	179
46	10
50	20
51	30
52	10
53	30
54	30
55	90
56	379
57	759
58	839
59	30
74	4059
75	129
76	10
