Mass Spectrum: Dimethylketene
Formula: C4 H6 O
CAS: 598-26-5
Molecular weight: 70
m/z	RELATIVE INTENSITY
25	330
26	1001
27	3143
29	440
36	200
37	1001
38	1331
39	5805
40	3143
41	9999
42	3453
43	1221
51	60
52	50
53	220
54	70
55	310
56	200
57	20
58	40
68	130
69	70
70	4654
71	240
