Mass Spectrum: Butanedioic acid, didodecyl ester
Formula: C28 H54 O4
CAS: 5980-15-4
Molecular weight: 454
Origin: Japan AIST/NIMC Database- Spectrum MS-NW-6235
m/z	RELATIVE INTENSITY
15	10
17	10
18	30
26	40
27	619
28	519
29	1749
30	50
31	80
38	10
39	319
40	80
41	3309
42	1099
43	6269
44	219
45	60
49	10
51	10
52	10
53	159
54	459
55	4329
56	2329
57	7509
58	349
59	10
60	10
61	30
64	10
65	20
66	50
67	499
68	689
69	3079
70	1779
71	4629
72	269
73	239
74	249
75	129
76	10
77	10
79	50
80	30
81	269
82	779
83	2279
84	1059
85	3249
86	209
87	20
91	10
93	10
94	20
95	129
96	339
97	1399
98	619
99	1549
100	139
101	9999
102	459
103	90
106	10
108	10
109	50
110	149
111	679
112	339
113	1089
114	109
115	10
116	20
117	20
118	60
119	7529
120	349
121	70
123	20
124	60
125	269
126	189
127	479
128	70
129	50
130	10
131	30
137	10
138	60
139	109
140	339
141	90
142	20
143	10
144	10
145	30
146	20
147	50
148	10
152	10
153	10
154	30
155	20
156	20
157	20
158	10
159	10
166	60
167	40
168	559
169	3289
170	439
171	30
175	10
182	10
183	20
184	10
185	30
187	10
189	10
196	20
197	30
198	50
199	10
200	20
201	80
202	10
211	10
212	80
213	60
214	10
225	10
226	50
227	10
229	10
239	10
240	10
241	20
242	30
252	30
253	10
255	10
259	80
260	10
267	10
268	149
269	639
270	129
271	20
284	10
285	10
286	20
287	6229
288	1159
289	159
290	20
313	10
314	40
315	80
316	10
324	10
327	30
328	10
355	30
356	10
397	10
411	10
425	10
453	10
454	70
455	40
456	10
