Mass Spectrum: n-Propyl sec-butyl disulfide
Formula: C7 H16 S2
CAS: 59849-54-6
Molecular weight: 164
Origin: H.J. MOECKEL & J. WEISS, HAHN-MEITNER-INST. BERLIN, W. G
m/z	RELATIVE INTENSITY
15	113
24	1
25	8
26	190
27	2606
29	6667
30	158
31	15
33	19
34	26
35	97
36	1
37	24
38	92
39	1258
40	180
41	6121
42	577
43	9999
44	411
45	609
46	185
47	348
48	17
49	29
50	20
51	38
52	15
53	139
54	84
55	566
56	315
57	4663
58	326
59	487
60	161
61	238
62	14
63	14
64	115
65	76
66	830
67	24
68	69
69	12
70	4
71	34
72	17
73	231
74	28
75	14
76	11
77	5
78	16
79	88
80	9
81	8
85	4
86	3
87	73
88	115
89	47
90	13
91	5
92	9
93	75
94	5
95	7
103	5
105	1
106	5
107	160
108	3517
109	210
110	312
111	14
112	7
121	3
122	18
123	2
124	1
135	8
162	1
163	61
164	1540
165	165
166	140
167	13
168	4
