Mass Spectrum: 2-Furanmethanol, 5-ethenyltetrahydro-.alpha.,.alpha.,5-trimethyl-, cis-
Formula: C10 H18 O2
CAS: 5989-33-3
Molecular weight: 170
Origin: NIST Mass Spectrometry Data Center, 2010
m/z	RELATIVE INTENSITY
26	30
27	450
28	80
29	420
30	10
31	631
37	10
38	50
39	1171
40	250
41	2372
42	380
43	4274
44	200
45	320
46	10
50	80
51	220
52	120
53	1001
54	250
55	3793
56	370
57	631
58	190
59	9999
60	350
61	40
62	20
63	50
64	30
65	390
66	160
67	3563
68	3643
69	1732
70	871
71	1551
72	821
73	210
74	20
75	10
77	591
78	110
79	1501
80	130
81	2162
82	490
83	1712
84	671
85	811
86	90
87	40
91	681
92	70
93	4064
94	5255
95	871
96	110
97	1171
98	130
102	230
103	20
107	150
109	500
110	280
111	3984
112	751
113	80
123	30
124	10
125	150
126	20
127	30
137	731
138	70
143	170
144	10
152	40
153	10
155	530
156	50
