Mass Spectrum: Cyclohexene, 1-methyl-4-(1-methylethenyl)-, (S)-
Formula: C10 H16
CAS: 5989-54-8
Molecular weight: 136
Origin: CONTINENTAL OIL CO., PONCA CITY, OKLA, USA
m/z	RELATIVE INTENSITY
14	60
15	433
16	26
25	9
26	172
27	2463
28	589
29	1021
30	54
36	4
37	67
38	224
39	3135
40	1043
41	2758
42	512
43	364
44	54
49	17
50	243
51	733
52	384
53	2280
54	248
55	805
56	98
57	65
58	18
60	15
61	28
62	84
63	249
64	102
65	582
66	1027
67	4142
68	9999
69	1015
70	130
71	54
74	37
75	67
76	54
77	1198
78	386
79	2039
80	958
81	1009
82	246
83	58
84	36
85	22
86	16
89	82
90	94
91	1271
92	1361
93	4615
94	1630
95	838
96	131
97	28
98	15
99	6
100	3
101	8
102	26
103	95
104	55
105	400
106	141
107	1318
108	486
109	73
110	15
111	8
112	4
113	4
114	3
115	60
116	21
117	46
118	14
119	109
120	40
121	1585
122	222
123	30
124	18
125	15
126	4
128	7
129	4
131	4
132	7
133	7
134	15
135	27
136	1646
137	182
138	9
