Mass Spectrum: N-Hydroxybenzenesulfonamide
Formula: C6 H7 N O3 S
CAS: 599-71-3
Molecular weight: 173
Origin: Japan AIST/NIMC Database- Spectrum MS-NW-1927
m/z	RELATIVE INTENSITY
17	20
18	60
26	30
27	219
28	90
30	569
31	90
32	90
37	70
38	159
39	449
40	30
41	10
44	20
45	90
46	20
47	10
48	139
49	70
50	1079
51	3239
52	259
53	99
54	10
55	10
57	20
58	20
61	30
62	60
63	109
64	199
65	539
66	199
67	10
69	109
70	20
71	20
73	70
74	339
75	209
76	259
77	9999
78	2489
79	239
80	10
81	30
82	30
84	10
91	10
92	70
93	379
94	559
95	40
97	199
98	10
99	10
108	20
109	80
110	70
111	10
125	389
126	60
127	20
140	10
141	1759
142	1739
143	739
144	129
145	30
154	10
157	349
158	80
159	20
173	649
174	60
175	30
