Mass Spectrum: Benzene, (ethylsulfonyl)-
Formula: C8 H10 O2 S
CAS: 599-70-2
Molecular weight: 170
Origin: NIST Mass Spectrometry Data Center, 1990.
m/z	RELATIVE INTENSITY
18	23
26	319
27	1596
28	313
29	1931
30	45
37	67
38	171
39	609
44	35
45	187
48	89
49	137
50	1772
51	5138
52	417
53	165
58	50
61	61
62	84
63	188
64	78
65	663
66	416
69	146
70	49
73	122
74	461
75	300
76	49
77	9999
78	7118
79	531
81	64
82	73
91	541
92	105
94	5623
95	453
96	60
97	396
103	38
105	58
108	40
109	60
110	29
125	648
126	141
141	2152
142	1549
143	200
144	70
170	2787
171	288
172	137
