Mass Spectrum: di-p-Tolyl sulfone
Formula: C14 H14 O2 S
CAS: 599-66-6
Molecular weight: 246
Origin: NIST Mass Spectrometry Data Center
m/z	RELATIVE INTENSITY
17	110
27	170
38	140
39	1541
40	110
41	300
45	230
50	250
51	651
52	190
53	210
62	270
63	951
64	320
65	2813
66	210
67	490
71	60
74	60
75	100
77	1341
78	360
79	561
87	80
88	60
89	1031
90	651
91	2692
92	450
95	120
107	871
108	140
111	440
115	100
122	90
123	80
139	9999
140	1011
141	480
152	170
165	601
166	290
167	230
181	160
246	5045
247	791
248	280
