Mass Spectrum: Benzenesulfonamide, 4-methyl-N-(4-methylphenyl)-
Formula: C14 H15 N O2 S
CAS: 599-86-0
Molecular weight: 261
Origin: Japan AIST/NIMC Database- Spectrum MS-IW-3961
m/z	RELATIVE INTENSITY
17	20
18	70
27	80
28	70
29	10
32	10
38	20
39	299
40	30
41	90
42	10
43	10
44	10
45	20
48	10
50	80
51	249
52	189
53	169
54	20
55	10
57	10
61	10
62	40
63	199
64	90
65	659
66	70
67	30
69	10
71	10
74	10
75	20
76	30
77	1349
78	439
79	1629
80	139
81	10
89	179
90	99
91	1659
92	209
93	20
95	10
97	10
102	10
103	10
104	179
105	229
106	9999
107	1189
108	60
111	10
115	20
116	10
118	10
120	10
121	10
122	10
123	30
124	50
127	10
128	10
129	10
139	159
140	40
141	20
142	10
149	10
152	20
153	20
154	20
155	429
156	40
157	30
165	10
166	10
167	60
168	10
169	10
170	40
178	10
179	10
180	99
181	129
182	409
183	60
193	10
194	50
195	30
196	479
197	149
198	20
259	20
260	10
261	5629
262	929
263	339
264	40
