Mass Spectrum: Benzenesulfonamide, N,N,4-trimethyl-
Formula: C9 H13 N O2 S
CAS: 599-69-9
Molecular weight: 199
Origin: NIST Mass Spectrometry Data Center, 2010
m/z	RELATIVE INTENSITY
15	70
26	10
27	60
28	190
29	20
30	20
32	10
37	10
38	60
39	571
40	70
41	210
42	751
43	320
44	2732
45	130
46	10
48	20
49	10
50	160
51	300
52	80
53	50
54	20
58	20
59	10
60	20
61	40
62	160
63	591
64	190
65	2022
66	130
67	110
69	40
70	10
71	20
73	30
74	50
75	50
76	40
77	210
78	80
79	70
80	40
81	10
82	10
84	10
85	20
86	30
87	30
88	20
89	641
90	290
91	9999
92	2162
93	160
94	20
95	20
96	10
97	10
103	10
104	40
105	50
106	30
107	110
108	120
109	20
110	10
111	30
117	10
118	80
119	50
120	90
121	40
122	20
123	20
124	10
132	10
134	400
135	230
136	20
138	10
139	280
140	50
141	10
142	10
155	1822
156	220
157	210
158	20
159	10
197	10
198	250
199	3563
200	370
201	160
202	20
