Mass Spectrum: 2,4,6,8-Tetramethyl-1-undecene
Formula: C15 H30
CAS: 59920-26-2
Molecular weight: 210
Origin: T. KOJIMA, DEP. CHEM., NATL. DEF. ACAD., YOKOSUKA-SHI, JAPAN
m/z	RELATIVE INTENSITY
27	5300
28	5400
29	6000
39	2300
41	7500
42	2000
43	9999
44	1200
53	600
55	4000
56	1800
57	3600
68	1300
69	3000
70	1700
71	1600
83	1200
84	1100
85	1000
97	100
98	100
99	100
111	100
112	100
