Mass Spectrum: Acetic acid, bromo-, 2-methylpropyl ester
Formula: C6 H11 Br O2
CAS: 59956-48-8
Molecular weight: 194
Origin: V.Zaikin,Topchiev Inst.Petrochem.Synth.,Moscow
m/z	RELATIVE INTENSITY
26	90
27	601
28	180
29	1081
30	50
31	130
35	20
36	150
37	20
38	60
39	651
40	140
41	2442
42	1161
43	1702
44	20
45	30
49	10
54	20
55	380
56	9999
57	2372
58	90
59	80
60	20
69	100
71	320
72	470
73	310
74	10
82	50
91	10
92	30
93	480
94	60
95	470
96	30
97	20
115	30
120	60
121	1581
122	90
123	1541
124	30
139	40
141	30
151	160
152	50
153	170
154	50
155	20
