Mass Spectrum: (S)-(-)-1-Amino-2-(methoxymethyl)-pyrrolidine
Formula: C6 H14 N2 O
CAS: 59983-39-0
Molecular weight: 130
Origin: Chuck Anderson, Aldrich Chemical Co.
m/z	RELATIVE INTENSITY
15	222
17	36
18	193
26	72
27	469
28	544
29	599
30	449
31	187
32	20
33	18
38	25
39	434
40	68
41	1759
42	304
43	1014
44	219
45	694
51	18
52	10
53	90
54	81
55	242
56	242
57	359
58	79
67	82
68	1419
69	133
70	73
71	164
80	22
82	34
83	153
84	5
85	9999
86	399
87	4
97	45
98	10
130	232
131	4
