Mass Spectrum: 4,4-Dimethyl-3-oxopentanenitrile
Formula: C7 H11 N O
CAS: 59997-51-2
Molecular weight: 125
Origin: Japan AIST/NIMC Database- Spectrum MS-IW-2678
m/z	RELATIVE INTENSITY
14	20
15	90
26	70
27	639
28	209
29	3799
30	90
31	10
37	50
38	129
39	1339
40	879
41	6139
42	479
43	119
49	10
50	70
51	90
52	40
53	139
54	99
55	639
56	179
57	9999
58	549
59	10
63	10
64	10
65	30
66	20
67	50
68	899
69	819
70	90
82	409
83	50
85	249
86	10
92	20
97	1089
98	70
110	90
125	40
