Mass Spectrum: Tributyrin
Formula: C15 H26 O6
CAS: 60-01-5
Molecular weight: 302
Origin: Japan AIST/NIMC Database- Spectrum MS-NW- 509
m/z	RELATIVE INTENSITY
15	40
26	10
27	439
28	50
29	90
31	30
39	129
40	20
41	569
42	149
43	3019
44	90
45	20
55	109
57	70
60	30
69	60
70	119
71	9999
72	449
73	40
87	20
89	40
101	10
103	20
114	10
116	20
126	40
129	20
131	139
141	10
142	60
143	359
144	199
145	169
158	60
159	60
171	30
186	119
187	10
199	60
201	669
202	70
214	149
215	289
216	30
229	109
230	10
