Mass Spectrum: Ethylenediaminetetraacetic acid
Formula: C10 H16 N2 O8
CAS: 60-00-4
Molecular weight: 292
Origin: Japan AIST/NIMC Database- Spectrum MS-NW-4134
m/z	RELATIVE INTENSITY
12	139
13	40
14	269
15	1539
16	399
17	549
18	2009
25	20
26	189
27	659
28	3939
29	479
30	859
31	559
32	30
34	10
36	20
37	10
38	60
39	209
40	309
41	1329
42	9999
43	1549
44	7599
45	479
46	50
48	10
49	109
50	20
51	30
52	70
53	80
54	409
55	629
56	4639
57	1409
58	3969
59	299
60	959
61	30
62	20
63	80
64	10
65	20
66	30
67	70
68	209
69	309
70	1279
71	569
72	359
73	99
74	609
75	30
76	10
77	20
78	20
79	30
80	70
81	80
82	169
83	309
84	389
85	379
86	879
87	149
88	4949
89	209
90	40
91	30
92	20
93	20
94	50
95	90
96	80
97	319
98	359
99	1329
100	679
101	1609
102	2779
103	189
104	40
105	20
106	20
107	20
108	40
109	60
110	60
111	179
112	99
113	359
114	1619
115	429
116	139
117	30
118	259
119	30
120	30
121	30
122	30
123	40
124	40
125	90
126	80
127	1219
128	1779
129	279
130	80
131	80
132	199
133	30
134	30
135	30
136	20
137	40
138	50
139	90
140	129
141	239
142	439
143	2569
144	259
145	80
146	7239
147	499
148	90
149	30
150	20
151	40
152	30
153	30
154	40
155	40
156	40
157	309
158	70
159	319
160	319
161	40
162	10
163	20
164	20
165	20
166	30
167	20
168	20
169	30
170	109
171	4119
172	1119
173	139
174	20
175	20
176	20
177	10
178	20
179	10
180	20
181	20
182	10
183	40
184	99
185	60
186	60
187	409
188	50
189	20
190	10
191	10
193	10
194	10
195	10
196	10
197	10
198	40
199	20
200	30
201	30
202	20
203	20
204	20
205	10
208	10
209	10
210	10
211	10
212	10
214	10
215	40
216	129
217	20
218	10
226	10
228	20
229	99
230	60
231	10
232	10
233	20
240	10
243	10
246	40
247	80
248	20
256	40
257	10
274	109
275	20
292	60
293	10
