Mass Spectrum: Aminocaproic acid
Formula: C6 H13 N O2
CAS: 60-32-2
Molecular weight: 131
Origin: James Little,Eastman Chem.Co.,Kingsport,TN
m/z	RELATIVE INTENSITY
27	611
28	460
29	380
30	9999
31	310
39	450
41	681
42	390
43	310
44	340
45	1401
54	90
55	480
56	340
59	290
60	130
67	200
69	180
70	60
72	801
73	190
74	30
83	30
84	90
85	30
86	130
95	20
112	40
114	120
130	20
131	150
132	140
