Mass Spectrum: Dieldrin
Formula: C12 H8 Cl6 O
CAS: 60-57-1
Molecular weight: 378
Origin: NIST Mass Spectrometry Data Center, 1990.
m/z	RELATIVE INTENSITY
27	679
29	588
38	197
39	1197
40	227
41	196
50	412
51	874
52	375
53	1100
54	537
55	272
57	191
61	240
62	339
63	543
65	374
66	441
67	215
69	152
73	555
74	478
75	543
77	2673
79	9999
80	1268
81	3635
82	3278
83	371
84	286
85	519
86	519
87	340
88	131
89	228
91	285
96	277
97	398
98	375
99	389
101	237
106	182
107	1303
108	1539
109	605
110	272
111	254
113	460
115	268
117	267
119	295
120	271
121	335
122	152
123	186
125	184
130	207
131	242
132	190
133	350
135	225
137	248
138	221
139	322
141	300
143	459
145	293
147	367
149	365
165	188
167	325
169	281
170	245
171	217
172	218
173	537
174	195
175	330
181	209
183	304
191	466
193	511
195	258
201	228
203	323
204	247
205	246
206	230
207	375
208	201
209	490
211	174
216	218
217	294
218	177
219	317
229	151
230	254
235	705
236	326
237	1100
238	329
239	803
240	218
241	423
242	176
243	905
244	264
245	764
246	246
247	315
251	218
253	209
255	294
257	208
261	1254
263	2026
264	242
265	1402
266	211
267	504
270	182
272	312
273	210
274	251
275	818
276	202
277	1510
278	251
279	1481
280	245
281	739
283	244
309	145
343	339
345	601
347	373
378	278
380	466
382	429
