Mass Spectrum: Promethazine
Formula: C17 H20 N2 S
CAS: 60-87-7
Molecular weight: 284
Origin: Tox21 Consortium/NIST Mass Spectrometry Data Center, 2012
m/z	RELATIVE INTENSITY
27	10
28	20
29	20
30	10
39	40
40	10
41	30
42	210
43	50
44	190
45	40
50	20
51	50
52	10
54	20
55	30
56	230
57	110
58	40
62	10
63	50
64	10
65	60
66	10
68	10
69	80
70	250
71	150
72	9999
73	500
74	20
75	30
76	30
77	80
78	20
79	10
81	10
82	30
83	10
84	20
85	20
86	30
87	10
88	10
89	30
90	20
91	10
92	10
93	20
94	10
95	20
96	10
100	10
101	20
102	20
103	10
104	10
105	10
106	10
107	10
108	50
109	60
110	10
111	10
113	20
114	20
115	40
116	10
117	10
120	10
121	20
122	10
125	10
126	30
127	90
128	60
129	10
130	10
133	10
134	20
135	10
136	10
137	10
138	20
139	130
140	80
141	20
145	20
146	10
147	10
150	20
151	80
152	220
153	80
154	130
155	20
158	10
159	10
164	30
165	20
166	80
167	80
168	20
169	10
170	20
171	70
172	30
173	10
177	20
178	80
179	150
180	571
181	90
182	10
183	40
184	90
185	20
186	10
191	10
196	50
197	80
198	350
199	90
200	20
204	10
205	10
206	10
208	10
209	10
210	50
211	20
212	140
213	240
214	40
215	10
222	10
223	20
224	20
225	10
236	10
238	10
239	10
240	10
282	10
284	350
285	70
286	20
