Mass Spectrum: Mepazine
Formula: C19 H22 N2 S
CAS: 60-89-9
Molecular weight: 310
Origin: MI-0104
m/z	RELATIVE INTENSITY
35	591
36	270
37	270
38	170
39	611
40	170
41	5595
42	2793
43	991
44	3443
45	440
47	1611
48	691
49	691
50	370
51	360
52	90
53	290
54	190
55	591
56	440
57	841
58	7997
59	440
60	40
63	260
64	140
65	390
66	90
67	360
68	410
69	811
70	1041
71	260
72	90
74	140
75	170
76	490
77	190
78	90
79	60
80	90
81	290
82	1241
83	871
84	1211
85	561
86	140
87	891
88	10
89	170
90	90
91	90
92	50
93	90
94	210
95	190
96	6146
97	1892
98	1892
99	390
100	10
101	90
102	160
103	90
104	90
105	10
107	40
108	290
109	390
110	1992
111	9248
112	8498
113	891
114	110
115	190
116	90
117	140
118	260
119	140
120	170
121	110
122	90
125	20
126	140
127	390
128	360
129	110
130	90
133	10
134	140
135	60
136	90
137	40
138	90
139	340
140	290
141	90
142	40
145	90
146	110
147	90
148	40
149	40
150	90
151	290
152	741
153	440
154	891
155	741
156	90
157	40
159	90
160	90
161	90
163	40
164	140
165	140
166	440
167	490
168	190
169	90
170	140
171	390
172	190
173	90
176	90
177	140
178	490
179	991
180	4094
181	741
182	140
183	190
184	390
185	190
186	90
187	40
195	40
196	290
197	490
198	4194
199	6556
200	1041
201	390
202	140
203	90
204	40
205	190
206	140
207	140
208	40
209	90
210	190
211	240
212	6496
213	4094
214	741
215	290
216	90
217	40
218	40
219	90
220	40
221	40
222	40
223	290
224	240
225	140
226	90
227	40
234	40
235	40
236	290
237	90
238	440
239	140
240	90
241	40
248	40
249	90
250	90
251	140
252	90
253	40
254	40
308	90
309	190
310	9999
311	2893
312	791
313	140
314	90
