Mass Spectrum: Adenosine 3',5'-cyclic monophosphate
Formula: C10 H12 N5 O6 P
CAS: 60-92-4
Molecular weight: 329
Origin: Japan AIST/NIMC Database- Spectrum MS-IW-2302
m/z	RELATIVE INTENSITY
12	20
13	10
14	20
15	60
16	70
17	319
18	909
19	50
25	10
26	50
27	349
28	3759
29	699
30	50
31	20
32	40
36	10
37	20
38	269
39	419
40	359
41	199
42	109
43	859
44	2559
45	129
46	20
47	40
50	30
51	50
52	70
53	709
54	1449
55	329
56	269
57	70
58	50
59	10
60	60
63	109
64	80
65	249
66	739
67	259
68	219
69	99
70	419
71	50
73	10
77	40
78	30
79	40
80	429
81	1829
82	99
83	30
84	20
85	40
86	10
91	80
92	219
93	109
94	60
95	289
96	50
97	30
98	499
99	30
104	10
105	20
106	10
107	289
108	3739
109	229
110	20
111	10
114	20
115	10
118	99
119	149
120	60
121	30
122	10
123	30
124	10
128	10
133	20
134	279
135	9999
136	1069
137	50
138	10
141	10
146	10
147	10
148	40
149	40
150	10
158	10
159	20
160	10
161	10
162	10
164	10
172	30
173	30
174	20
175	20
176	10
177	10
184	10
185	20
186	20
187	20
188	20
189	50
201	10
202	30
203	20
210	10
213	10
215	10
231	60
232	10
