Mass Spectrum: Methotrimeprazine
Formula: C19 H24 N2 O S
CAS: 60-99-1
Molecular weight: 328
Origin: AAFS Toxicology Section MS DB Committee, U. Alberta, Canada
m/z	RELATIVE INTENSITY
29	70
30	370
39	90
40	10
41	130
42	590
43	140
44	230
45	120
46	10
49	30
51	60
52	20
53	20
54	10
55	40
56	100
58	9999
59	400
61	10
63	90
64	20
65	70
66	10
67	20
68	20
69	150
70	150
71	90
72	10
73	10
74	20
75	50
76	50
77	100
78	30
80	20
81	20
82	100
83	20
84	440
85	110
86	130
87	20
88	40
90	10
91	40
92	20
93	30
94	50
95	90
96	60
97	40
98	70
99	120
100	1321
101	120
102	50
103	10
104	10
105	10
106	10
108	60
109	70
111	10
113	20
114	50
115	60
116	10
117	10
119	10
120	30
121	30
122	10
125	10
126	30
127	70
128	60
129	30
133	20
134	40
135	40
136	20
138	10
139	60
140	140
141	150
142	10
145	20
146	30
147	10
148	10
149	10
150	10
151	10
152	70
153	100
154	90
158	60
160	10
164	50
165	30
166	120
167	270
168	50
169	20
170	10
171	90
172	30
173	10
174	10
177	10
178	30
179	30
180	40
182	10
183	20
184	140
185	920
186	200
187	60
189	10
191	20
192	40
193	30
194	30
195	70
196	80
197	80
198	210
199	170
200	60
204	10
205	10
206	10
207	60
208	50
209	70
210	540
211	110
212	80
213	50
214	80
215	10
220	10
221	20
222	20
223	60
224	30
225	30
226	70
227	190
228	1020
229	1040
230	200
231	60
234	30
235	30
236	50
237	40
238	50
239	40
240	80
241	40
242	700
243	380
244	100
245	10
250	30
251	20
252	30
253	80
254	110
255	70
256	20
266	30
267	50
268	640
269	490
270	410
271	70
272	20
281	10
282	1251
283	760
284	210
285	50
328	7937
329	1791
330	520
331	80
332	10
