Mass Spectrum: 2,3-Pentanedione
Formula: C5 H8 O2
CAS: 600-14-6
Molecular weight: 100
Origin: NIST Mass Spectrometry Data Center, 1990.
m/z	RELATIVE INTENSITY
13	136
14	492
15	1433
16	65
18	40
24	34
25	181
26	928
27	2580
28	984
29	6081
30	159
31	80
32	16
37	93
38	86
39	164
40	90
41	270
42	1241
43	9999
44	362
45	42
50	48
53	115
54	37
55	104
56	37
57	3285
58	131
100	1116
101	82
