Mass Spectrum: Propanoic acid, 2-oxo-, methyl ester
Formula: C4 H6 O3
CAS: 600-22-6
Molecular weight: 102
Origin: NIST Mass Spectrometry Data Center, 1998.
m/z	RELATIVE INTENSITY
13	20
14	100
15	640
16	10
24	10
25	30
26	70
27	50
28	20
29	450
30	90
31	60
33	10
37	10
40	20
41	150
42	780
43	9999
44	390
45	150
52	10
53	50
54	10
56	100
59	590
60	20
74	10
102	1150
103	50
104	10
