Mass Spectrum: Butane, 2-nitro-
Formula: C4 H9 N O2
CAS: 600-24-8
Molecular weight: 103
m/z	RELATIVE INTENSITY
25	143
26	928
27	3928
28	1619
29	9999
30	2881
31	143
32	214
37	238
38	405
39	2785
40	928
41	8571
42	3095
43	1571
44	881
45	167
46	309
49	119
50	309
51	405
52	214
53	429
54	524
55	1190
56	1619
57	6761
58	381
83	143
84	143
