Mass Spectrum: 1,5-Anhydro-2,3,4,6-tetra-O-methyl-D-mannitol
Formula: C10 H20 O5
CAS: 6001-00-9
Molecular weight: 220
Origin: L. E. Elvebak II et. al. Carbohydrate Research 274 (1995) 71-83
m/z	RELATIVE INTENSITY
41	331
43	286
45	1120
58	663
59	423
69	263
71	2948
73	960
75	2868
84	286
85	366
87	583
88	2126
90	537
99	2948
101	9999
103	1600
112	411
113	194
115	1108
117	149
126	194
127	251
130	286
131	423
143	2171
156	171
157	160
158	480
161	171
175	2126
176	251
188	526
220	69
