Mass Spectrum: Benzenepropanoic acid, 3-phenylpropyl ester
Formula: C18 H20 O2
CAS: 60045-27-4
Molecular weight: 268
Origin: V.Zaikin,Topchiev Inst.Petrochem.Synth.,Moscow
m/z	RELATIVE INTENSITY
26	30
27	40
28	10
29	50
35	10
36	80
38	20
39	80
40	90
41	90
42	10
43	20
50	50
51	130
52	50
53	20
55	20
57	10
58	10
62	20
63	70
64	20
65	250
66	20
67	10
69	10
73	20
74	30
75	30
76	30
77	390
78	270
79	260
80	20
89	80
90	50
91	3323
92	330
93	30
96	30
102	70
103	400
104	731
105	851
106	90
107	310
108	30
115	220
116	80
117	2833
118	9999
119	951
120	70
131	70
132	70
133	150
134	30
135	20
147	20
149	30
150	50
165	20
166	10
167	30
177	10
178	20
179	20
180	10
191	30
193	20
267	10
