Mass Spectrum: Ethanone, 1-cyclopentyl-
Formula: C7 H12 O
CAS: 6004-60-0
Molecular weight: 112
Origin: NIST Mass Spectrometry Data Center, 1990.
m/z	RELATIVE INTENSITY
14	29
15	266
26	164
27	876
29	195
37	105
38	381
39	2897
40	695
41	6173
42	1017
43	8051
44	238
45	184
50	199
51	297
52	112
53	608
54	174
55	500
62	99
63	143
65	359
66	251
67	2402
68	2993
69	9999
70	99
71	6642
72	271
77	107
79	197
84	360
97	1153
112	3475
113	306
