Mass Spectrum: n-Tridecylcyclohexane
Formula: C19 H38
CAS: 6006-33-3
Molecular weight: 266
Origin: Japan AIST/NIMC Database- Spectrum MS-IW-2222
m/z	RELATIVE INTENSITY
27	109
28	30
29	329
39	99
40	20
41	1099
42	189
43	1069
44	30
53	80
54	209
55	2299
56	419
57	889
58	40
65	20
66	20
67	879
68	299
69	839
70	319
71	419
72	20
77	20
79	40
80	10
81	219
82	9999
83	8849
84	759
85	279
86	10
91	10
92	10
95	60
96	339
97	979
98	219
99	60
105	10
106	10
109	40
110	90
111	379
112	139
113	40
123	10
124	40
125	229
126	99
127	30
138	40
139	179
140	80
141	20
152	20
153	70
154	119
155	20
166	10
167	30
168	20
169	10
180	10
181	20
182	459
183	169
184	10
195	20
196	10
209	20
210	10
223	10
238	20
265	20
266	3129
267	659
268	60
