Mass Spectrum: n-Pentadecylcyclohexane
Formula: C21 H42
CAS: 6006-95-7
Molecular weight: 294
Origin: Japan AIST/NIMC Database- Spectrum MS-IW-2221
m/z	RELATIVE INTENSITY
27	149
28	50
29	449
30	10
39	169
40	40
41	1639
42	299
43	1689
44	50
51	10
53	129
54	299
55	3169
56	589
57	1319
58	60
65	30
66	30
67	1019
68	379
69	1179
70	409
71	639
72	30
77	30
78	10
79	70
80	30
81	339
82	9999
83	9149
84	789
85	399
86	20
91	20
92	10
93	10
94	10
95	109
96	379
97	1089
98	209
99	80
109	60
110	99
111	439
112	149
113	50
123	10
124	60
125	249
126	109
127	40
137	10
138	60
139	229
140	90
141	30
152	30
153	109
154	60
155	20
166	20
167	70
168	50
169	10
180	10
181	40
182	109
183	20
194	10
195	20
196	20
197	10
208	10
209	20
210	539
211	219
212	30
223	10
224	10
237	10
238	10
266	50
267	10
292	10
293	20
294	3459
295	799
296	80
