Mass Spectrum: Pentacosane, 13-phenyl-
Formula: C31 H56
CAS: 6006-90-2
Molecular weight: 428
m/z	RELATIVE INTENSITY
36	10
37	10
38	20
39	70
40	60
41	1832
42	370
43	3343
44	130
45	10
46	10
47	10
48	10
49	10
50	20
51	40
52	20
53	90
54	100
55	1211
56	300
57	2002
58	100
59	10
60	10
61	10
62	10
63	10
64	10
65	60
66	20
67	160
68	70
69	571
70	140
71	941
72	60
73	10
74	10
75	10
76	10
77	110
78	120
79	110
80	20
81	100
82	50
83	340
84	60
85	611
86	40
87	10
88	10
89	10
90	20
91	9999
92	1071
93	90
94	30
95	60
96	30
97	230
98	40
99	180
100	20
101	10
102	10
103	90
104	1181
105	2172
106	220
107	20
108	10
109	30
110	10
111	100
112	20
113	100
114	10
115	100
116	50
117	671
118	420
119	1151
120	230
121	30
122	10
123	10
124	10
125	30
126	10
127	40
128	30
129	60
130	40
131	220
132	50
133	931
134	120
135	10
136	10
137	10
138	10
139	10
140	10
141	30
142	10
143	20
144	10
145	50
146	10
147	811
148	100
149	10
150	10
151	10
152	10
153	10
154	10
155	90
156	10
157	10
158	10
159	20
160	10
161	651
162	90
163	10
164	10
165	10
166	10
167	10
168	10
169	10
170	10
171	10
172	10
173	10
174	10
175	480
176	70
177	10
178	10
179	10
180	10
181	10
182	10
183	40
184	10
185	10
186	10
187	10
188	10
189	300
190	50
191	10
192	10
193	10
194	10
195	10
196	10
197	20
198	10
199	10
200	10
201	10
202	10
203	160
204	30
205	10
206	10
207	10
208	10
209	10
210	10
211	10
213	10
214	10
215	10
216	10
217	70
218	10
219	10
225	10
227	10
228	10
229	10
230	10
231	20
232	10
233	10
237	10
239	10
241	10
242	10
243	10
244	10
245	10
246	10
247	10
248	10
249	10
251	10
252	10
253	10
254	10
255	10
256	10
257	20
258	230
259	1301
260	731
261	100
262	10
263	10
264	10
265	10
266	10
267	10
268	10
269	10
270	10
271	10
272	20
273	10
274	20
275	10
276	10
277	10
278	10
279	10
280	10
281	10
282	10
283	10
284	10
285	10
286	10
287	10
288	10
289	10
292	10
293	10
294	10
295	10
296	10
297	10
298	10
299	10
300	10
301	10
302	10
309	10
310	10
311	10
312	10
313	10
314	10
315	10
316	10
400	10
401	10
420	10
421	10
422	10
423	10
424	10
425	10
426	10
427	10
428	280
429	80
430	10
