Mass Spectrum: 3,4-Dimethoxyphenylacethydrazide
Formula: C10 H14 N2 O3
CAS: 60075-23-2
Molecular weight: 210
Origin: NIST Mass Spectrometry Data Center, 1994
m/z	RELATIVE INTENSITY
15	388
17	42
18	112
24	6
25	6
26	25
27	130
28	191
29	352
30	180
31	1031
32	310
35	4
36	20
37	38
38	155
39	876
40	71
41	81
42	43
43	78
44	73
45	48
46	10
47	8
50	284
51	808
52	230
53	213
54	38
55	92
56	13
57	23
58	8
59	53
60	7
61	27
62	113
63	398
64	283
65	956
66	220
67	70
68	27
69	17
73	20
74	60
75	51
76	143
77	747
78	743
79	462
80	188
81	54
82	15
85	14
86	17
87	19
89	377
90	485
91	515
92	240
93	92
94	103
95	46
96	12
97	6
101	5
102	7
103	23
105	661
106	886
107	1689
108	559
109	91
110	12
113	7
116	16
117	42
118	132
119	121
120	98
121	90
122	74
123	26
130	12
131	17
132	37
133	73
134	12
135	625
136	221
137	189
138	37
145	6
146	17
147	16
148	29
149	93
150	6
151	9999
152	982
153	84
154	7
160	9
162	348
163	613
164	260
165	1181
166	141
167	14
168	6
178	2605
179	374
180	82
181	8
192	33
193	62
194	70
195	153
196	30
210	2757
211	300
212	36
