Mass Spectrum: 2-Ethyl-2-methyl-1,3-dithiolane
Formula: C6 H12 S2
CAS: 6008-81-7
Molecular weight: 148
Origin: P. Vainiotalo, Dep. Chem., Univ. Joensuu, Joensuu, Finland
m/z	RELATIVE INTENSITY
27	1000
29	400
39	500
41	400
44	300
45	1100
46	200
47	400
53	400
54	300
55	3000
56	400
58	600
59	5000
60	400
61	1200
71	200
73	600
87	300
88	1000
105	300
119	9999
120	1000
121	1000
133	1000
148	3900
149	400
150	400
