Mass Spectrum: 1,2-Dithiepane
Formula: C5 H10 S2
CAS: 6008-51-1
Molecular weight: 134
Origin: D. CORINA, DEP. BIOCHEM., UNIV. SOUTHAMPTON, SOUTHAMPTON, U.
m/z	RELATIVE INTENSITY
41	9500
45	1900
47	1700
55	2300
60	1600
61	1500
64	1100
67	1900
68	2200
69	9999
74	630
85	540
87	3900
88	290
89	260
97	290
100	330
101	1000
102	2000
103	1300
105	330
134	7800
135	520
136	760
