Mass Spectrum: 1,3-Dithiolane, 2,2-dimethyl-
Formula: C5 H10 S2
CAS: 6008-78-2
Molecular weight: 134
Origin: P. Vainiotalo, Dep. Chem., Univ. Joensuu, Joensuu, Finland
m/z	RELATIVE INTENSITY
27	500
39	900
41	2200
44	200
45	1600
46	400
47	600
55	400
58	900
59	9700
60	900
61	1700
64	400
66	400
73	600
74	3300
75	900
76	600
78	300
87	400
106	4500
107	300
108	400
119	7100
120	500
121	700
134	9999
135	900
136	1000
