Mass Spectrum: Cholest-1-en-3-one, (5.alpha.)-
Formula: C27 H44 O
CAS: 601-55-8
Molecular weight: 384
Origin: CARL DJERASSI DEPT OF CHEM STANFORD UNIV STANFORD CALIF 94305
m/z	RELATIVE INTENSITY
41	3100
42	2400
43	3300
44	400
51	100
52	100
53	700
54	100
55	2700
56	500
57	1400
65	300
66	100
67	1600
68	500
69	1700
70	300
71	600
77	900
78	300
79	1900
80	1000
81	2500
82	500
83	800
84	100
85	100
91	1600
92	500
93	1900
94	800
95	2700
96	600
97	1000
98	200
104	100
105	1300
106	600
107	2900
108	1400
109	3900
110	1000
111	1200
117	300
118	300
119	900
120	500
121	2700
122	9999
123	3300
124	1000
125	300
129	100
131	400
132	100
133	1000
134	3000
135	1200
136	500
137	500
138	300
141	100
142	100
143	200
144	100
145	400
146	200
147	900
148	300
149	800
150	100
151	600
152	100
157	100
158	100
159	400
160	600
161	800
162	200
163	300
164	300
165	200
173	300
174	500
175	400
176	200
177	900
178	100
185	200
187	500
188	200
189	300
190	100
191	100
193	100
199	200
200	100
201	300
202	700
203	300
204	100
206	200
207	100
211	100
213	100
215	300
216	200
217	100
218	200
229	1700
230	1100
231	500
232	200
241	200
243	100
244	500
245	500
246	100
247	200
248	100
250	100
257	100
258	100
259	100
260	300
261	100
262	100
263	800
264	100
270	100
271	700
272	600
273	200
274	100
275	200
288	500
289	200
299	100
300	1600
301	400
307	100
314	100
327	100
342	2900
343	600
344	100
369	700
370	200
384	3200
385	1300
386	200
