Mass Spectrum: Cholestan-3-one, (5.beta.)-
Formula: C27 H46 O
CAS: 601-53-6
Molecular weight: 386
Origin: H. Fales, LC, NHLBI, NIH, Bethesda, MD 20892
m/z	RELATIVE INTENSITY
41	4016
42	310
43	9999
44	285
53	711
54	70
55	6183
56	978
57	3452
58	163
59	33
65	268
66	145
67	2632
68	1396
69	2416
70	496
71	1434
72	126
77	685
78	210
79	2248
80	513
81	3128
82	825
83	1164
84	164
85	290
88	56
91	1472
92	287
93	1978
94	638
95	2624
96	424
97	783
98	88
99	94
103	60
104	55
105	1296
106	459
107	1734
108	851
109	1644
110	563
111	471
112	25
115	66
117	297
118	290
119	883
120	482
121	1338
122	1052
123	1386
124	1040
125	231
129	128
130	27
131	445
132	185
133	650
134	296
135	711
136	358
137	534
138	93
143	145
144	27
145	433
146	176
147	593
148	208
149	525
150	107
151	133
152	131
157	163
158	64
159	766
160	321
161	1112
162	826
163	1007
164	249
165	328
171	149
172	28
173	366
174	268
175	534
176	584
177	217
178	55
179	189
185	95
187	200
188	87
189	362
190	189
191	113
199	286
200	27
201	126
202	25
203	300
204	229
205	63
208	54
213	500
214	188
215	388
216	90
217	1038
218	276
219	100
227	32
228	29
229	123
230	90
231	3996
232	2560
233	601
234	96
245	52
246	406
247	207
255	156
260	59
261	77
262	25
263	68
271	26
272	29
273	74
275	56
301	28
315	106
316	759
317	194
329	108
353	306
354	64
368	57
371	532
372	174
386	3612
387	1116
388	205
