Mass Spectrum: Cholest-5-en-3-one
Formula: C27 H44 O
CAS: 601-54-7
Molecular weight: 384
Origin: Japan AIST/NIMC Database- Spectrum MS-NW-9626
m/z	RELATIVE INTENSITY
17	10
18	40
27	60
28	10
29	179
39	50
40	10
41	539
42	50
43	809
44	20
53	99
54	20
55	629
56	60
57	409
58	10
65	40
66	20
67	329
68	60
69	309
70	30
71	179
72	10
77	159
78	40
79	409
80	60
81	449
82	60
83	189
84	10
85	40
87	10
91	409
92	70
93	429
94	159
95	619
96	80
97	169
98	10
99	20
103	30
104	20
105	429
106	159
107	509
108	189
109	469
110	80
111	159
112	10
113	20
115	50
116	20
117	139
118	70
119	369
120	219
121	509
122	319
123	469
124	3229
125	369
126	20
127	30
128	40
129	80
130	40
131	269
132	99
133	459
134	359
135	759
136	319
137	369
138	139
139	30
141	30
142	30
143	119
144	50
145	289
146	159
147	819
148	519
149	739
150	129
151	99
152	40
153	20
154	10
155	60
156	40
157	139
158	70
159	349
160	179
161	369
162	169
163	289
164	60
165	119
166	20
167	10
168	10
169	60
170	50
171	169
172	80
173	359
174	339
175	369
176	189
177	239
178	50
179	80
180	20
181	20
182	10
183	70
184	60
185	179
186	99
187	569
188	209
189	259
190	90
191	159
192	50
193	159
194	30
195	30
196	10
197	119
198	50
199	119
200	90
201	339
202	289
203	219
204	60
205	159
206	219
207	99
208	20
209	20
210	10
211	519
212	209
213	269
214	99
215	289
216	179
217	189
218	60
219	159
220	99
221	30
222	80
223	20
224	10
225	119
226	169
227	219
228	179
229	4549
230	1299
231	499
232	169
233	129
234	30
235	20
236	40
237	199
238	40
239	60
240	20
241	50
242	30
243	419
244	569
245	869
246	289
247	849
248	249
249	50
250	10
251	30
252	20
253	399
254	90
255	90
256	60
257	459
258	249
259	209
260	3429
261	4439
262	919
263	149
264	20
267	50
268	30
269	319
270	169
271	1779
272	459
273	159
274	169
275	309
276	70
277	10
281	80
282	30
283	70
284	30
285	109
286	389
287	159
288	50
289	20
295	20
296	10
297	80
298	309
299	1389
300	579
301	209
302	159
303	40
304	10
309	10
311	40
312	30
313	149
314	109
315	40
316	30
323	10
324	30
325	40
326	80
327	989
328	309
329	90
330	20
331	10
337	10
338	40
339	20
340	209
341	219
342	3349
343	929
344	119
345	10
349	10
351	319
352	90
353	60
354	40
355	109
356	229
357	60
358	10
364	20
365	60
366	589
367	399
368	189
369	1839
370	579
371	139
372	20
380	60
381	30
382	559
383	329
384	9999
385	3209
386	649
387	90
388	10
