Mass Spectrum: Cholesteryl palmitate
Formula: C43 H76 O2
CAS: 601-34-3
Molecular weight: 624
Origin: Organic Synthesis Lab, MSU, Moscow.TRC 806
m/z	RELATIVE INTENSITY
26	39
27	419
29	789
39	349
40	149
41	1799
42	299
43	2928
44	218
45	29
51	29
53	169
54	79
55	1878
56	339
57	2188
58	79
60	809
61	199
65	59
66	19
67	709
68	149
69	1198
70	219
71	999
72	19
73	839
74	39
77	179
78	59
79	519
80	89
81	1429
82	209
83	719
84	89
85	359
87	99
91	739
92	169
93	709
94	189
95	1059
96	119
97	439
98	139
99	59
101	49
104	39
105	889
106	309
107	939
108	279
109	679
110	69
111	199
112	19
113	39
115	129
116	49
117	239
118	159
119	529
120	599
121	769
122	159
123	249
124	29
125	59
128	69
129	389
130	59
131	419
132	109
133	579
134	159
135	459
136	69
137	89
141	49
142	39
143	409
144	179
145	1009
146	379
147	1209
148	289
149	339
151	49
155	29
157	259
158	229
159	519
160	339
161	499
162	99
163	179
165	39
171	179
172	59
173	189
174	59
175	109
176	19
177	39
179	9
183	19
185	169
186	49
187	69
189	29
191	39
193	39
197	29
199	149
200	49
201	109
205	119
206	89
207	19
212	19
213	519
214	129
215	159
216	29
219	19
227	79
228	119
229	109
230	19
239	49
241	39
243	19
245	59
246	89
247	769
248	179
253	99
254	49
255	619
256	449
257	129
259	49
260	539
261	139
274	29
275	29
283	109
284	39
314	39
326	79
351	39
352	19
353	779
354	239
355	69
366	369
367	239
368	9999
369	3819
370	699
371	69
624	69
625	29
