Mass Spectrum: Thiophene, tetrachloro-
Formula: C4 Cl4 S
CAS: 6012-97-1
Molecular weight: 220
Origin: RADIAN CORP
m/z	RELATIVE INTENSITY
24	50
35	1380
36	510
37	460
44	810
47	1280
48	210
49	290
56	360
57	20
58	230
59	240
61	70
67	80
68	830
69	70
70	110
71	2090
72	110
73	690
74	10
75	260
76	180
77	30
79	3050
80	1000
81	1190
82	250
83	370
84	40
85	110
91	730
93	300
94	390
96	240
98	20
103	2090
104	80
105	780
106	1110
107	60
108	720
110	460
111	470
112	250
113	60
115	2090
116	110
117	790
118	280
119	30
120	160
126	220
128	150
141	3080
142	80
143	2980
144	100
145	960
147	100
150	1050
151	50
152	730
153	50
154	150
185	4060
186	230
187	4070
188	220
189	1440
190	70
191	200
220	7440
221	400
222	9999
223	520
224	5130
225	270
226	1210
227	60
228	130
