Mass Spectrum: 1,1'-Biphenyl, 2,2',3,4,4',5,6'-Heptachloro-
Formula: C12 H3 Cl7
CAS: 60145-23-5
Molecular weight: 392
Origin: T.L.Hayes, Battelle Columbus Laboratories, Columbus, OH 43221
m/z	RELATIVE INTENSITY
31	83
32	161
35	667
36	971
37	771
38	392
39	44
41	74
42	23
43	118
44	119
45	25
47	554
48	115
49	449
50	417
51	48
53	36
54	29
55	163
56	44
57	55
58	43
59	103
60	577
61	1108
62	494
63	63
64	38
66	105
67	141
68	34
69	109
70	54
71	323
72	987
73	2289
74	1225
75	244
76	11
77	93
78	334
79	326
81	87
82	126
83	489
84	1425
85	1299
86	787
87	171
88	17
89	41
90	1262
91	513
92	545
94	107
95	522
96	1182
97	1127
98	1252
99	306
100	54
101	66
102	133
103	63
104	29
105	11
106	307
107	1047
108	3092
109	2531
110	1383
111	350
112	63
114	341
115	165
116	36
117	7
118	605
119	449
120	1262
121	908
122	1134
123	278
124	12
125	44
126	3681
127	2875
128	1010
129	78
130	190
131	658
132	1723
133	1057
134	720
135	266
136	86
137	24
138	48
139	23
140	21
141	213
142	314
143	2391
144	3457
145	2374
146	2174
147	895
148	142
149	105
150	74
151	39
153	122
154	135
155	265
156	686
157	520
158	284
159	168
161	4368
162	6767
163	4403
164	1569
165	343
166	226
167	363
168	394
169	480
170	190
171	186
173	13
175	16
177	92
178	801
179	955
180	1806
181	1643
182	2019
183	549
184	593
185	123
187	77
188	91
190	147
191	178
192	533
193	234
194	335
195	92
196	837
197	1588
198	1550
199	850
200	216
201	125
202	147
203	275
204	319
205	371
206	198
207	91
208	176
209	25
210	28
211	14
212	17
213	17
214	50
215	311
216	1276
217	1418
218	968
219	864
220	285
221	210
222	39
226	98
227	188
228	206
229	159
230	170
231	87
232	56
233	13
236	12
237	108
238	220
239	199
240	245
241	97
242	158
244	84
245	24
248	17
250	138
251	413
252	4312
253	926
254	4284
255	656
256	1399
257	216
258	202
259	35
260	12
261	12
262	227
263	34
264	249
266	78
267	42
268	65
270	23
271	12
272	83
273	13
274	56
276	74
277	93
278	48
279	27
280	12
281	82
282	23
283	19
285	11
286	499
287	885
288	862
289	1066
290	557
291	537
292	116
293	145
294	43
296	13
298	26
300	21
301	13
302	28
305	12
309	11
313	36
315	12
316	12
319	12
321	34
322	6332
323	903
324	9999
325	1299
326	6269
327	742
328	2019
329	214
330	354
331	70
332	31
334	11
339	12
341	25
345	11
347	24
349	13
353	11
355	11
356	37
357	1522
358	295
359	2759
360	550
361	2125
362	309
363	940
364	167
365	268
366	45
367	72
368	11
369	18
373	11
376	35
378	24
380	17
385	24
388	27
392	4389
393	580
394	9578
395	1174
396	9017
397	1201
398	4810
399	648
400	1600
401	209
402	310
403	58
