Mass Spectrum: 1,1'-Biphenyl, 2,2',3,3',5-pentachloro-
Formula: C12 H5 Cl5
CAS: 60145-20-2
Molecular weight: 324
Origin: Organic Synthesis Lab, MSU, Moscow.TRC 1304
m/z	RELATIVE INTENSITY
51	107
54	41
55	30
60	147
61	500
62	276
63	107
66	45
67	60
72	154
73	821
74	1032
75	450
76	68
79	124
83	79
84	298
85	637
86	445
87	176
89	22
92	733
93	288
94	43
96	203
97	508
98	908
99	428
100	31
107	138
108	430
109	1856
110	1388
111	409
112	88
114	153
115	111
119	75
120	213
121	244
122	482
123	563
124	78
127	2671
128	2144
129	765
131	100
132	252
133	321
134	157
135	180
143	138
144	548
145	842
146	623
147	538
148	432
149	578
150	85
156	50
157	156
158	180
159	124
160	75
162	359
163	648
164	328
165	128
166	46
167	40
168	71
169	119
170	109
171	87
172	78
173	35
181	84
182	275
183	598
184	2443
185	360
186	773
187	118
192	46
193	59
194	136
196	68
204	66
205	84
206	88
207	50
208	39
217	104
218	771
219	872
220	676
221	433
222	210
223	85
228	98
230	65
252	45
254	4891
255	825
256	4747
257	672
258	2053
259	298
260	158
261	45
288	215
289	3178
290	635
291	4484
292	723
293	2185
294	297
295	419
296	99
297	51
324	6341
325	1069
326	9999
327	1211
328	5801
329	839
330	2121
331	190
332	379
333	61
