Mass Spectrum: Fenarimol
Formula: C17 H12 Cl2 N2 O
CAS: 60168-88-9
Molecular weight: 330
Origin: NIST Mass Spectrometry Data Center, 1998.
m/z	RELATIVE INTENSITY
25	10
26	50
27	90
28	220
29	20
35	10
36	20
37	20
38	80
39	220
40	40
41	20
42	10
49	40
50	850
51	1090
52	1310
53	1910
54	100
55	30
56	20
60	10
61	100
62	220
63	490
64	70
65	30
66	20
67	20
68	50
69	20
72	20
73	160
74	580
75	2660
76	980
77	1050
78	140
79	2160
80	840
81	210
83	20
84	60
85	250
86	240
87	400
88	510
89	180
90	60
91	20
92	20
93	20
94	700
95	110
97	70
98	150
99	300
100	150
101	670
102	540
104	290
105	280
107	7999
108	590
109	100
110	180
111	3900
112	1910
113	1780
114	700
115	110
117	10
120	140
121	90
122	50
123	90
124	50
125	170
126	210
127	140
128	350
129	180
130	110
131	30
132	10
133	20
134	30
135	50
136	250
137	230
138	10
139	9999
140	920
141	3240
142	280
143	30
145	10
146	10
147	150
148	290
149	180
150	390
151	490
152	1280
153	240
154	30
155	100
156	190
157	50
158	20
159	10
160	40
161	100
162	160
163	390
164	230
165	140
166	50
167	30
168	10
173	50
174	120
175	120
176	370
177	150
178	170
179	40
180	20
181	90
182	20
183	560
184	110
185	70
186	160
187	630
188	420
189	970
190	370
191	1580
192	250
193	500
194	60
197	20
198	20
199	200
200	40
201	120
202	70
203	70
204	70
205	90
206	30
210	10
211	20
212	110
213	60
214	400
215	210
216	120
217	150
218	10
219	5019
220	620
221	1590
222	230
223	460
224	120
225	200
226	40
227	30
228	10
229	20
230	20
231	30
232	50
233	70
234	10
235	30
236	10
237	20
238	20
239	40
240	40
241	80
242	150
243	190
244	50
245	10
246	10
248	30
249	20
251	3870
252	620
253	2500
254	350
255	420
256	60
257	20
258	10
259	90
260	20
261	20
265	20
266	30
267	30
268	90
269	20
270	20
274	10
275	10
276	30
277	180
278	100
279	140
280	40
281	30
282	10
286	10
293	30
294	70
295	790
296	180
297	260
298	50
302	30
303	20
304	20
312	10
313	120
314	50
315	90
316	30
317	20
328	10
329	60
330	1800
331	380
332	1170
333	230
334	200
335	30
