Mass Spectrum: 5-Tridecene
Formula: C13 H24
CAS: 60186-80-3
Molecular weight: 180
Origin: S.A. Rang et al., IR & MS of Unsatd. Hydrocarbons, 1977
m/z	RELATIVE INTENSITY
15	20
25	16
26	145
27	2637
29	2941
30	74
31	8
37	16
38	51
39	1727
40	425
41	5882
42	863
43	4564
44	110
45	12
49	8
50	78
51	356
52	740
53	1837
54	9999
55	6288
56	1042
57	672
58	86
59	24
60	8
62	12
63	74
64	43
65	617
66	562
67	9118
68	2941
69	2434
70	282
71	110
72	8
76	16
77	699
78	188
79	1234
80	480
81	9706
82	2941
83	1014
84	196
85	47
86	8
89	12
90	8
91	356
92	55
93	384
94	172
95	4767
96	1891
97	466
98	55
99	8
103	16
104	8
105	43
106	16
107	86
108	51
109	1453
110	1124
111	121
112	20
113	8
115	8
117	8
119	8
121	27
122	39
123	1672
124	411
125	47
126	8
135	12
136	31
137	1124
138	521
139	55
151	196
152	39
153	8
156	12
165	24
180	59
181	12
