Mass Spectrum: Anthracene, 9-nitro-
Formula: C14 H9 N O2
CAS: 602-60-8
Molecular weight: 223
Origin: Japan AIST/NIMC Database- Spectrum MS-NW-7167
m/z	RELATIVE INTENSITY
26	20
27	50
28	119
30	189
31	40
32	10
37	30
38	70
39	259
40	10
43	30
45	10
46	10
49	10
50	319
51	359
52	60
53	10
55	70
56	10
61	109
62	389
63	539
64	60
65	40
66	10
67	20
68	30
69	249
70	40
73	60
74	579
75	1279
76	419
77	209
78	30
79	10
80	10
81	209
82	639
83	189
84	60
85	90
86	289
87	749
88	3439
89	299
90	40
91	10
92	10
94	10
95	30
96	90
97	40
98	409
99	299
100	149
101	129
102	90
103	20
105	20
109	40
110	139
111	349
112	99
113	119
114	40
115	199
116	30
120	10
121	30
122	119
123	119
124	80
125	159
126	319
127	159
128	30
129	20
130	10
133	10
134	40
135	30
136	10
137	109
138	80
139	379
140	209
141	50
142	10
143	10
144	10
145	10
146	40
147	20
148	20
149	269
150	1369
151	2269
152	549
153	209
154	60
155	30
156	10
157	10
158	10
161	40
162	99
163	769
164	779
165	4749
166	1109
167	1459
168	279
169	50
170	20
171	10
172	10
173	40
174	629
175	939
176	6229
177	5839
178	1509
179	569
180	179
181	99
182	20
187	10
188	40
189	80
190	169
191	50
192	70
193	3979
194	879
195	889
196	129
197	10
205	10
206	219
207	249
208	70
209	10
221	10
222	259
223	9999
224	1609
225	179
226	20
