Mass Spectrum: Acenaphthylene, 1,2-dihydro-5-nitro-
Formula: C12 H9 N O2
CAS: 602-87-9
Molecular weight: 199
Origin: RADIAN CORP
m/z	RELATIVE INTENSITY
30	380
39	370
46	30
50	460
51	690
52	90
62	460
63	1310
64	10
65	50
74	760
75	1220
76	1390
77	600
86	320
87	430
88	90
89	190
98	320
99	290
100	80
101	220
102	220
113	130
114	10
115	1650
116	330
125	180
126	760
127	580
128	150
129	40
139	700
140	270
141	2120
142	560
143	250
144	60
149	30
150	1560
151	3480
152	9999
153	3820
154	540
168	140
169	1690
170	380
171	120
198	450
199	5710
200	750
