Mass Spectrum: Acridine, 9-phenyl-
Formula: C19 H13 N
CAS: 602-56-2
Molecular weight: 255
Origin: Japan AIST/NIMC Database- Spectrum MS-IW-7578
m/z	RELATIVE INTENSITY
39	40
50	30
51	50
52	10
62	20
63	50
65	10
69	10
74	40
75	70
76	40
77	40
81	10
84	40
85	10
86	20
87	90
88	80
89	20
91	10
92	10
93	30
94	10
98	20
99	80
100	289
101	119
102	20
105	20
106	30
107	10
110	10
111	40
112	279
113	489
114	379
115	20
119	40
120	20
123	10
124	10
125	149
126	1059
127	1369
128	189
137	10
139	10
140	10
149	20
150	70
151	60
152	40
153	10
161	10
162	10
163	40
164	20
165	10
174	30
175	50
176	60
177	50
178	10
186	10
187	50
188	40
189	40
190	20
198	20
199	40
200	129
201	119
202	119
203	30
204	10
211	10
212	20
213	40
214	70
215	20
216	10
222	10
223	20
224	129
225	219
226	519
227	339
228	139
229	20
238	30
239	20
240	109
241	20
249	40
250	60
251	429
252	699
253	1259
254	6429
255	9999
256	1949
257	189
258	10
