Mass Spectrum: Anthracene, 9-phenyl-
Formula: C20 H14
CAS: 602-55-1
Molecular weight: 254
Origin: Japan AIST/NIMC Database- Spectrum MS-NW-3213
m/z	RELATIVE INTENSITY
27	40
28	10
38	10
39	99
41	10
43	10
50	80
51	119
52	20
57	10
61	10
62	60
63	129
64	10
65	10
74	119
75	119
76	50
77	40
78	40
83	30
84	20
85	10
86	70
87	149
88	90
89	30
93	30
94	20
98	80
99	129
100	249
101	169
102	20
105	30
106	80
107	20
110	40
111	90
112	449
113	1019
114	169
115	10
117	20
118	99
119	469
120	90
122	40
123	40
124	199
125	749
126	1669
127	539
128	10
134	10
135	10
137	20
139	20
146	10
149	30
150	109
151	70
152	40
161	20
162	20
163	60
164	10
165	20
174	80
175	60
176	109
177	20
178	30
185	10
186	20
187	80
188	30
189	40
198	40
199	50
200	169
201	80
202	80
203	10
210	10
211	60
212	30
213	119
214	30
215	70
222	40
223	50
224	289
225	209
226	399
227	119
228	20
235	10
236	10
237	80
238	30
239	259
240	50
247	10
248	129
249	129
250	1069
251	519
252	3319
253	4389
254	9999
255	2079
256	209
257	10
