Mass Spectrum: Benzoic acid, pentafluoro-
Formula: C7 H F5 O2
CAS: 602-94-8
Molecular weight: 212
Origin: NIST Mass Spectrometry Data Center, 2009
m/z	RELATIVE INTENSITY
28	20
29	20
31	380
36	20
37	10
43	10
44	90
45	591
46	10
47	10
48	10
50	10
51	20
55	120
56	30
60	40
61	30
62	20
63	10
67	40
68	60
69	140
71	50
72	10
74	290
75	190
76	10
79	881
80	140
81	10
82	20
84	10
85	40
86	320
87	60
91	30
93	1261
94	50
95	30
96	10
98	1461
99	1972
100	110
105	80
106	60
110	180
111	20
113	20
115	10
117	4954
118	621
119	30
122	10
124	110
125	10
129	240
130	40
136	320
137	1021
138	60
141	10
145	30
146	10
148	1862
149	220
150	10
155	30
156	20
157	10
162	10
164	350
165	100
167	5745
168	3073
169	190
170	10
173	40
176	30
183	30
184	150
185	10
192	741
193	220
195	9999
196	791
197	50
212	9869
213	781
214	60
