Mass Spectrum: 1,1'-Bi-2-naphthol
Formula: C20 H14 O2
CAS: 602-09-5
Molecular weight: 286
Origin: Japan AIST/NIMC Database- Spectrum MS-NW- 426
m/z	RELATIVE INTENSITY
26	20
27	50
28	70
29	20
31	20
36	30
38	10
39	119
41	40
42	10
43	30
44	50
50	70
51	159
52	30
53	20
55	70
56	20
57	30
62	60
63	169
64	30
65	50
67	10
69	20
70	10
71	10
74	90
75	149
76	90
77	109
78	20
79	50
80	50
81	30
82	10
83	10
85	20
86	50
87	119
88	229
89	99
90	20
91	139
92	70
93	90
94	90
95	30
98	40
99	60
100	279
101	479
102	50
103	30
105	80
106	279
107	129
108	20
109	20
110	20
111	40
112	169
113	649
114	249
115	1169
116	149
117	50
118	519
119	1699
120	1279
121	109
122	20
123	10
124	20
125	99
126	70
127	129
128	259
129	40
131	169
133	149
134	1099
135	50
137	20
138	10
139	60
141	80
142	119
143	159
144	70
149	30
150	80
151	90
152	109
153	40
155	20
161	20
162	30
163	80
164	20
165	20
169	90
171	20
174	40
175	40
176	60
177	20
180	10
181	319
182	40
186	20
187	60
188	30
189	90
190	20
193	20
195	10
198	20
199	30
200	139
201	99
202	309
203	99
204	20
205	20
211	50
212	30
213	139
214	70
215	359
216	109
217	30
218	10
219	40
222	10
223	20
224	119
225	109
226	629
227	359
228	679
229	719
230	219
231	259
232	60
233	20
234	10
235	30
236	40
237	249
238	149
239	1239
240	529
241	609
242	179
243	179
244	99
245	20
250	30
251	50
252	30
253	20
254	20
255	279
256	179
257	1479
258	769
259	129
260	20
266	70
267	399
268	699
269	279
270	60
271	179
272	40
281	30
282	50
283	40
284	70
285	349
286	9999
287	2159
288	279
289	20
