Mass Spectrum: 4-Tetradecyne
Formula: C14 H26
CAS: 60212-33-1
Molecular weight: 194
Origin: S.A. Rang et al., IR & MS of Unsatd. Hydrocarbons, 1977
m/z	RELATIVE INTENSITY
24	4
25	18
26	135
27	1712
28	114
29	2814
30	69
31	13
37	11
38	42
39	1199
40	315
41	5297
42	781
43	3476
44	115
45	35
49	4
50	55
51	240
52	436
53	1370
54	3642
55	4800
56	706
57	1370
58	195
59	24
60	158
61	24
62	9
63	53
64	24
65	421
66	421
67	9999
68	1655
69	2569
70	391
71	376
72	35
73	115
74	16
76	7
77	556
78	150
79	1142
80	376
81	7118
82	3082
83	1085
84	158
85	104
86	42
87	27
88	4
89	9
91	248
92	42
93	323
94	144
95	3807
96	1884
97	466
98	89
99	24
100	13
101	13
102	4
103	9
104	4
105	35
106	9
107	100
108	51
109	1941
110	781
111	124
112	42
113	11
114	4
115	20
117	4
119	9
121	42
122	51
123	1769
124	961
125	97
126	13
127	9
128	7
129	20
131	4
135	18
136	18
137	511
138	293
139	38
140	4
141	7
151	481
152	124
153	16
155	13
163	4
165	93
166	16
167	13
169	11
170	4
179	137
180	18
181	11
193	4
194	40
195	7
