Mass Spectrum: 3,5-Dichlorobenzyl alcohol
Formula: C7 H6 Cl2 O
CAS: 60211-57-6
Molecular weight: 176
Origin: NIST Mass Spectrometry Data Center, 1994
m/z	RELATIVE INTENSITY
12	35
14	26
15	59
16	41
17	92
18	110
25	72
26	243
27	428
28	130
29	2615
30	256
31	1809
35	242
36	314
37	923
38	1184
39	680
40	62
42	68
43	405
44	182
47	140
48	87
49	639
50	2385
51	2417
52	1150
53	220
55	248
56	312
57	78
60	310
61	808
62	923
63	966
64	81
65	55
70	199
71	132
72	271
73	1278
74	2404
75	3749
76	596
77	9999
78	915
79	86
83	66
84	550
85	730
86	576
87	572
88	184
89	455
96	68
97	250
98	47
99	161
101	53
105	119
107	73
108	134
109	953
110	442
111	4970
112	1051
113	5706
114	543
115	1371
116	109
123	928
124	182
125	310
126	79
133	118
135	84
139	1122
140	597
141	4594
142	528
143	1278
144	152
145	456
146	284
147	1386
148	243
149	773
150	70
151	116
159	578
160	80
161	341
162	42
163	58
173	208
174	97
175	617
176	3610
177	673
178	2538
179	238
180	382
181	41
