Mass Spectrum: 4-Undecyne
Formula: C11 H20
CAS: 60212-31-9
Molecular weight: 152
Origin: D.HENNEBERG, MAX-PLANCK INSTITUTE, MULHEIM, WEST GERMANY
m/z	RELATIVE INTENSITY
26	209
27	3486
28	438
29	3067
30	19
37	39
38	229
39	3396
40	637
41	5398
42	776
43	2788
44	49
45	9
49	9
50	328
51	996
52	1185
53	2041
54	2958
55	3505
56	368
57	129
58	9
61	9
62	39
63	278
64	69
65	737
66	527
67	9999
68	1494
69	1105
70	119
71	19
74	9
75	29
76	9
77	836
78	258
79	1284
80	348
81	5328
82	1065
83	268
84	9
85	9
86	9
87	9
89	9
90	9
91	278
92	9
93	229
94	59
95	1673
96	876
97	69
98	9
100	9
103	9
105	9
106	9
107	19
108	9
109	2290
110	527
111	9
115	9
121	9
122	9
123	1653
124	149
125	9
137	9
152	9
