Mass Spectrum: 1,1'-Biphenyl, 2,3',4,6-Tetrachloro-
Formula: C12 H6 Cl4
CAS: 60233-24-1
Molecular weight: 290
Origin: T.L.Hayes, Battelle Columbus Laboratories, Columbus, OH 43221
m/z	RELATIVE INTENSITY
34	49
35	120
36	431
37	260
38	326
39	248
40	669
41	20
42	13
43	39
44	144
45	22
47	64
49	274
50	749
51	548
52	14
55	100
56	34
57	49
60	161
61	812
62	780
63	314
67	55
71	33
72	91
73	1068
74	1972
75	1836
76	154
77	13
78	48
79	398
80	156
81	23
83	21
84	352
85	572
86	639
87	343
88	14
91	164
92	2394
93	1000
94	26
96	240
97	679
98	1170
99	844
100	90
101	13
103	12
107	82
108	279
109	1149
110	3520
111	2079
112	349
113	67
114	90
115	102
116	13
119	16
120	101
121	163
122	477
123	557
124	120
125	117
127	1237
128	1434
129	614
130	18
132	92
133	330
134	128
135	222
136	57
137	32
144	37
145	583
146	835
147	637
148	357
149	1015
150	2352
151	265
157	66
158	82
159	86
160	127
161	16
169	50
170	87
171	58
172	38
181	14
182	44
183	168
184	1174
185	850
186	455
187	237
188	14
193	43
194	94
195	31
196	41
204	32
206	36
207	87
208	50
209	29
218	45
219	111
220	5584
221	871
222	3437
223	454
224	557
225	45
254	205
255	138
256	225
257	128
258	54
259	17
281	34
282	18
290	7890
291	1045
292	9999
293	1282
294	4863
295	576
296	1036
297	111
298	55
