Mass Spectrum: 4-Piperidinol, 1[(1-phenyl)-1-cyclohexyl]-
Formula: C17 H25 N O
CAS: 60232-85-1
Molecular weight: 259
Origin: Patti Price, Georgia Bureau of Investigation, Decatur, Georgia
m/z	RELATIVE INTENSITY
50	10
51	110
52	40
53	100
54	60
55	290
56	280
57	100
58	30
59	10
61	10
63	40
64	10
65	150
66	20
67	180
68	70
69	10
70	20
71	30
72	30
73	10
74	10
75	20
76	40
77	430
78	120
79	240
80	90
81	410
82	230
83	70
84	100
85	10
86	10
87	10
89	70
90	20
91	3302
92	270
93	30
94	10
96	10
98	10
99	10
100	500
101	90
102	170
103	430
104	430
105	160
106	30
107	10
108	10
109	10
110	20
111	10
112	10
113	10
114	10
115	740
116	170
117	910
118	130
119	30
120	30
121	10
122	10
123	10
124	10
125	10
126	10
127	110
128	340
129	630
130	550
131	150
132	80
133	10
134	10
135	10
137	10
138	10
139	10
140	40
141	70
142	50
143	410
144	200
145	50
146	80
147	10
152	20
153	30
154	40
155	20
156	50
157	100
158	770
159	430
160	80
161	10
164	10
165	10
166	10
167	10
168	10
169	20
170	60
171	10
172	270
173	30
174	10
175	10
176	10
178	10
180	10
181	10
182	1321
183	150
184	180
185	30
186	70
187	20
188	220
189	20
190	60
191	10
196	10
198	420
199	70
200	80
201	10
202	1641
203	280
204	20
208	10
210	10
212	10
214	70
215	20
216	9999
217	1511
218	130
226	10
228	10
230	130
231	20
232	10
238	10
239	10
240	40
241	10
242	10
257	10
258	3353
259	2732
260	440
261	30
