Mass Spectrum: 1-(2-Aminophenyl)pyrrole
Formula: C10 H10 N2
CAS: 6025-60-1
Molecular weight: 158
Origin: NIST Mass Spectrometry Data Center
m/z	RELATIVE INTENSITY
15	70
17	10
18	30
26	400
27	961
28	1451
29	70
30	80
37	380
38	991
39	2943
40	480
41	701
42	200
43	20
44	10
45	30
49	100
50	1051
51	1942
52	1722
53	581
54	280
55	40
56	10
59	60
61	130
62	320
63	1011
64	921
65	2222
66	1021
67	210
68	20
73	20
74	140
75	290
76	450
77	1501
78	1071
79	711
80	120
81	40
86	20
87	40
88	90
89	240
90	280
91	761
92	550
93	70
99	10
100	30
101	150
102	430
103	891
104	721
105	200
106	40
113	50
114	90
115	100
116	100
117	280
118	661
119	260
120	20
128	340
129	751
130	5465
131	2722
132	911
133	70
140	120
141	70
142	140
143	160
153	20
155	490
156	2012
157	9999
158	9318
159	1021
160	50
