Mass Spectrum: 4'-Nitro-3-(2-thienyl)acrylophenone
Formula: C13 H9 N O3 S
CAS: 6028-92-8
Molecular weight: 259
Origin: NIST Mass Spectrometry Data Center, 1994
m/z	RELATIVE INTENSITY
30	1124
37	157
38	461
39	2070
40	90
45	1414
46	149
47	97
50	2922
51	1263
52	88
53	327
57	281
58	519
61	143
62	438
63	1130
64	516
65	3679
66	289
69	1249
70	235
71	165
73	126
74	600
75	1389
76	2978
77	414
79	270
81	174
82	352
83	315
84	1467
85	190
86	137
87	141
88	117
89	175
90	61
91	168
92	1591
93	198
98	98
99	72
101	148
102	175
103	128
104	1495
105	392
106	114
107	61
108	764
109	5800
110	549
111	416
113	98
114	137
115	342
120	405
121	82
122	64
126	88
127	105
128	144
129	323
130	58
134	87
135	63
137	6588
138	709
139	882
140	185
141	507
142	83
145	160
147	85
150	575
151	242
152	829
153	131
158	127
168	128
169	52
171	234
172	138
173	112
180	166
183	227
184	2517
185	892
186	275
187	76
196	98
200	150
201	370
202	86
212	2423
213	3821
214	868
215	235
226	316
227	71
228	74
229	266
230	460
231	367
232	57
242	2745
243	435
244	182
258	3135
259	9999
260	1536
261	679
