Mass Spectrum: Arsine, triphenyl-
Formula: C18 H15 As
CAS: 603-32-7
Molecular weight: 306
Origin: J.M.MILLER, BROCK UNIV., ST. CATHARINES, ONTARIO, CANADA
m/z	RELATIVE INTENSITY
39	170
50	120
51	630
52	100
76	90
77	600
78	460
101	190
102	140
115	230
125	140
126	170
127	130
128	220
139	90
150	130
151	1430
152	9999
153	1485
154	1390
155	200
214	100
227	2800
228	490
229	630
230	130
306	2850
307	590
308	60
