Mass Spectrum: Ethyl N,N-diphenylcarbamate
Formula: C15 H15 N O2
CAS: 603-52-1
Molecular weight: 241
Origin: Japan AIST/NIMC Database- Spectrum MS-NW-8321
m/z	RELATIVE INTENSITY
15	10
18	20
26	20
27	479
28	80
29	2489
30	60
38	30
39	379
40	40
41	30
43	10
44	30
50	109
51	979
52	80
53	10
62	20
63	129
64	99
65	359
66	1059
67	60
74	20
75	30
76	70
77	1579
78	159
79	329
80	20
83	50
84	10
89	70
90	50
91	129
92	50
93	269
94	299
95	20
101	20
102	20
103	40
104	699
105	639
106	109
113	10
114	20
115	279
116	70
117	40
118	20
119	30
120	169
121	10
122	20
126	10
127	20
128	99
129	20
130	10
132	40
136	10
137	10
138	10
139	229
140	209
141	169
142	60
143	30
148	30
151	20
152	50
153	50
154	60
155	10
156	10
164	10
165	50
166	669
167	4899
168	8619
169	5009
170	619
171	40
178	20
179	10
180	129
181	80
182	3239
183	469
184	30
194	10
195	10
196	909
197	209
198	20
212	20
213	70
214	10
240	30
241	9999
242	1749
243	189
244	10
