Mass Spectrum: Urea, N,N-diphenyl-
Formula: C13 H12 N2 O
CAS: 603-54-3
Molecular weight: 212
Origin: Japan AIST/NIMC Database- Spectrum MS-NW-8141
m/z	RELATIVE INTENSITY
15	10
17	30
18	169
26	10
27	70
28	50
29	30
37	10
38	50
39	349
40	70
41	30
42	60
43	339
44	179
50	139
51	929
52	109
53	10
54	10
58	20
62	30
63	149
64	129
65	539
66	1189
67	70
69	20
70	40
71	50
74	40
75	50
76	80
77	1149
78	159
79	10
82	10
83	299
84	70
85	10
88	10
89	80
90	50
91	119
92	119
93	90
94	20
101	20
102	30
103	40
104	279
105	30
113	20
114	30
115	269
116	70
117	50
118	90
119	129
120	10
126	10
127	50
128	99
129	40
130	20
135	10
139	189
140	159
141	299
142	199
143	99
144	10
151	10
152	20
153	30
154	109
155	10
164	10
165	20
166	399
167	2449
168	4779
169	9999
170	1309
171	80
194	10
196	30
211	30
212	3719
213	559
214	40
