Mass Spectrum: Stibine, triphenyl-
Formula: C18 H15 Sb
CAS: 603-36-1
Molecular weight: 352
Origin: Tony Mujsce, AT&T Bell Labs
m/z	RELATIVE INTENSITY
26	40
27	270
28	20
29	10
36	10
37	40
38	230
39	10
40	10
42	10
50	880
51	2482
52	170
53	10
56	10
60	10
61	20
62	70
64	10
73	20
74	200
75	170
76	190
77	3393
78	350
79	10
85	10
86	20
88	40
90	10
98	10
99	10
100	10
101	30
102	80
103	10
113	10
114	10
115	90
116	10
121	350
122	10
123	250
125	60
126	40
127	170
139	30
145	120
146	30
147	90
149	30
150	40
151	50
152	230
153	320
154	840
155	100
156	20
158	10
159	10
160	10
161	10
169	30
170	60
171	60
172	60
173	20
176	20
177	10
197	750
198	9999
199	1181
200	7256
201	450
226	10
228	10
230	10
273	610
274	80
275	1501
276	190
277	770
278	90
352	1090
353	210
354	890
355	150
