Mass Spectrum: Benzenamine, 4,4',4''-methylidynetris[N,N-dimethyl-
Formula: C25 H31 N3
CAS: 603-48-5
Molecular weight: 373
Origin: Japan AIST/NIMC Database- Spectrum MS-NW-2800
m/z	RELATIVE INTENSITY
15	80
26	10
27	50
28	20
29	20
30	20
38	10
39	80
40	10
41	40
42	339
43	40
44	60
50	50
51	109
52	70
53	20
55	20
56	20
57	30
58	10
62	10
63	60
64	10
65	50
66	20
67	20
68	40
69	30
70	30
71	20
74	20
75	20
76	60
77	239
78	359
79	80
80	10
81	10
82	20
83	20
84	10
85	20
87	10
88	20
89	40
90	40
91	109
92	50
93	20
94	20
95	40
96	50
97	40
98	10
99	10
100	10
101	40
102	20
103	90
104	119
105	139
106	30
107	20
108	30
109	20
110	70
111	40
112	10
113	50
114	40
115	50
116	20
117	70
118	579
119	179
120	379
121	289
122	30
123	70
124	70
125	159
126	1809
127	99
128	40
129	30
130	20
131	20
132	109
133	70
134	549
135	119
136	30
137	10
138	20
139	40
140	30
141	139
142	99
143	30
144	30
145	20
146	20
147	30
148	60
149	50
150	40
151	50
152	119
153	70
154	40
155	50
156	99
157	70
158	60
159	10
161	20
162	30
163	149
164	369
165	559
166	209
167	60
168	30
169	40
170	70
171	60
172	30
173	10
174	10
175	10
176	20
177	169
178	139
179	169
180	60
181	40
182	20
183	10
184	30
185	189
186	979
187	279
188	10
189	20
190	30
191	30
192	129
193	169
194	169
195	139
196	99
197	40
198	10
200	10
201	10
202	10
203	10
204	10
205	20
206	30
207	99
208	849
209	499
210	289
211	60
212	10
213	20
214	10
215	20
216	10
218	10
219	20
220	30
221	269
222	149
223	139
224	80
225	40
226	30
227	30
228	30
229	20
230	10
231	10
232	10
233	10
234	10
235	119
236	209
237	2579
238	719
239	309
240	119
241	40
242	20
243	10
244	10
245	10
246	10
247	10
248	10
249	20
250	40
251	399
252	6769
253	9999
254	2069
255	219
256	20
258	10
266	10
267	10
268	40
269	10
270	10
271	10
272	10
283	10
284	40
285	20
297	10
299	10
301	10
303	10
311	20
312	20
313	60
314	20
315	10
317	10
327	40
328	50
329	509
330	139
331	20
340	40
341	20
342	20
343	20
344	10
345	10
354	10
355	10
356	189
357	80
358	90
359	10
368	10
369	10
370	30
371	70
372	1559
373	4659
374	1259
375	179
376	10
