Mass Spectrum: 2,4-Dinitro-1,3-dimethyl-benzene
Formula: C8 H8 N2 O4
CAS: 603-02-1
Molecular weight: 196
Origin: Japan AIST/NIMC Database- Spectrum MS-NW-4235
m/z	RELATIVE INTENSITY
12	10
14	10
15	139
16	20
17	20
18	70
25	10
26	179
27	1059
28	659
29	289
30	1629
31	139
32	10
36	10
37	239
38	529
39	3289
40	439
41	959
42	199
43	3829
44	139
45	30
46	129
47	20
48	20
49	90
50	1379
51	3979
52	2119
53	1699
54	339
55	319
56	80
57	80
58	20
60	60
61	249
62	889
63	2959
64	1169
65	3949
66	1179
67	459
68	309
69	90
70	50
71	80
72	10
73	80
74	529
75	669
76	859
77	7569
78	6329
79	1629
80	609
81	199
82	90
83	40
84	50
85	80
86	199
87	239
88	119
89	1659
90	829
91	5379
92	1169
93	1069
94	339
95	149
96	139
97	50
98	90
99	50
100	20
101	119
102	1049
103	3599
104	4329
105	2739
106	1249
107	919
108	199
109	30
110	10
111	10
114	20
115	20
116	90
117	159
118	419
119	619
120	679
121	649
122	339
123	50
124	30
130	489
131	189
132	509
133	639
134	879
135	809
136	90
137	20
145	159
146	20
147	20
148	1039
149	1719
150	289
151	169
152	20
161	279
162	2859
163	349
164	40
165	10
166	40
167	10
177	10
178	60
179	9999
180	1119
181	119
182	10
195	10
196	1059
197	109
198	10
