Mass Spectrum: Proxyphylline
Formula: C10 H14 N4 O3
CAS: 603-00-9
Molecular weight: 238
Origin: Patti Price, Georgia Bureau of Investigation, Decatur, Georgia
m/z	RELATIVE INTENSITY
42	620
43	490
45	1431
51	50
52	420
53	710
54	1141
55	990
56	580
57	210
58	300
59	200
60	10
64	40
65	110
66	860
67	1861
68	1631
69	480
70	500
71	10
75	10
77	50
78	50
79	330
80	770
81	3192
82	1471
83	420
84	180
85	10
93	190
94	650
95	2432
96	390
97	140
98	30
100	10
106	40
107	200
108	650
109	6806
110	810
111	170
113	10
119	30
121	80
122	360
123	1371
124	660
125	170
132	10
134	140
135	330
136	980
137	2262
138	400
139	100
141	10
147	20
148	100
149	100
150	90
151	580
152	160
153	10
162	80
163	110
164	80
165	770
166	560
167	50
179	140
180	8767
181	1881
182	190
183	10
191	50
193	7036
194	9999
195	1060
196	100
203	110
205	20
219	210
220	210
221	100
222	20
223	260
224	40
236	40
237	30
238	3453
239	440
