Mass Spectrum: Decanoic acid, 3-methyl-
Formula: C11 H22 O2
CAS: 60308-82-9
Molecular weight: 186
Origin: NIST Mass Spectrometry Data Center, 1990.
m/z	RELATIVE INTENSITY
15	171
16	34
18	193
27	2526
28	694
29	2973
31	334
32	201
39	1972
40	552
41	6272
42	2054
43	5829
44	481
45	1482
52	141
53	607
54	436
55	3415
56	1442
57	3072
58	213
59	960
60	5612
61	1350
67	424
68	400
69	2223
70	1109
71	3139
72	299
73	1336
74	138
79	177
81	192
82	448
83	1085
84	748
85	1934
87	9999
88	746
96	256
97	1050
98	532
99	112
101	259
112	167
115	259
126	801
127	272
129	546
143	901
144	141
171	158
186	136
