Mass Spectrum: Benzene, (1-methylpentyl)-
Formula: C12 H18
CAS: 6031-02-3
Molecular weight: 162
Origin: CONTINENTAL OIL CO., PONCA CITY, OKLA, USA
m/z	RELATIVE INTENSITY
27	440
28	58
29	282
30	6
37	4
38	20
39	280
40	26
41	272
42	22
43	50
44	2
49	1
50	72
51	252
52	67
53	68
54	6
55	55
56	10
57	12
58	4
61	3
62	18
63	81
64	24
65	130
66	13
67	6
69	15
70	2
71	2
74	51
75	61
76	63
77	895
78	360
79	589
80	39
81	2
84	3
85	2
86	7
87	13
88	6
89	72
90	27
91	1459
92	119
93	7
98	3
99	2
101	24
102	91
103	467
104	485
105	9999
106	1051
107	52
113	4
114	7
115	162
116	50
117	115
118	36
119	57
120	16
126	2
127	12
128	29
129	16
130	4
131	12
132	2
133	9
141	2
146	2
147	83
148	10
162	1270
163	170
164	60
