Mass Spectrum: Nomelidine
Formula: C15 H15 Br N2
CAS: 60324-59-6
Molecular weight: 302
Origin: AAFS Toxicology Section MS DB Committee, U. Alberta, Canada
m/z	RELATIVE INTENSITY
35	20
36	30
38	30
39	240
40	30
41	180
42	890
43	240
44	1821
45	40
47	20
48	10
50	270
51	390
52	180
53	110
54	30
56	300
57	160
59	20
60	30
61	40
62	220
63	570
64	130
65	330
66	30
67	40
68	440
69	280
70	160
71	20
72	30
74	280
75	610
76	620
77	510
78	330
79	600
80	370
81	180
82	350
83	580
86	160
87	350
88	300
89	790
90	500
91	230
92	460
93	400
94	60
95	460
96	460
98	160
99	170
100	120
101	430
102	480
103	410
104	520
105	360
106	480
107	70
110	390
111	570
113	540
114	500
115	800
116	1000
117	780
118	1301
119	480
120	200
121	330
122	20
123	40
124	60
125	180
126	470
127	420
128	330
129	250
130	310
131	860
132	610
133	1741
134	170
135	40
137	300
138	390
139	1601
140	750
141	230
142	120
143	340
144	1000
145	2462
146	610
147	4504
148	550
149	130
150	520
151	1020
152	1511
153	500
154	250
155	140
156	100
157	90
158	20
161	20
162	90
163	780
164	1181
165	1961
166	1511
167	1201
168	310
169	1721
170	120
171	1461
173	20
175	20
176	170
177	530
178	1141
179	940
180	1461
181	540
182	440
183	140
184	170
186	30
187	30
188	60
189	110
190	1040
191	3343
192	5214
193	6205
194	1611
195	710
196	220
197	230
198	380
199	50
200	310
201	40
202	30
203	80
204	210
205	850
206	500
207	880
208	920
209	200
210	360
211	80
212	290
213	40
216	20
217	120
218	120
219	420
220	240
221	1261
222	1401
223	1431
224	7456
225	860
226	5875
227	590
228	50
230	50
232	70
233	30
234	50
235	40
236	50
243	80
244	120
245	370
246	480
247	930
248	450
249	730
250	140
258	1721
259	1881
260	5044
261	3232
262	3723
263	1111
264	130
265	20
270	1961
271	1351
272	4834
273	4674
274	3343
275	3232
276	600
277	60
278	30
283	20
284	120
285	460
286	460
287	3763
288	980
289	3453
290	620
291	30
299	1701
301	6005
302	9888
303	5685
304	9999
305	1821
306	160
