Mass Spectrum: 2-Heptanol, (S)-
Formula: C7 H16 O
CAS: 6033-23-4
Molecular weight: 116
Origin: Chuck Anderson, Aldrich Chemical Co.
m/z	RELATIVE INTENSITY
15	27
19	50
26	23
27	532
28	105
29	684
30	13
31	185
38	12
39	378
40	74
41	1223
42	370
43	1249
44	736
45	9999
46	194
47	32
51	24
53	69
54	32
55	1427
56	397
57	281
58	50
59	45
67	13
68	24
69	172
70	343
71	56
83	480
84	29
97	23
98	149
101	171
