Mass Spectrum: Cholest-7-en-3-ol, (3.beta.)-
Formula: C27 H46 O
CAS: 6036-58-4
Molecular weight: 386
Origin: DR GLENN PATTERSON
m/z	RELATIVE INTENSITY
39	2100
41	5099
42	600
43	6599
45	900
50	900
51	1200
52	1200
53	800
55	6699
56	800
57	3600
67	3000
68	700
69	3600
70	500
71	1600
77	2400
78	5999
79	3900
80	500
81	5099
82	500
83	2000
91	5099
92	1100
93	4200
94	1200
95	5299
96	500
97	1100
105	4200
106	1100
107	5699
108	1000
109	2500
111	500
115	500
117	1700
118	900
119	4000
120	1700
121	2700
122	1200
123	1700
129	1000
130	500
131	2700
132	800
133	3200
134	1900
135	2900
136	900
137	700
143	1100
144	500
145	2900
146	900
147	4200
148	900
149	1400
151	500
157	1100
158	400
159	1900
160	600
161	2500
162	400
163	500
171	1100
173	1300
175	600
178	400
185	700
187	800
189	500
199	800
201	1100
203	400
213	3700
214	800
215	800
227	600
228	700
229	3000
230	800
231	2400
232	1000
233	400
245	800
246	1400
247	1400
255	6999
256	900
271	600
273	1900
274	500
353	700
368	600
369	500
371	2800
372	800
384	800
386	9999
387	2800
388	500
