Mass Spectrum: Hexadecanoic acid, 11-hydroxy-, methyl ester
Formula: C17 H34 O3
CAS: 60368-18-5
Molecular weight: 286
Origin: PYTCAS, 16(6)715(1977); H. WAGNER AND G. SCHWARTING
m/z	RELATIVE INTENSITY
41	5000
55	7100
69	3500
74	4000
83	4200
87	6200
101	1800
115	500
129	1200
143	3800
157	700
183	9999
186	5100
215	4600
255	500
286	40
