Mass Spectrum: 4,8-Secosenecionan-8,11,16-trione, 15,20-dihydro-12-(acetyloxy)-20-chloro-15-hydroxy-4-methyl-
Formula: C21 H30 Cl N O8
CAS: 60367-00-2
Molecular weight: 459
Origin: E. Roeder, Pharm. Inst., Univ. Bonn, Bonn, W. Ger.
m/z	RELATIVE INTENSITY
43	9999
150	4723
152	487
166	1158
168	7569
238	1256
304	1842
319	2491
320	1406
336	6787
337	1443
352	238
355	519
357	170
372	1609
373	315
374	540
375	110
380	476
396	1088
408	233
423	585
424	281
459	112
