Mass Spectrum: Cholan-24-oic acid, 3,7-bis(acetyloxy)-, methyl ester, (3.alpha.,5.beta.,7.beta.)-
Formula: C29 H46 O6
CAS: 60384-30-7
Molecular weight: 490
Origin: P.A. SZCZEPANIK, ARGONNE NATIONAL LABORATORY, USA
m/z	RELATIVE INTENSITY
100	120
101	440
103	650
104	270
105	8310
106	2620
107	5840
108	1630
109	3080
110	450
111	460
112	170
113	490
115	2830
116	660
117	2840
118	1820
119	5760
120	1850
121	4450
122	840
123	1580
124	230
125	360
126	220
127	250
128	610
129	1760
130	4190
131	1470
132	3840
134	1290
135	2850
136	480
137	480
138	180
141	1330
142	850
143	2820
144	1150
145	6040
146	1820
147	3960
148	1430
149	1560
150	300
151	230
152	80
153	390
154	740
155	510
156	370
157	2700
158	1300
159	5540
160	3180
161	3390
162	970
163	700
165	580
166	340
167	420
168	270
169	1040
170	290
171	1940
172	1290
173	2440
174	1090
175	1120
176	340
177	460
178	300
179	330
180	80
181	400
182	200
183	520
184	270
185	1750
186	680
187	960
188	210
189	550
190	260
191	240
192	150
193	150
195	830
196	260
197	600
198	310
199	2130
200	1050
201	4210
202	930
203	260
204	110
205	120
206	50
207	390
208	1380
209	710
210	140
211	420
213	4920
214	2080
215	1470
216	470
217	680
219	130
221	780
222	380
223	300
224	110
225	360
226	310
227	710
228	2800
229	1910
230	390
231	210
232	100
233	240
234	150
235	230
237	80
239	220
240	80
241	460
242	210
246	160
249	2140
250	630
251	230
253	600
255	9999
258	100
263	550
264	260
265	390
266	150
267	560
269	190
272	140
273	110
274	240
275	190
276	220
277	110
279	100
281	340
283	430
284	240
285	60
287	60
288	270
289	110
294	140
297	210
298	190
299	70
301	170
302	90
306	140
311	80
313	160
316	1530
321	190
323	530
324	190
328	150
329	300
330	70
337	130
339	870
341	250
344	80
355	4240
368	140
370	8440
429	70
