Mass Spectrum: Cholesteryl benzoate
Formula: C34 H50 O2
CAS: 604-32-0
Molecular weight: 490
Origin: Japan AIST/NIMC Database- Spectrum MS-NW-2866
m/z	RELATIVE INTENSITY
15	70
17	40
18	149
25	20
26	109
27	679
28	499
29	1259
30	50
31	10
32	50
36	20
37	159
38	229
39	869
40	149
41	3349
42	359
43	4349
44	309
45	119
47	40
48	10
49	99
50	819
51	1749
52	449
53	619
54	129
55	3849
56	459
57	3709
58	159
59	10
60	40
61	70
62	40
63	119
64	30
65	449
66	229
67	2629
68	379
69	2749
70	279
71	2059
72	119
73	99
74	269
75	169
76	359
77	5579
78	1519
79	2359
80	499
81	6339
82	699
83	2059
84	189
85	479
86	40
87	20
88	10
89	50
90	20
91	3189
92	1029
93	3329
94	1119
95	4329
96	469
97	1249
98	169
99	129
100	30
101	30
102	40
103	259
104	379
105	9999
106	2369
107	4499
108	1809
109	2789
110	389
111	899
112	109
113	169
114	70
115	479
116	249
117	1379
118	1059
119	2329
120	2819
121	3979
122	5129
123	1379
124	199
125	289
126	50
127	139
128	619
129	949
130	519
131	2239
132	669
133	2629
134	909
135	2689
136	569
137	679
138	109
139	149
140	30
141	689
142	599
143	2139
144	959
145	5519
146	2019
147	6359
148	1589
149	1689
150	259
151	469
152	129
153	139
154	109
155	409
156	289
157	1159
158	1169
159	2779
160	2189
161	2199
162	659
163	1219
164	179
165	389
166	99
167	129
168	80
169	199
170	159
171	649
172	349
173	999
174	449
175	609
176	179
177	399
178	109
179	249
180	90
181	149
182	99
183	209
184	119
185	699
186	279
187	449
188	139
189	229
190	60
191	429
192	149
193	539
194	129
195	179
196	70
197	479
198	199
199	869
200	489
201	799
202	209
203	139
204	90
205	719
206	689
207	339
208	90
209	99
210	60
211	499
212	289
213	2659
214	789
215	619
216	229
217	129
218	90
219	339
220	129
221	70
222	40
223	40
224	30
225	90
226	149
227	389
228	719
229	499
230	159
231	169
232	80
233	139
234	40
235	90
236	30
237	129
238	50
239	139
240	70
241	259
242	109
243	90
244	50
245	459
246	569
247	4389
248	1019
249	159
250	80
251	109
252	50
253	319
254	149
255	3289
256	729
257	279
258	129
259	359
260	2209
261	839
262	169
263	40
264	10
265	20
266	10
267	30
268	20
269	40
270	20
271	60
272	30
273	109
274	249
275	229
276	60
277	60
278	10
279	30
280	10
281	40
282	30
283	269
284	109
285	60
286	30
287	60
288	50
289	20
293	10
294	10
295	10
296	10
297	60
298	30
299	40
300	30
301	70
302	30
303	10
309	10
310	10
311	50
312	30
313	60
314	299
315	80
316	20
317	10
318	10
324	10
325	50
326	249
327	99
328	20
329	10
330	10
331	10
332	10
333	10
334	10
335	10
336	10
337	10
338	20
339	70
340	70
341	30
342	20
343	10
344	20
345	20
346	40
347	20
348	70
349	40
350	90
351	109
352	99
353	1999
354	589
355	189
356	60
357	10
358	20
359	10
360	40
361	20
362	60
363	30
364	80
365	40
366	379
367	199
368	7839
369	2359
370	489
371	90
372	10
382	10
