Mass Spectrum: Phenanthrene, 9,10-dimethyl-
Formula: C16 H14
CAS: 604-83-1
Molecular weight: 206
Origin: G.A.M.S., PARIS, FRANCE.
m/z	RELATIVE INTENSITY
27	10
29	6
39	10
40	3
41	6
43	10
50	50
51	130
52	20
53	10
61	10
62	60
63	200
64	20
65	30
67	10
68	6
69	10
70	10
74	80
75	230
76	570
77	90
78	10
81	40
82	110
83	230
85	6
86	40
87	140
88	670
89	1520
90	50
91	10
93	10
94	210
95	570
96	90
98	50
99	60
100	350
101	1270
102	470
103	1110
104	20
110	20
111	20
112	6
113	30
114	10
115	70
116	6
122	10
123	10
124	6
125	10
126	50
127	60
128	40
129	6
137	20
138	20
139	120
140	10
141	10
149	20
150	120
151	160
152	220
153	50
161	20
162	30
163	210
164	110
165	1010
166	160
167	10
174	60
175	60
176	300
177	150
178	500
179	220
180	30
186	10
187	180
188	120
189	1550
190	700
191	8400
192	1390
193	120
198	10
199	30
200	250
201	180
202	890
203	760
204	280
205	700
206	9999
207	1740
208	160
