Mass Spectrum: 8-Azabicyclo[3.2.1]octane, 3-[(10,11-dihydro-5H-dibenzo[a,d]cyclohepten-5-yl)oxy]-8-methyl-, endo-
Formula: C23 H27 N O
CAS: 604-51-3
Molecular weight: 333
Origin: Finnigan MAT: Toxicological Library (LIBR-TX)
m/z	RELATIVE INTENSITY
42	3307
43	4167
57	928
58	912
67	1026
82	7287
83	9999
84	1996
96	3784
97	3248
98	701
112	511
113	506
115	1120
124	5169
125	1626
129	693
140	9833
141	1719
165	416
178	1518
179	411
191	800
192	933
193	2338
304	294
333	1193
334	310
