Mass Spectrum: Cholest-5-en-3-ol (3.beta.)-, acetate
Formula: C29 H48 O2
CAS: 604-35-3
Molecular weight: 428
Origin: Japan AIST/NIMC Database- Spectrum MS-IW-3032
m/z	RELATIVE INTENSITY
14	10
15	40
27	70
28	50
29	249
39	60
40	10
41	809
42	80
43	1809
44	50
45	109
51	10
53	129
54	20
55	1259
56	109
57	1109
58	50
60	99
61	10
65	60
66	30
67	899
68	119
69	879
70	70
71	599
72	30
77	219
78	70
79	749
80	129
81	2109
82	219
83	599
84	50
85	139
86	10
91	939
92	249
93	1099
94	329
95	1389
96	139
97	359
98	30
99	40
100	20
103	50
104	80
105	1289
106	509
107	1339
108	559
109	819
110	119
111	239
112	20
113	50
114	40
115	90
116	60
117	429
118	289
119	799
120	909
121	999
122	279
123	399
124	50
125	80
126	10
127	50
128	129
129	249
130	139
131	689
132	199
133	939
134	289
135	749
136	169
137	189
138	30
139	40
141	119
142	129
143	639
144	299
145	1699
146	649
147	2319
148	559
149	509
150	70
151	139
152	30
153	40
154	20
155	60
156	60
157	349
158	349
159	839
160	669
161	689
162	209
163	399
164	60
165	119
166	20
167	30
168	10
169	50
170	30
171	199
172	99
173	329
174	149
175	209
176	70
177	129
178	30
179	70
180	20
181	20
182	10
183	50
184	40
185	209
186	80
187	139
188	40
189	70
190	20
191	129
192	40
193	149
194	30
195	20
196	10
197	179
198	60
199	259
200	149
201	219
202	50
203	50
204	30
205	259
206	249
207	99
208	20
209	10
211	70
212	80
213	809
214	239
215	179
216	60
217	40
218	30
219	99
220	30
221	20
225	20
226	30
227	109
228	229
229	169
230	40
231	50
232	20
233	40
234	10
235	10
237	30
238	10
239	50
240	20
241	80
242	30
243	30
244	10
245	169
246	209
247	1489
248	349
249	50
250	30
251	10
253	70
254	50
255	1109
256	249
257	109
258	60
259	159
260	1399
261	429
262	70
263	10
267	10
269	10
271	20
272	10
273	40
274	139
275	90
276	20
281	10
282	10
283	119
284	50
285	20
286	10
287	20
288	10
297	30
298	10
299	10
300	10
301	20
311	30
312	10
313	20
314	50
315	10
325	30
326	179
327	60
328	10
339	40
341	10
346	10
348	20
349	10
350	30
351	30
352	90
353	1449
354	419
355	109
356	20
366	129
368	9999
369	3029
370	569
371	80
372	10
385	20
428	10
