Mass Spectrum: 1,1'-Binaphthalene
Formula: C20 H14
CAS: 604-53-5
Molecular weight: 254
Origin: Japan AIST/NIMC Database- Spectrum MS-NW-5878
m/z	RELATIVE INTENSITY
18	30
27	20
28	30
39	60
50	60
51	80
52	20
62	40
63	99
64	10
65	10
74	80
75	99
76	50
77	40
78	20
83	60
84	50
85	10
86	40
87	90
88	70
89	20
93	20
94	20
98	40
99	70
100	189
101	179
102	20
105	20
106	60
107	10
110	20
111	60
112	349
113	859
114	229
115	20
117	10
118	80
119	489
120	99
122	20
123	20
124	209
125	999
126	2639
127	849
128	30
137	10
139	20
149	10
150	60
151	40
152	20
161	10
162	10
163	40
164	10
174	40
175	30
176	30
186	10
187	50
188	20
189	20
198	30
199	30
200	90
201	30
202	40
211	30
212	20
213	70
214	10
215	30
222	30
223	40
224	199
225	149
226	259
227	70
228	20
235	10
236	10
237	90
238	40
239	1209
240	259
241	20
246	10
247	20
248	159
249	159
250	1269
251	509
252	5279
253	7409
254	9999
255	2039
256	209
257	10
