Mass Spectrum: Bis(p-chlorobenzylidene)ethylene diamine
Formula: C16 H14 Cl2 N2
CAS: 60434-95-9
Molecular weight: 304
Origin: NIST Mass Spectrometry Data Center, 1994
m/z	RELATIVE INTENSITY
17	57
18	131
26	2
27	246
28	1094
32	26
35	30
36	62
37	61
38	191
39	661
40	168
41	696
42	138
44	11
49	80
50	754
51	798
52	135
53	36
54	220
55	33
58	44
61	106
62	424
63	1429
64	241
65	229
66	35
73	382
74	177
75	1597
76	436
77	847
78	102
79	24
84	55
85	166
86	109
87	206
88	24
89	4330
90	1593
91	163
92	17
97	58
99	718
100	102
101	367
102	661
103	708
104	142
105	51
111	815
112	360
113	318
114	143
115	86
116	276
117	710
118	93
123	223
125	9999
126	909
127	3311
128	250
129	78
130	281
131	78
132	2106
133	221
138	5407
139	2471
140	1946
141	708
142	78
151	551
152	2595
153	420
154	781
155	77
164	128
166	3276
167	4559
168	1402
169	1589
170	146
275	26
303	45
304	27
305	47
306	20
307	18
