Mass Spectrum: 1-Decanone, 1-phenyl-
Formula: C16 H24 O
CAS: 6048-82-4
Molecular weight: 232
Origin: Chuck Anderson, Aldrich Chemical Co.
m/z	RELATIVE INTENSITY
26	27
27	416
28	107
29	610
30	9
39	253
40	44
41	875
42	181
43	539
44	23
50	101
51	563
52	55
53	80
54	38
55	624
56	98
57	124
63	23
65	62
67	55
68	16
69	136
70	34
71	31
74	23
75	31
76	127
77	3427
78	615
79	99
81	24
83	9
89	9
91	182
92	58
103	46
104	6
105	8787
106	643
107	94
110	29
115	59
117	26
120	9999
121	946
122	67
128	10
129	34
131	12
133	1065
134	119
143	3
145	11
147	44
148	8
175	9
189	38
231	15
232	359
233	67
