Mass Spectrum: Artemiseole
Formula: C10 H16 O
CAS: 60485-46-3
Molecular weight: 152
Origin: H.Buttkus ET.AL. JAOCS, 54,212(1977)
m/z	RELATIVE INTENSITY
38	400
39	4234
40	591
41	4644
42	460
43	9999
44	250
45	170
50	380
51	841
52	480
53	2222
54	310
55	3473
56	170
57	561
58	100
59	130
63	270
64	170
65	861
66	330
67	5195
68	330
69	440
70	270
77	2262
78	500
79	5925
80	611
81	3934
82	440
83	150
91	1281
92	330
93	1321
94	3393
95	6075
97	520
98	190
104	60
106	150
108	190
109	711
110	190
119	190
121	100
123	440
124	130
137	1672
138	130
151	100
152	2072
153	130
