Mass Spectrum: 2,5-Cyclohexadiene-1,4-dione, 2,3-dimethoxy-5-methyl-
Formula: C9 H10 O4
CAS: 605-94-7
Molecular weight: 182
Origin: Japan AIST/NIMC Database- Spectrum MS-IW- 221
m/z	RELATIVE INTENSITY
13	10
14	70
15	1929
16	30
18	20
25	20
26	99
27	609
28	599
29	389
30	30
31	90
32	30
33	10
34	50
36	10
37	169
38	409
39	2699
40	2509
41	519
42	90
43	1059
44	60
45	90
48	30
49	50
50	229
51	319
52	479
53	1009
54	109
55	289
56	119
57	30
58	10
59	70
61	30
62	50
63	80
64	30
65	259
66	299
67	769
68	2649
69	2969
70	119
71	209
72	30
74	10
77	109
78	70
79	219
80	479
81	819
82	109
83	4669
84	269
85	70
86	239
87	20
90	20
91	60
92	30
93	269
94	209
95	369
96	1139
97	149
98	30
99	139
105	10
106	40
107	329
108	789
109	529
110	119
111	2099
112	139
113	40
114	20
115	10
118	40
119	30
120	10
121	679
122	389
123	249
124	239
125	449
126	229
127	30
134	40
135	249
136	2849
137	9999
138	849
139	2519
140	209
141	80
146	10
147	30
149	60
150	80
151	419
152	629
153	1849
154	729
155	80
156	10
163	80
164	349
165	99
166	109
167	4599
168	429
169	50
179	10
180	20
181	229
182	8859
183	1189
184	689
185	60
