Mass Spectrum: Naphthalene, 1,5-dinitro-
Formula: C10 H6 N2 O4
CAS: 605-71-0
Molecular weight: 218
Origin: Japan AIST/NIMC Database- Spectrum MS-IW-2675
m/z	RELATIVE INTENSITY
26	10
27	60
28	59
29	20
30	449
37	50
38	99
39	389
40	20
41	20
42	10
43	50
44	20
45	10
46	30
49	40
50	799
51	629
52	249
53	70
54	20
55	109
56	10
57	20
60	80
61	229
62	659
63	1529
64	309
65	119
66	30
67	10
68	30
69	30
71	40
73	99
74	1789
75	2369
76	2049
77	839
78	139
79	50
80	40
81	10
82	20
83	10
84	20
85	139
86	509
87	929
88	1259
89	2079
90	769
91	599
92	129
93	50
94	10
95	10
96	10
97	60
98	619
99	799
100	809
101	859
102	2069
103	259
104	1079
105	509
106	80
107	50
108	10
109	30
110	50
111	90
112	60
113	1579
114	7309
115	899
116	1549
117	339
118	369
119	2519
120	529
121	90
122	159
123	50
124	40
125	629
126	5629
127	789
128	379
129	319
130	1189
131	149
132	919
133	149
134	30
135	20
136	10
138	10
139	10
140	30
141	689
142	1069
143	169
144	289
145	99
146	229
147	30
148	20
149	40
154	20
155	30
156	199
157	90
158	1329
159	279
160	169
161	20
162	10
170	20
171	90
172	259
173	40
175	70
185	20
187	20
188	239
189	20
202	109
203	10
218	9999
219	1189
220	149
221	10
