Mass Spectrum: Propanamide, N-(1-oxopropyl)-
Formula: C6 H11 N O2
CAS: 6050-26-6
Molecular weight: 129
Origin: Japan AIST/NIMC Database- Spectrum MS-IW-5916
m/z	RELATIVE INTENSITY
14	20
15	40
16	10
17	30
18	109
25	10
26	219
27	1169
28	949
29	5089
30	179
31	20
39	20
40	10
41	40
42	149
43	90
44	849
45	149
46	30
51	10
52	30
53	40
54	139
55	419
56	1299
57	9999
58	499
59	40
70	99
71	20
72	1349
73	9069
74	4679
75	189
76	10
82	10
86	119
87	10
100	129
101	1019
102	80
114	40
115	10
129	3399
130	369
131	30
