Mass Spectrum: Cyclopentaneundecanoic acid
Formula: C16 H30 O2
CAS: 6053-49-2
Molecular weight: 254
m/z	RELATIVE INTENSITY
26	601
27	4304
28	2702
29	4104
30	300
31	601
32	40
36	100
37	100
38	200
39	3803
40	1001
41	9999
42	2702
43	3503
44	901
45	2602
46	100
50	100
51	300
52	200
53	1201
54	1001
55	6206
56	2002
57	1101
58	200
59	500
60	2402
61	200
63	100
65	400
66	400
67	3403
68	1201
69	3403
70	801
71	601
72	100
73	1401
74	300
75	100
77	300
78	100
79	601
80	300
81	701
82	901
83	1401
84	601
85	400
86	100
87	400
91	200
92	100
93	200
94	100
95	400
96	400
97	601
98	400
99	100
100	100
101	200
107	100
109	100
110	100
111	300
112	100
113	200
114	100
115	200
116	100
124	100
125	100
126	100
128	200
129	601
130	400
136	100
137	100
138	100
140	200
141	100
142	100
155	100
169	100
171	100
185	300
186	100
187	100
211	100
254	100
