Mass Spectrum: N,N,N',N'-Tetraethyl-1,3-propanediamine
Formula: C11 H26 N2
CAS: 60558-96-5
Molecular weight: 186
Origin: NIST Mass Spectrometry Data Center
m/z	RELATIVE INTENSITY
13	10
15	210
18	210
27	791
28	1992
29	2222
30	3493
39	160
41	941
42	2332
43	350
44	941
50	10
52	20
53	20
54	220
56	2372
57	801
58	3133
63	20
64	40
67	40
68	110
70	1481
71	1121
72	1672
73	60
78	190
80	10
81	10
82	70
84	3003
85	1381
86	9999
87	571
88	10
93	10
96	40
98	6656
99	601
100	911
101	50
110	10
111	20
113	3063
114	350
115	50
127	20
128	10
141	40
155	60
157	60
186	130
187	10
