Mass Spectrum: Furmecyclox
Formula: C14 H21 N O3
CAS: 60568-05-0
Molecular weight: 251
Origin: NIST Mass Spectral Data Center
m/z	RELATIVE INTENSITY
43	530
51	130
53	1001
81	1041
94	120
95	100
122	210
123	9999
124	801
138	120
139	180
169	571
220	561
221	320
251	1101
252	170
