Mass Spectrum: Ethyl homovanillate
Formula: C11 H14 O4
CAS: 60563-13-5
Molecular weight: 210
Origin: Japan AIST/NIMC Database- Spectrum MS-NW-8035
m/z	RELATIVE INTENSITY
14	20
15	139
18	10
26	80
27	509
28	90
29	1159
30	40
31	80
37	10
38	90
39	539
40	129
41	60
42	50
43	149
44	10
45	70
49	10
50	159
51	549
52	209
53	169
54	30
55	189
56	10
61	20
62	60
63	139
64	90
65	529
66	609
67	99
68	50
69	40
73	10
74	30
75	40
76	50
77	419
78	209
79	169
80	40
81	90
82	20
86	10
87	10
89	20
90	60
91	119
92	40
93	90
94	1319
95	139
96	10
104	10
105	199
106	159
107	269
108	40
109	50
110	20
111	10
119	30
120	10
121	50
122	1249
123	269
124	50
125	20
133	20
134	10
135	99
136	80
137	9999
138	939
139	80
149	30
150	10
151	10
153	20
164	60
165	30
181	20
182	50
195	10
209	20
210	2259
211	289
212	50
