Mass Spectrum: 4,7-Methanoindan, 3a,4,7,7a-tetrahydro-1,2-epoxy-4,5,6,7,8,8-hexachloro-
Formula: C10 H6 Cl6 O
CAS: 6058-23-7
Molecular weight: 352
Origin: G.Castillo ET AL.JAOAC,61,1(1978)
m/z	RELATIVE INTENSITY
39	2152
40	480
41	721
43	550
50	561
51	1041
52	340
53	3964
54	1912
55	1011
56	651
57	1371
61	350
62	400
63	941
65	520
66	460
69	631
73	1682
74	751
75	1311
77	460
81	9999
82	1621
83	821
84	510
85	1001
86	571
87	871
89	1772
91	951
96	470
97	841
98	460
99	681
107	981
109	1411
110	420
111	641
113	791
115	571
117	7707
118	490
119	2823
120	500
121	911
122	300
123	701
130	470
131	530
132	420
133	801
135	460
141	1121
143	1221
145	681
147	1171
148	621
149	2702
150	310
151	2803
152	330
153	1071
155	470
157	861
159	721
165	480
167	821
168	420
169	611
170	510
171	430
180	470
181	641
183	2612
184	721
185	1651
186	330
187	310
191	1191
192	460
193	1421
194	380
195	661
203	390
204	561
205	420
206	561
214	430
216	701
217	2252
218	1371
219	2232
220	1201
221	1021
222	530
227	651
228	470
229	591
235	1682
236	280
237	2762
238	671
239	2232
240	470
241	1151
242	180
246	701
247	330
248	881
249	490
250	520
251	691
252	270
253	1211
254	380
255	1511
256	460
257	791
258	210
261	2262
262	290
263	3453
264	510
265	2332
266	380
267	661
270	921
271	320
272	1802
273	390
274	1451
275	210
276	571
277	210
281	1031
282	270
283	1281
284	320
285	691
286	210
287	210
289	260
291	270
293	160
299	190
301	210
303	200
308	220
310	300
312	290
314	150
317	3583
318	360
319	5745
320	561
321	3613
322	390
323	1201
324	190
325	220
352	571
354	1101
356	951
358	370
