Mass Spectrum: S-(+)-5-(1-Hydroxy-1-methylethyl)-2-methyl-2-cyclohexen-1-one
Formula: C10 H16 O2
CAS: 60593-11-5
Molecular weight: 168
Origin: Chuck Anderson, Aldrich Chemical Co.
m/z	RELATIVE INTENSITY
14	10
15	137
16	5
17	2
18	8
19	11
26	44
27	596
28	174
29	354
30	10
31	998
32	12
33	5
36	2
37	19
38	74
39	1492
40	261
41	2070
42	223
43	2798
44	83
45	615
46	17
47	5
48	1
49	5
50	118
51	305
52	209
53	932
54	652
55	494
56	40
57	91
59	9999
60	338
61	43
62	31
63	72
64	16
65	275
66	305
67	746
68	156
69	293
70	33
71	156
72	11
73	5
74	14
75	11
76	3
77	501
78	88
79	783
80	163
81	634
82	951
83	105
84	14
85	90
86	6
87	2
89	13
90	13
91	417
92	103
93	200
95	3992
96	244
97	39
99	36
100	5
103	13
105	64
106	4
107	596
108	387
109	2872
110	5223
111	447
112	31
113	3
115	20
116	2
117	16
119	5
121	27
122	28
123	26
124	4
125	18
133	6
135	233
136	22
137	2
149	1
150	970
151	122
152	6
153	205
154	18
168	9
169	9
