Mass Spectrum: Naphthalene, 1,3-dinitro-
Formula: C10 H6 N2 O4
CAS: 606-37-1
Molecular weight: 218
Origin: Japan AIST/NIMC Database- Spectrum MS-NW-8229
m/z	RELATIVE INTENSITY
26	20
27	60
28	69
29	20
30	1329
37	40
38	90
39	449
40	20
41	10
43	279
44	10
45	10
46	60
49	30
50	899
51	609
52	289
53	40
55	30
57	10
61	159
62	499
63	1149
64	229
65	60
66	10
67	20
68	10
73	60
74	1489
75	1519
76	2069
77	489
78	60
79	10
80	10
84	10
85	80
86	449
87	859
88	869
89	1259
90	179
91	20
92	20
93	10
94	10
95	599
96	30
97	40
98	589
99	819
100	829
101	539
102	1519
103	149
104	109
105	209
106	20
108	10
109	20
110	40
111	80
112	50
113	1789
114	4869
115	629
116	639
117	99
118	20
119	10
120	10
121	30
122	139
123	60
124	50
125	3339
126	9999
127	1459
128	349
129	179
130	919
131	99
132	40
133	10
135	20
138	10
139	10
140	129
141	1269
142	1459
143	239
144	479
145	70
146	20
148	10
149	20
154	10
155	50
156	30
157	129
158	119
159	20
160	779
161	109
162	10
163	20
170	70
171	2729
172	2409
173	289
174	30
185	70
187	10
188	399
189	50
190	759
191	80
192	10
200	10
201	6369
202	899
203	99
204	10
217	10
218	9119
219	1079
220	129
221	10
