Mass Spectrum: Methanone, (2-hydroxyphenyl)(4-hydroxyphenyl)-
Formula: C13 H10 O3
CAS: 606-12-2
Molecular weight: 214
m/z	RELATIVE INTENSITY
39	2002
40	200
51	500
53	500
63	701
64	500
65	3103
66	300
92	901
93	2002
94	701
120	2202
121	9999
122	801
197	601
213	2202
214	3803
215	500
