Mass Spectrum: Benzenamine, N,N-diethyl-2-methyl-
Formula: C11 H17 N
CAS: 606-46-2
Molecular weight: 163
Origin: NIST Mass Spectrometry Data Center, 2009
m/z	RELATIVE INTENSITY
15	10
26	20
27	160
28	70
29	210
30	20
38	20
39	230
40	30
41	100
42	100
43	10
44	40
45	10
50	70
51	240
52	120
53	70
54	30
55	10
56	60
58	20
61	10
62	40
63	190
64	70
65	831
66	70
67	10
68	10
70	10
72	10
74	40
75	30
76	40
77	450
78	160
79	130
80	30
86	10
87	10
89	220
90	110
91	1722
92	260
93	260
94	30
102	20
103	70
104	160
105	180
106	110
107	50
108	20
115	70
116	40
117	390
118	1882
119	470
120	1571
121	140
122	10
128	10
129	10
130	100
131	50
132	330
133	240
134	591
135	70
146	100
147	350
148	9999
149	1171
150	60
162	320
163	1942
164	240
165	10
