Mass Spectrum: 2(1H)-Quinolinone, 1-methyl-
Formula: C10 H9 N O
CAS: 606-43-9
Molecular weight: 159
Origin: Japan AIST/NIMC Database- Spectrum MS-IW-3092
m/z	RELATIVE INTENSITY
14	10
15	60
26	30
27	80
28	50
29	10
37	60
38	139
39	359
40	40
41	40
42	40
43	20
44	10
49	40
50	329
51	799
52	169
53	60
54	20
55	20
57	10
61	80
62	249
63	619
64	529
65	379
66	90
67	10
70	40
73	30
74	209
75	299
76	229
77	1039
78	189
79	229
80	30
85	20
86	40
87	90
88	139
89	869
90	339
91	129
92	40
97	20
98	40
99	20
100	10
101	159
102	369
103	799
104	239
105	30
114	109
115	199
116	439
117	80
118	60
127	20
128	799
129	419
130	4149
131	3109
132	339
133	20
140	20
141	80
142	30
143	20
144	90
145	20
158	1229
159	9999
160	1139
161	80
