Mass Spectrum: 1H-Indene-1,3(2H)-dione
Formula: C9 H6 O2
CAS: 606-23-5
Molecular weight: 146
Origin: Japan AIST/NIMC Database- Spectrum MS-NW-4273
m/z	RELATIVE INTENSITY
12	10
13	30
14	99
15	20
16	10
18	20
25	20
26	50
27	70
28	10
29	30
31	10
36	50
37	279
38	359
39	499
40	99
41	109
42	339
43	129
44	60
45	309
48	30
49	199
50	2579
51	549
52	90
53	99
54	10
55	10
59	359
60	50
61	199
62	429
63	899
64	389
65	30
66	30
68	10
69	159
70	10
72	20
73	169
74	949
75	949
76	6619
77	689
78	90
79	10
84	20
85	60
86	80
87	90
88	60
89	1699
90	4089
91	309
92	20
97	10
98	30
99	10
101	30
102	80
103	109
104	6969
105	1279
106	109
107	10
117	10
118	2039
119	189
120	10
145	10
146	9999
147	1019
148	99
149	20
