Mass Spectrum: Urea, 3TMS derivative
Formula: C10 H28 N2 O Si3
CAS: 60615-84-1
Molecular weight: 276
Origin: James Shoemaker, St. Louis Online Library of Metabolic Mass Spectra
m/z	RELATIVE INTENSITY
56	10
57	30
58	50
59	219
69	40
70	50
71	50
72	109
73	4169
74	349
75	409
76	10
77	40
78	30
79	0
84	10
85	40
86	40
87	20
88	0
98	0
99	309
100	289
101	60
102	40
103	30
104	0
105	10
107	0
111	10
112	0
113	60
114	50
115	99
116	90
117	109
118	20
119	20
120	0
127	0
128	0
129	20
130	849
131	469
132	319
133	289
134	40
135	10
139	0
141	20
142	0
143	10
144	0
146	1039
147	9999
148	1529
149	759
150	70
151	20
155	30
156	10
157	169
158	20
159	10
160	10
161	0
170	10
171	1459
172	249
173	1179
174	189
175	90
176	0
185	0
186	20
187	159
188	99
189	50
190	10
202	0
204	289
205	60
206	20
207	0
229	0
231	0
245	1489
246	349
247	179
248	20
249	0
255	10
260	10
261	1999
262	519
263	249
264	30
265	0
276	1029
277	269
278	139
279	10
280	0
