Mass Spectrum: 7-Pentadecanone
Formula: C15 H30 O
CAS: 6064-38-6
Molecular weight: 226
Origin: NIST Mass Spectrometry Data Center, 1994
m/z	RELATIVE INTENSITY
12	9
15	104
17	39
18	96
26	117
27	2373
28	692
29	4015
30	95
39	1170
40	305
41	5752
42	1569
43	9999
44	353
45	24
50	10
51	38
52	31
53	337
54	221
55	2748
56	617
57	3763
58	4536
59	1338
60	48
65	61
67	515
68	585
69	653
70	437
71	4228
72	788
73	74
77	45
79	79
81	754
82	300
83	309
84	181
85	2119
86	529
87	32
91	14
93	26
94	28
95	388
96	713
97	189
98	257
99	271
100	268
101	22
109	104
110	143
111	64
112	22
113	2793
114	333
115	23
123	143
124	27
127	227
128	505
129	373
130	34
138	83
139	20
141	1830
142	186
143	12
155	75
156	273
157	133
158	12
169	185
170	42
183	75
184	21
197	42
226	46
227	23
