Mass Spectrum: 7-Heptadecanone
Formula: C17 H34 O
CAS: 6064-42-2
Molecular weight: 254
Origin: NIST Mass Spectrometry Data Center, 1994
m/z	RELATIVE INTENSITY
18	46
27	875
28	254
29	2309
39	1024
40	230
41	5274
42	1303
43	9999
44	257
51	32
53	287
54	233
55	2762
56	658
57	3285
58	4124
59	444
60	9
65	62
66	43
67	582
68	605
69	875
70	487
71	3421
72	744
77	46
79	107
80	40
81	571
82	471
83	437
84	231
85	2740
86	600
87	54
91	25
93	37
94	41
95	885
96	427
97	272
98	138
99	311
100	222
101	30
107	16
109	265
110	272
111	102
112	16
113	2688
114	327
115	29
123	55
124	422
125	45
126	144
127	225
128	617
129	644
130	58
137	27
141	448
142	93
151	42
152	21
155	106
156	29
166	54
169	1354
170	177
184	196
185	107
197	123
198	25
211	61
254	38
255	23
