Mass Spectrum: Acetic acid, diethoxy-, ethyl ester
Formula: C8 H16 O4
CAS: 6065-82-3
Molecular weight: 176
Origin: NIST Mass Spectrometry Data Center, 1994
m/z	RELATIVE INTENSITY
12	11
14	55
15	236
16	16
19	787
26	274
27	1949
28	758
29	5365
30	354
31	775
32	28
39	12
41	77
42	66
43	322
44	82
45	819
46	12
47	9999
48	99
49	40
55	9
56	23
57	206
58	222
59	45
60	107
73	57
75	6617
76	239
77	32
86	116
88	20
91	21
103	7186
104	418
105	40
131	282
132	48
