Mass Spectrum: 2,5-Pyrrolidinedione, 1-hydroxy-
Formula: C4 H5 N O3
CAS: 6066-82-6
Molecular weight: 115
Origin: Japan AIST/NIMC Database- Spectrum MS-NW-2982
m/z	RELATIVE INTENSITY
12	90
13	129
14	429
15	459
16	90
17	40
18	179
24	70
25	339
26	2869
27	4089
28	9999
29	1489
30	589
31	959
32	50
33	10
36	50
37	99
38	159
39	219
40	229
41	409
42	3109
43	2919
44	1299
45	229
46	90
50	60
51	219
52	459
53	579
54	929
55	9459
56	3219
57	779
58	60
59	1979
60	119
61	20
64	20
66	10
67	20
68	40
69	469
70	1159
71	129
72	359
73	30
74	10
78	20
80	269
81	109
82	60
83	40
84	80
85	20
86	10
87	4889
88	199
89	30
95	10
96	40
97	799
98	319
99	2009
100	109
101	10
111	10
112	10
113	20
114	20
115	9119
116	489
117	70
