Mass Spectrum: Benzoic acid, 2-methyl-, anhydride
Formula: C16 H14 O3
CAS: 607-86-3
Molecular weight: 254
Origin: Japan AIST/NIMC Database- Spectrum MS-IW-7807
m/z	RELATIVE INTENSITY
17	10
18	80
27	10
28	20
38	10
39	139
40	10
41	40
50	20
51	60
52	10
62	20
63	109
64	40
65	599
66	30
77	20
89	159
90	139
91	2099
92	169
118	1309
119	9999
120	879
121	50
136	40
195	99
196	10
209	20
254	139
255	20
