Mass Spectrum: Quinoline, 5-nitro-
Formula: C9 H6 N2 O2
CAS: 607-34-1
Molecular weight: 174
Origin: Japan AIST/NIMC Database- Spectrum MS-NW-3666
m/z	RELATIVE INTENSITY
26	70
27	129
28	50
30	259
32	10
36	10
37	139
38	189
39	279
40	30
41	20
43	20
44	20
46	40
48	10
49	99
50	749
51	1209
52	239
53	40
54	10
60	20
61	149
62	329
63	459
64	229
65	50
66	10
72	10
73	90
74	809
75	1509
76	519
77	1529
78	219
79	20
80	10
85	40
86	70
87	109
88	129
89	479
90	99
91	20
97	20
98	149
99	159
100	329
101	2929
102	1439
103	129
104	10
114	40
115	80
116	1319
117	159
118	40
119	10
123	10
124	10
126	50
127	429
128	9999
129	1099
130	60
142	20
143	20
144	1069
145	119
146	20
158	60
174	6319
175	689
176	70
