Mass Spectrum: 1-Naphthalenol, benzoate
Formula: C17 H12 O2
CAS: 607-55-6
Molecular weight: 248
Origin: J. Little, Eastman chemical company.
m/z	RELATIVE INTENSITY
31	200
39	110
45	90
46	110
50	160
51	571
62	80
63	220
64	50
65	120
74	80
75	110
76	160
77	3303
78	250
88	80
89	290
105	9999
106	1111
113	100
114	140
115	1481
116	190
126	80
127	170
128	811
129	90
143	140
144	70
165	40
189	70
248	1832
249	330
250	40
