Mass Spectrum: Formamide, N,N-diphenyl-
Formula: C13 H11 N O
CAS: 607-00-1
Molecular weight: 197
Origin: Japan AIST/NIMC Database- Spectrum MS-IW-4986
m/z	RELATIVE INTENSITY
27	70
28	30
29	50
37	20
38	70
39	389
40	80
41	30
50	229
51	1279
52	139
53	10
54	10
57	10
58	40
61	10
62	50
63	199
64	159
65	509
66	2229
67	119
69	40
70	80
71	109
72	10
74	80
75	80
76	109
77	1519
78	179
79	10
82	30
83	559
84	199
85	30
87	10
88	20
89	90
90	60
91	149
92	70
93	60
94	859
95	50
101	20
102	40
103	40
104	1209
105	99
113	20
114	30
115	279
116	70
117	50
126	10
127	50
128	99
129	30
130	20
138	10
139	219
140	179
141	269
142	169
143	99
144	10
151	20
152	30
153	40
154	109
155	10
164	10
165	20
166	429
167	2349
168	4589
169	5479
170	699
171	40
180	20
196	99
197	9999
198	1489
199	119
