Mass Spectrum: Naphthalene, 1-(phenylmethoxy)-
Formula: C17 H14 O
CAS: 607-58-9
Molecular weight: 234
Origin: D.HENNEBERG, MAX-PLANCK INSTITUTE, MULHEIM, WEST GERMANY
m/z	RELATIVE INTENSITY
27	34
28	199
29	16
30	6
31	20
38	7
39	123
40	14
41	97
42	24
43	23
44	92
45	10
50	12
51	60
52	24
53	6
55	10
56	7
57	28
59	7
62	4
63	74
64	16
65	858
66	49
67	5
69	12
70	7
71	18
74	7
75	19
76	24
77	61
78	14
79	9
81	6
82	4
83	7
85	9
87	5
88	13
89	170
90	52
91	9999
92	797
93	29
97	5
99	6
101	26
102	9
103	42
104	12
105	13
106	16
107	4
109	4
111	3
113	18
114	44
115	738
116	80
117	12
118	12
119	3
125	5
126	33
127	110
128	46
129	14
130	4
141	36
142	5
143	37
144	42
145	6
149	8
152	4
155	14
156	91
157	17
165	13
177	4
178	10
179	4
189	17
190	13
191	7
200	4
201	9
202	30
203	38
204	20
205	29
206	20
207	6
215	20
216	5
217	8
218	8
219	8
231	18
232	6
233	24
234	2442
235	452
236	46
