Mass Spectrum: Naphthalene, 1,1'-methylenebis-
Formula: C21 H16
CAS: 607-50-1
Molecular weight: 268
Origin: Japan AIST/NIMC Database- Spectrum MS-IW-4942
m/z	RELATIVE INTENSITY
27	10
39	50
50	30
51	70
52	10
62	30
63	99
64	10
65	30
74	40
75	70
76	40
77	70
78	10
86	20
87	60
88	50
89	80
91	30
93	30
94	30
98	20
99	20
100	30
101	70
102	30
105	30
106	90
107	30
108	10
111	10
112	30
113	159
114	129
115	729
116	90
117	20
118	159
119	309
120	169
121	80
124	10
125	109
126	759
127	219
128	60
129	10
130	119
131	599
132	709
133	769
134	909
135	20
137	10
138	20
139	609
140	299
141	1039
142	119
150	30
151	40
152	90
153	80
154	10
155	10
162	10
163	50
164	30
165	80
166	10
174	10
175	10
176	20
187	40
188	20
189	90
190	40
191	50
200	30
201	10
202	40
211	30
212	10
213	50
214	10
215	40
224	30
225	20
226	109
227	30
228	40
229	10
235	10
236	10
237	109
238	10
239	349
240	109
241	90
242	20
248	10
250	129
251	80
252	1809
253	1869
254	369
255	40
261	119
262	40
263	589
264	239
265	2039
266	1009
267	5389
268	9999
269	2139
270	229
271	20
