Mass Spectrum: Benzoic acid, 2-hydroxy-, 4-methylphenyl ester
Formula: C14 H12 O3
CAS: 607-88-5
Molecular weight: 228
Origin: Japan AIST/NIMC Database- Spectrum MS-NW-4562
m/z	RELATIVE INTENSITY
18	10
26	20
27	119
28	50
29	10
37	20
38	90
39	569
40	30
41	10
44	10
50	80
51	149
52	80
53	119
54	10
55	20
61	10
62	50
63	209
64	179
65	1029
66	70
67	10
74	20
75	20
76	10
77	269
78	80
79	139
80	40
89	20
90	50
91	50
92	249
93	739
94	60
107	589
108	849
109	70
119	10
120	239
121	9999
122	779
123	60
227	10
228	919
229	139
230	10
