Mass Spectrum: 9H-Fluorene, 2-nitro-
Formula: C13 H9 N O2
CAS: 607-57-8
Molecular weight: 211
Origin: Japan AIST/NIMC Database- Spectrum MS-NW-2673
m/z	RELATIVE INTENSITY
16	10
26	10
27	30
28	219
30	129
32	40
37	20
38	30
39	159
41	10
44	20
46	20
50	129
51	149
52	20
55	20
56	10
61	50
62	159
63	399
64	40
65	70
67	20
68	20
69	349
70	40
73	10
74	169
75	179
76	109
77	70
78	10
81	239
82	309
83	50
85	40
86	149
87	209
88	80
89	179
90	30
91	30
97	10
98	80
99	60
100	30
101	40
102	40
109	20
110	60
111	70
112	30
113	129
114	50
115	529
116	60
122	20
123	10
124	10
125	30
126	119
127	90
128	20
134	10
135	20
137	119
138	109
139	779
140	99
141	10
149	20
150	159
151	449
152	829
153	679
154	90
155	10
161	60
162	199
163	2019
164	3819
165	9999
166	1429
167	129
168	10
177	20
178	50
179	99
180	139
181	769
182	119
183	10
194	2159
195	489
196	50
210	50
211	5879
212	849
213	80
