Mass Spectrum: 2(1H)-Quinolinone, 4-methyl-
Formula: C10 H9 N O
CAS: 607-66-9
Molecular weight: 159
Origin: Japan AIST/NIMC Database- Spectrum MS-NW-4182
m/z	RELATIVE INTENSITY
26	40
27	149
28	30
30	70
37	70
38	139
39	439
40	50
41	40
42	10
43	10
49	30
50	259
51	549
52	259
53	60
54	30
57	20
58	20
61	50
62	149
63	339
64	359
65	579
66	60
67	20
73	20
74	109
75	169
76	179
77	949
78	239
79	149
80	20
85	10
86	30
87	50
88	70
89	269
90	139
91	70
92	50
93	20
98	10
99	10
100	10
101	80
102	319
103	839
104	229
105	20
113	20
114	60
115	119
116	70
117	50
118	10
120	40
128	139
129	179
130	8709
131	2069
132	169
140	30
141	60
143	10
144	10
158	60
159	9999
160	1139
161	80
