Mass Spectrum: Ethyl 2-acetylbutyrate
Formula: C8 H14 O3
CAS: 607-97-6
Molecular weight: 158
Origin: NIST Mass Spectrometry Data Center, 1998.
m/z	RELATIVE INTENSITY
14	10
15	170
26	110
27	920
28	120
29	1380
30	50
31	90
37	20
38	80
39	790
40	150
41	940
42	650
43	9999
44	280
45	510
46	20
47	10
50	30
51	40
52	10
53	130
54	40
55	2570
56	110
57	40
58	60
59	50
60	120
61	170
62	10
63	10
65	30
66	20
67	100
68	110
69	950
70	1000
71	1390
72	70
73	5849
74	190
75	30
83	10
84	350
85	210
86	130
87	710
88	1680
89	540
90	30
97	100
98	10
99	30
100	10
101	5219
102	390
103	40
111	10
112	40
113	1800
114	130
115	200
116	5449
117	360
118	30
130	960
131	60
132	10
143	80
158	50
159	40
