Mass Spectrum: Quinoline, 4-methoxy-
Formula: C10 H9 N O
CAS: 607-31-8
Molecular weight: 159
m/z	RELATIVE INTENSITY
50	3673
51	3306
52	326
53	204
54	163
61	286
62	735
63	1551
64	531
65	326
74	490
75	1224
76	531
77	286
87	163
88	408
89	2653
90	571
101	735
102	816
103	245
115	204
116	5224
117	694
121	204
122	449
128	612
129	2122
130	1020
144	286
157	326
158	1632
159	9999
160	1143
