Mass Spectrum: 1,3-Benzodioxole, 4-methoxy-6-(2-propenyl)-
Formula: C11 H12 O3
CAS: 607-91-0
Molecular weight: 192
Origin: N.W. DAVIES, UNIVERSITY OF TASMANIA, TASMANIA, AUSTRALIA
m/z	RELATIVE INTENSITY
38	250
39	1360
40	140
41	580
43	190
44	110
45	410
46	130
50	510
51	830
52	270
53	770
55	190
62	270
63	790
64	530
65	1530
66	210
69	100
74	160
75	200
76	220
77	1200
78	410
79	890
89	570
90	310
91	2380
92	420
93	170
102	230
103	730
104	270
105	320
107	150
115	130
116	160
118	200
119	1590
120	370
121	200
122	100
131	1140
132	380
133	890
134	380
135	230
147	910
148	130
149	320
161	1280
162	220
163	100
165	2230
166	250
177	350
191	1140
192	9999
193	1180
194	130
