Mass Spectrum: 2-Chloro-4-fluorobenzonitrile
Formula: C7 H3 Cl F N
CAS: 60702-69-4
Molecular weight: 155
Origin: NIST Mass Spectrometry Data Center, 1994
m/z	RELATIVE INTENSITY
12	73
13	28
14	14
18	22
24	33
25	85
26	198
27	24
28	45
31	1165
32	34
33	39
35	247
36	256
37	821
38	421
39	128
40	21
44	125
45	65
46	65
47	165
48	120
49	479
50	1014
51	228
52	98
54	11
55	89
56	268
57	378
58	33
60	282
61	607
62	463
63	367
64	213
65	38
66	14
67	116
68	697
69	611
70	164
71	55
72	144
73	393
74	562
75	1088
76	336
77	322
78	120
80	108
81	85
82	69
83	15
84	164
85	113
86	175
87	180
88	193
89	45
90	51
91	181
92	333
93	1148
94	832
95	155
96	29
97	61
98	132
99	564
100	1683
101	147
102	37
103	51
104	169
105	50
106	77
107	11
108	44
109	77
110	40
111	38
112	14
114	11
115	31
116	11
117	50
118	161
119	697
120	3330
121	269
122	34
124	35
126	16
127	61
128	469
129	116
130	152
131	31
134	36
135	36
136	27
155	9999
156	912
157	3104
158	252
159	12
