Mass Spectrum: 4-Methoxy-3-methylbenzyl chloride
Formula: C9 H11 Cl O
CAS: 60736-71-2
Molecular weight: 170
Origin: NIST Mass Spectrometry Data Center, 1994
m/z	RELATIVE INTENSITY
14	31
15	564
26	87
27	267
29	152
30	27
35	45
36	53
37	57
38	204
39	911
40	146
41	169
43	52
44	19
45	57
49	70
50	408
51	818
52	367
53	200
54	32
55	82
59	20
60	67
61	69
62	193
63	557
64	163
65	970
66	148
67	90
73	65
74	119
75	159
76	109
77	693
78	305
79	399
80	49
84	43
85	60
86	49
87	48
89	228
91	2505
92	595
93	49
98	17
99	38
101	39
102	105
103	419
104	184
105	213
106	34
107	19
115	28
119	279
120	500
121	108
125	37
126	27
127	60
133	49
135	9999
136	994
137	73
139	44
154	23
155	73
157	26
170	1572
171	157
172	521
173	49
