Mass Spectrum: Benzoic acid, 2-(2-hydroxybenzoyl)-
Formula: C14 H10 O4
CAS: 6079-73-8
Molecular weight: 242
m/z	RELATIVE INTENSITY
39	1802
40	200
50	701
51	801
52	100
53	500
63	901
64	200
65	4004
66	400
75	500
76	1101
77	901
78	100
92	601
93	2402
94	200
104	400
105	300
115	400
121	5005
122	400
139	1501
140	601
149	1702
150	200
168	2903
169	500
196	6005
197	2502
198	500
223	7307
224	9999
225	1802
226	200
242	2502
243	400
