Mass Spectrum: Benzene, 1,3,5-trimethyl-2,4-dinitro-
Formula: C9 H10 N2 O4
CAS: 608-50-4
Molecular weight: 210
Origin: T.BRUUN NORWEGIAN INST. OF TECH., TRONDHEIM, NORWAY
m/z	RELATIVE INTENSITY
37	100
38	200
39	1800
40	900
41	1400
42	600
43	24
44	9
45	400
50	600
51	1400
52	500
53	1200
54	200
55	400
56	300
57	400
58	100
59	200
62	200
63	900
64	300
65	1900
66	700
67	400
68	200
69	500
70	200
71	200
74	200
75	300
76	300
77	2100
78	1100
79	1000
80	200
81	400
82	100
83	200
84	100
85	100
88	200
89	500
90	300
91	2700
92	1000
93	900
94	300
95	200
96	100
97	100
98	100
101	100
102	400
103	900
104	600
105	700
106	500
107	500
108	200
115	900
116	500
117	1000
118	1400
119	1300
120	700
121	300
122	100
129	100
131	100
132	100
133	300
134	400
135	400
136	100
146	400
147	700
148	400
149	100
159	100
162	400
163	700
164	100
165	100
175	100
176	1000
177	100
180	200
193	9999
194	1200
195	100
210	7300
211	700
212	200
