Mass Spectrum: 5-Methoxytryptamine
Formula: C11 H14 N2 O
CAS: 608-07-1
Molecular weight: 190
Origin: Japan AIST/NIMC Database- Spectrum MS-NW-2035
m/z	RELATIVE INTENSITY
26	10
27	60
28	309
29	30
30	1499
31	30
32	20
37	10
38	40
39	139
40	20
41	40
42	30
43	20
44	60
50	80
51	159
52	109
53	30
54	20
55	10
57	10
58	20
59	10
61	10
62	90
63	229
64	80
65	90
66	20
67	10
72	20
73	50
74	50
75	80
76	80
77	169
78	70
79	20
80	20
86	10
87	50
88	30
89	319
90	329
91	109
92	20
98	10
100	10
101	40
102	129
103	109
104	60
105	10
114	10
115	40
116	209
117	1109
118	299
119	30
127	10
128	90
129	119
130	309
131	60
132	80
133	30
141	10
142	20
143	50
144	199
145	1739
146	1009
147	159
148	20
155	20
156	30
157	30
158	99
159	269
160	9999
161	6659
162	719
163	40
171	30
172	30
173	99
174	50
175	10
183	10
184	10
185	10
186	60
187	20
188	50
189	50
190	3479
191	449
192	40
