Mass Spectrum: Galactitol
Formula: C6 H14 O6
CAS: 608-66-2
Molecular weight: 182
Origin: Japan AIST/NIMC Database- Spectrum MS-NW-1196
m/z	RELATIVE INTENSITY
13	10
14	99
15	1289
16	30
17	20
18	70
19	10
26	109
27	749
28	719
29	1359
30	249
31	2619
32	109
33	20
36	20
37	10
38	40
39	239
40	60
41	589
42	699
43	3449
44	2019
45	2339
46	139
47	159
49	60
50	10
51	20
53	50
54	70
55	849
56	2599
57	1959
58	139
59	149
60	1309
61	5879
62	219
63	30
64	10
67	20
68	40
69	409
70	50
71	1039
72	169
73	9999
74	4519
75	309
76	20
77	20
79	20
81	30
82	20
83	40
84	30
85	789
86	129
87	119
88	20
89	80
90	20
91	889
92	40
93	10
94	10
95	20
96	20
97	169
98	40
99	20
101	10
102	30
103	2139
104	189
105	20
109	10
110	20
111	20
115	289
116	50
121	40
128	10
129	10
133	1409
134	80
135	20
146	40
