Mass Spectrum: Cyclohexane, 1,2,3,4,5,6-hexachloro-
Formula: C6 H6 Cl6
CAS: 608-73-1
Molecular weight: 288
Origin: EQUINE DRUG TESTING PROG. J.D.HENION,ETAL CORNELL U, ITHACA, NY
m/z	RELATIVE INTENSITY
36	790
37	1290
38	2720
39	2020
47	130
48	270
49	1870
50	3590
51	5420
52	610
55	620
56	820
57	220
60	600
61	1990
62	720
63	1250
64	110
65	160
72	420
73	2960
74	1700
75	3710
76	520
77	2990
78	500
83	2640
84	430
85	3650
86	620
87	2330
88	240
89	470
90	140
95	360
96	1750
97	510
98	1120
99	900
100	370
101	290
107	290
109	9530
110	690
111	9999
112	1510
113	2400
114	490
115	120
119	160
121	2030
122	920
123	1510
124	550
125	260
126	110
131	250
133	910
134	390
135	760
136	240
137	280
143	800
144	230
145	2670
146	2210
147	2540
148	1340
149	990
150	260
151	120
156	1190
157	620
158	1060
159	510
160	370
161	150
169	280
171	250
181	8290
182	900
183	7430
184	690
185	2670
186	200
187	280
216	1060
217	5710
218	1760
219	6770
220	1110
221	3600
222	380
223	740
252	870
253	110
254	1370
255	120
256	900
258	60
288	300
290	600
292	440
294	190
