Mass Spectrum: Phenol, 2,6-dibromo-
Formula: C6 H4 Br2 O
CAS: 608-33-3
Molecular weight: 250
Origin: Japan AIST/NIMC Database- Spectrum MS-NW-7581
m/z	RELATIVE INTENSITY
24	10
25	60
26	70
27	30
28	119
29	70
31	50
32	30
36	80
37	639
38	729
39	339
40	10
41	10
42	30
43	30
44	30
45	80
46	80
48	20
49	139
50	139
51	60
52	10
53	839
54	30
55	10
56	10
57	10
60	119
61	569
62	1189
63	4709
64	839
65	159
66	199
67	20
70	20
71	259
72	229
73	99
74	259
75	119
76	10
77	20
79	119
80	149
81	119
82	139
84	10
85	279
86	259
89	10
90	109
91	769
92	1199
93	80
94	10
95	20
104	20
105	20
106	20
107	20
109	10
111	90
112	169
113	90
115	20
116	109
117	359
118	109
119	349
120	20
125	219
126	429
127	229
128	20
129	10
130	30
131	40
133	30
135	10
139	10
140	20
141	99
142	689
143	1379
144	699
145	1379
146	90
147	10
154	10
156	10
169	10
170	729
171	309
172	719
173	299
174	40
175	10
195	20
197	30
199	20
221	99
222	10
223	189
224	20
225	90
226	10
249	10
250	5159
251	369
252	9999
253	689
254	4939
255	329
256	20
