Mass Spectrum: Benzene, 2-iodo-1,3-dimethyl-
Formula: C8 H9 I
CAS: 608-28-6
Molecular weight: 232
m/z	RELATIVE INTENSITY
18	40
27	220
28	200
29	10
32	60
38	80
39	360
40	40
41	30
43	10
50	190
51	440
52	150
53	110
57	10
61	50
62	130
63	290
64	70
65	110
66	20
74	90
75	70
76	80
77	1131
78	490
79	1391
80	90
89	90
90	50
91	20
102	110
103	1121
104	490
105	4114
106	370
107	20
116	130
117	100
127	150
128	30
217	20
218	20
231	120
232	9999
233	901
234	40
