Mass Spectrum: Racemic-2,3-dimethyl-butanedioic acid
Formula: C6 H10 O4
CAS: 608-40-2
Molecular weight: 146
Origin: Japan AIST/NIMC Database- Spectrum MS-NW-3216
m/z	RELATIVE INTENSITY
12	10
13	20
14	40
15	259
16	30
17	99
18	329
25	60
26	709
27	3379
28	2159
29	3529
30	409
31	339
32	10
36	20
37	149
38	259
39	2549
40	419
41	5259
42	239
43	769
44	369
45	2309
46	139
47	99
48	10
49	70
50	289
51	319
52	149
53	769
54	599
55	5109
56	8149
57	1969
58	189
59	539
60	80
61	20
62	10
63	30
65	20
66	30
67	40
68	99
69	1869
70	99
71	80
72	209
73	2899
74	9999
75	379
76	50
77	20
78	20
79	10
80	10
81	70
82	739
83	909
84	99
85	1559
86	90
87	2549
88	119
89	20
91	10
92	10
93	10
94	10
95	20
96	10
97	30
98	20
99	129
100	4619
101	729
102	339
103	20
105	10
107	10
109	10
110	99
111	20
112	10
113	159
114	10
115	10
122	10
124	10
125	10
126	10
127	10
128	1539
129	359
130	30
131	10
