Mass Spectrum: 2,3-Dimethylhydroquinone
Formula: C8 H10 O2
CAS: 608-43-5
Molecular weight: 138
Origin: NIST Mass Spectrometry Data Center, 1990.
m/z	RELATIVE INTENSITY
26	418
27	788
28	470
29	367
38	346
39	1527
40	265
41	584
43	708
50	906
51	1311
52	696
53	2169
54	1539
55	1556
61	159
62	400
63	853
64	283
65	1498
66	767
67	1827
68	292
69	513
74	265
77	2128
78	474
79	2445
80	754
81	1307
82	1033
83	216
89	338
90	420
91	2847
92	599
93	323
94	678
95	2681
96	307
105	181
107	1862
108	1147
109	1458
110	454
119	643
120	390
121	1077
123	7481
124	595
136	1275
137	3557
138	9999
139	882
