Mass Spectrum: Tryptamine, 2TMS derivative
Formula: C16 H28 N2 Si2
CAS: 60840-04-2
Molecular weight: 304
Origin: R.S.BANDURSKI MICHIGAN STATE UNIV., EAST LANSING, MICH., USA
m/z	RELATIVE INTENSITY
30	30
31	30
43	320
44	210
45	980
46	50
47	20
55	30
56	20
57	50
58	190
59	460
60	20
69	20
72	200
73	7790
74	630
75	400
77	190
78	20
79	30
81	20
86	170
87	80
100	40
101	40
102	9999
103	1120
104	390
105	50
111	30
115	50
129	70
130	210
131	60
133	30
144	30
145	200
146	40
156	40
160	60
172	90
186	140
187	50
188	130
189	30
200	150
201	200
202	3080
203	5640
204	1030
205	220
206	30
214	70
215	150
232	110
289	300
290	60
291	20
302	60
303	40
304	340
305	110
