Mass Spectrum: 1-Methyl-1H-1,2,4-triazole
Formula: C3 H5 N3
CAS: 6086-21-1
Molecular weight: 83
m/z	RELATIVE INTENSITY
26	150
27	750
28	5749
29	550
38	150
39	200
40	650
41	300
42	300
43	350
45	150
46	150
53	300
54	150
55	500
56	4000
57	150
83	9999
84	600
