Mass Spectrum: 2-Methyl-8-nitroindolizine
Formula: C9 H8 N2 O2
CAS: 60891-78-3
Molecular weight: 176
Origin: V.G.Zaikin, TIPS, Russian Acad. Sci.
m/z	RELATIVE INTENSITY
50	500
51	1901
63	500
76	490
77	3503
78	700
102	1201
103	4554
104	1010
117	450
118	660
128	1901
129	580
130	7356
131	980
146	710
149	490
176	9999
177	1061
178	50
