Mass Spectrum: 4-Pentynoic acid
Formula: C5 H6 O2
CAS: 6089-09-4
Molecular weight: 98
Origin: James Little,Eastman Chem.Co.,Kingsport,TN
m/z	RELATIVE INTENSITY
15	591
19	721
26	1672
27	7046
28	2012
39	4344
42	3403
50	3303
51	3483
52	3283
53	6796
55	2582
57	671
69	3353
70	9999
71	791
79	561
80	210
81	831
97	3263
98	310
