Mass Spectrum: 6-Nitro-2-phenylindolizine
Formula: C14 H10 N2 O2
CAS: 60891-76-1
Molecular weight: 238
Origin: V.A. KOPTYUG, ATLAS OF MS OF ORG. CMPDS.,VOL3
m/z	RELATIVE INTENSITY
50	270
51	430
62	270
63	850
64	100
65	130
74	220
75	240
76	280
77	340
82	300
86	130
87	250
88	160
89	350
90	180
96	250
102	350
113	200
114	160
115	840
119	300
126	170
127	120
139	640
140	220
151	110
152	390
153	120
154	100
162	120
163	1010
164	1000
165	2540
166	580
177	180
181	270
190	1000
191	2910
192	6840
193	1560
194	130
208	120
238	9999
239	1680
