Mass Spectrum: Propanedioic acid, oxo-, diethyl ester
Formula: C7 H10 O5
CAS: 609-09-6
Molecular weight: 174
Origin: Japan AIST/NIMC Database- Spectrum MS-NW-8993
m/z	RELATIVE INTENSITY
14	10
15	80
18	30
19	10
26	129
27	1469
28	729
29	9999
30	429
31	929
32	10
41	80
42	50
43	369
44	169
45	939
46	119
47	179
55	10
56	149
57	269
58	20
59	179
73	359
74	1499
75	179
76	30
91	20
102	499
103	60
104	20
119	60
147	40
174	30
175	40
