Mass Spectrum: Butanoic acid, 2-bromo-3-methyl-, ethyl ester
Formula: C7 H13 Br O2
CAS: 609-12-1
Molecular weight: 208
Origin: Japan AIST/NIMC Database- Spectrum MS-IW-3997
m/z	RELATIVE INTENSITY
14	20
15	119
17	10
18	60
19	20
26	139
27	1849
28	469
29	7069
30	199
31	90
37	20
38	90
39	1509
40	249
41	2939
42	369
43	2469
44	119
45	819
46	20
47	10
49	20
50	30
51	70
52	30
53	389
54	109
55	9119
56	1259
57	1039
58	60
59	739
60	129
61	40
65	10
67	30
68	129
69	1289
70	109
71	50
72	20
73	869
74	40
77	50
79	40
80	80
81	30
82	149
83	1049
84	149
85	489
86	169
87	419
88	219
89	10
91	50
92	30
93	70
94	50
95	70
96	20
99	90
100	119
101	2829
102	179
103	20
105	10
107	489
108	10
109	489
110	10
111	10
113	20
114	10
115	70
119	80
120	779
121	259
122	739
123	169
124	10
128	50
129	4779
130	379
131	30
133	20
134	80
135	2729
136	199
137	2669
138	5889
139	189
140	5659
141	169
142	20
147	70
149	90
151	10
152	20
154	20
162	10
163	829
164	60
165	899
166	9999
167	539
168	9719
169	449
170	40
179	10
180	10
181	40
182	10
183	30
193	70
195	70
208	10
209	80
210	20
211	70
