Mass Spectrum: Phenol, 2,4-dichloro-6-nitro-
Formula: C6 H3 Cl2 N O3
CAS: 609-89-2
Molecular weight: 207
Origin: J.E. WILKINSON S-CUBED, SAN DIEGO, CA.
m/z	RELATIVE INTENSITY
49	990
50	340
53	1650
60	290
61	2640
62	4750
63	1350
72	430
73	1870
76	90
83	270
85	930
87	320
97	8789
99	2440
107	400
109	230
110	60
113	210
125	610
126	10
127	30
132	2290
133	4180
134	830
135	1680
149	3410
151	2090
153	40
160	560
161	230
162	1140
163	220
164	340
177	1050
179	580
190	450
192	230
207	9999
209	6469
211	290
