Mass Spectrum: 3,5-Dibromoanthranilic acid
Formula: C7 H5 Br2 N O2
CAS: 609-85-8
Molecular weight: 293
Origin: NIST Mass Spectrometry Data Center
m/z	RELATIVE INTENSITY
27	130
29	140
32	20
36	110
37	651
38	601
39	500
41	220
43	60
45	1161
49	190
50	460
51	671
52	1742
53	500
54	150
55	70
60	290
61	1942
62	3353
63	2973
64	681
65	530
66	110
67	100
68	130
73	240
74	540
75	220
76	200
77	210
78	540
79	811
80	210
81	210
82	160
84	530
85	490
87	380
88	1551
89	1892
90	2262
91	701
92	300
93	110
95	60
98	621
99	651
104	70
105	80
106	250
107	290
108	110
115	110
116	300
117	901
118	370
119	420
120	70
121	100
123	340
124	641
125	370
128	80
130	120
131	150
132	80
133	120
135	90
137	530
138	991
139	450
141	1121
142	240
143	1331
144	210
145	330
146	100
147	170
148	90
153	120
155	150
156	60
158	480
159	160
160	400
161	110
167	120
168	2272
169	811
170	2312
171	831
172	160
173	100
186	160
188	140
195	70
196	460
197	270
198	410
199	170
220	80
221	110
222	150
223	210
224	70
225	70
247	1031
248	220
249	2202
250	400
251	1171
252	190
253	80
275	5305
276	480
277	9999
278	921
279	4914
280	410
293	2772
294	220
295	5195
296	470
297	2522
298	220
