Mass Spectrum: 2-Iodobenzoyl chloride
Formula: C7 H4 Cl I O
CAS: 609-67-6
Molecular weight: 266
Origin: Japan AIST/NIMC Database- Spectrum MS-IW-3828
m/z	RELATIVE INTENSITY
28	20
35	10
36	20
37	80
38	60
39	20
49	99
50	999
51	90
53	10
60	10
61	40
62	30
63	10
72	10
73	109
74	519
75	679
76	2019
77	169
84	10
85	40
86	10
87	10
92	10
101	50
103	10
104	269
105	30
110	30
111	199
112	20
113	60
115	339
116	20
119	30
120	10
127	279
128	70
133	10
135	70
139	40
141	10
164	10
176	30
177	20
203	2429
204	169
231	9999
232	779
233	40
266	1329
267	99
268	439
269	30
