Mass Spectrum: Phenol, 4-amino-2,6-dibromo-
Formula: C6 H5 Br2 N O
CAS: 609-21-2
Molecular weight: 265
Origin: Japan AIST/NIMC Database- Spectrum MS-NW-3019
m/z	RELATIVE INTENSITY
12	10
14	10
15	10
16	10
18	20
24	20
25	90
26	169
27	179
28	799
29	80
30	10
31	10
32	30
39	449
40	90
41	149
42	20
43	20
44	119
45	10
48	30
49	199
50	669
51	1389
52	1779
53	1169
54	309
55	60
57	20
60	60
61	279
62	369
63	199
64	99
65	60
66	40
67	20
68	109
69	10
71	10
73	10
74	30
75	99
76	489
77	259
78	4059
79	999
80	279
81	179
82	159
83	10
86	10
87	10
88	40
89	90
90	50
91	20
92	169
93	179
94	30
97	10
104	60
105	40
106	179
107	699
108	60
109	40
110	10
113	10
128	20
129	80
130	139
131	219
132	189
133	349
134	189
135	30
140	10
141	50
142	10
143	50
144	10
147	10
149	10
151	189
152	99
153	369
154	149
155	489
156	149
157	3909
158	879
159	3849
160	719
161	139
168	20
169	10
170	20
171	10
184	139
185	389
186	319
187	509
188	219
189	139
190	169
191	20
192	90
194	40
195	30
196	30
197	70
198	30
199	109
200	10
201	60
203	10
205	10
209	20
211	40
213	20
221	10
223	10
225	10
230	20
231	10
232	50
233	20
234	80
235	10
236	129
237	20
238	189
239	40
240	90
241	20
263	90
264	139
265	5189
266	639
267	9999
268	829
269	4799
270	339
271	20
