Mass Spectrum: 2-Nitrofuran
Formula: C4 H3 N O3
CAS: 609-39-2
Molecular weight: 113
Origin: Chuck Anderson, Aldrich Chemical Co.
m/z	RELATIVE INTENSITY
13	165
14	146
16	103
17	51
18	34
24	56
25	215
26	800
27	2111
28	254
29	2681
30	2402
36	181
37	1225
38	2426
39	6018
40	297
41	697
42	116
43	52
44	28
46	224
49	10
50	91
51	321
52	725
53	458
54	200
55	1953
56	61
57	37
66	473
67	116
68	970
69	215
80	236
81	113
83	4611
84	164
96	194
97	655
113	9999
114	376
115	60
