Mass Spectrum: 1-Butanol, 2-nitro-
Formula: C4 H9 N O3
CAS: 609-31-4
Molecular weight: 119
Origin: Japan AIST/NIMC Database- Spectrum MS-NW-4355
m/z	RELATIVE INTENSITY
14	30
15	219
16	20
17	139
18	509
19	70
25	30
26	309
27	2499
28	399
29	2569
30	819
31	5059
32	60
33	20
36	10
37	90
38	169
39	1349
40	239
41	2379
42	1579
43	4809
44	399
45	909
46	109
47	30
48	60
49	20
50	80
51	99
52	70
53	369
54	309
55	9999
56	629
57	1879
58	119
59	70
60	60
61	30
62	20
67	70
68	99
69	50
70	30
71	219
72	539
73	289
74	169
75	30
83	40
84	90
85	99
86	10
87	10
88	80
89	299
90	50
101	10
102	30
119	10
