Mass Spectrum: Thiophene, 2-nitro-
Formula: C4 H3 N O2 S
CAS: 609-40-5
Molecular weight: 129
Origin: Japan AIST/NIMC Database- Spectrum MS-IW-4323
m/z	RELATIVE INTENSITY
25	10
26	60
27	119
28	189
29	20
30	379
32	40
33	20
34	20
36	30
37	229
38	429
39	5659
40	189
41	20
44	149
45	1449
46	90
47	70
48	20
49	60
50	139
51	50
52	109
53	80
54	20
55	1409
56	70
57	1039
58	159
59	60
60	10
63	10
64	20
68	40
69	189
70	99
71	579
72	30
73	60
74	10
75	10
76	40
80	40
81	419
82	489
83	959
84	99
85	50
86	10
87	10
94	20
96	60
97	80
98	10
99	879
100	50
101	40
112	20
113	429
114	20
115	20
129	9999
130	579
131	509
132	20
