Mass Spectrum: 3-Ethyl-2-pentanol
Formula: C7 H16 O
CAS: 609-27-8
Molecular weight: 116
Origin: NIST Mass Spectrometry Data Center, 1990.
m/z	RELATIVE INTENSITY
14	71
15	107
19	100
26	169
27	1243
28	1045
29	1267
30	48
31	265
32	232
38	144
39	1463
40	335
41	2813
42	848
43	3650
44	1320
45	9999
46	234
47	78
50	98
51	229
52	94
53	484
54	78
55	2760
56	504
57	720
58	80
59	885
63	63
65	128
66	47
67	254
68	47
69	1356
70	4068
71	693
72	90
73	78
83	395
85	54
86	70
98	309
101	267
