Mass Spectrum: 10s,11s-Himachala-3(12),4-diene
Formula: C15 H24
CAS: 60909-28-6
Molecular weight: 204
Origin: B. Derendyaev, Novosibirsk Institute of Organic Chemistry
m/z	RELATIVE INTENSITY
40	119
41	4389
42	209
43	1609
51	269
52	80
53	939
54	60
55	3219
56	439
57	1619
64	60
65	879
66	129
67	1589
68	159
69	3109
70	239
71	1139
77	2169
78	539
79	3539
80	559
81	2449
82	899
83	629
84	119
91	5979
92	2269
93	5459
94	929
95	2269
96	1019
97	349
103	379
104	249
105	6369
106	1629
107	4409
108	1689
109	2239
110	239
111	99
112	239
113	109
115	619
116	199
117	1209
118	299
119	5849
120	2419
121	3539
122	1379
123	449
125	50
128	259
129	289
130	80
131	819
132	189
133	6389
134	1989
135	3139
136	769
137	139
141	80
142	99
143	109
145	529
146	139
147	4489
148	2809
149	929
150	249
157	249
159	339
160	229
161	9999
162	1889
163	439
175	899
176	409
177	90
178	179
181	60
187	299
189	6739
190	1069
191	80
202	109
204	9809
205	1549
206	169
