Mass Spectrum: 1-Hexene, 2-methyl-
Formula: C7 H14
CAS: 6094-02-6
Molecular weight: 98
Origin: Japan AIST/NIMC Database- Spectrum MS-NW-4834
m/z	RELATIVE INTENSITY
15	70
26	60
27	1169
28	249
29	889
30	20
37	20
38	70
39	1049
40	289
41	4659
42	559
43	1149
44	40
50	60
51	80
52	40
53	319
54	159
55	1769
56	9999
57	1049
58	40
62	10
63	20
65	30
66	10
67	149
68	60
69	989
70	1239
71	90
77	20
79	30
81	40
83	109
84	20
98	309
99	30
