Mass Spectrum: Methoxypromazine
Formula: C18 H22 N2 O S
CAS: 61-01-8
Molecular weight: 314
Origin: MI-0126
m/z	RELATIVE INTENSITY
26	80
27	200
28	611
29	190
30	671
31	10
32	110
34	50
36	50
37	10
38	30
39	210
40	60
41	280
42	931
43	360
44	520
45	170
47	10
50	70
51	140
52	50
53	20
54	30
55	130
56	270
57	270
58	9999
59	450
60	10
62	30
63	170
64	50
65	130
66	30
67	30
68	50
69	160
70	450
71	200
72	280
73	30
74	30
75	90
76	80
77	200
78	70
79	50
80	10
81	10
82	90
83	30
84	400
85	741
86	3803
87	230
88	20
89	60
90	30
91	80
92	30
93	50
94	30
95	90
96	70
97	30
98	10
100	180
101	30
102	50
103	50
104	40
105	30
106	10
107	20
108	90
109	110
110	10
111	30
112	30
113	50
114	40
115	130
116	40
117	10
118	20
119	10
120	30
121	30
122	40
123	40
124	20
125	30
126	90
127	110
128	100
129	30
130	30
132	10
133	20
134	40
135	40
136	40
138	10
139	100
140	190
141	230
142	30
145	30
146	40
147	30
148	50
149	70
151	40
152	90
153	150
154	170
155	30
156	10
157	80
158	90
159	90
160	50
164	30
165	40
166	150
167	390
168	160
169	130
170	30
171	140
172	40
173	40
177	10
178	60
179	60
180	130
181	40
182	50
183	50
184	180
185	1121
186	450
187	120
188	30
189	10
190	10
191	40
192	40
193	60
194	70
195	90
196	100
197	90
198	240
199	210
200	130
201	30
202	30
203	30
204	30
205	50
206	70
207	70
208	80
209	90
210	390
211	120
212	190
213	110
214	250
215	60
216	20
217	10
218	30
219	30
220	20
221	40
222	40
223	110
224	90
225	70
226	150
227	190
228	1011
229	1611
230	290
231	110
232	10
235	10
236	80
237	80
238	80
239	70
240	110
241	80
242	310
243	390
244	90
245	30
246	30
247	140
248	30
249	120
250	10
252	10
253	50
254	370
255	220
256	180
257	80
258	10
260	70
261	40
262	10
267	10
268	711
269	480
270	120
271	40
314	3073
315	671
316	230
317	40
