Mass Spectrum: Acepromazine
Formula: C19 H22 N2 O S
CAS: 61-00-7
Molecular weight: 326
m/z	RELATIVE INTENSITY
41	500
42	1301
43	1101
44	801
58	9999
59	601
85	701
86	1601
87	200
179	200
196	701
197	1702
198	400
210	200
211	100
212	100
222	400
223	200
224	200
225	300
226	100
240	601
241	300
254	200
255	200
266	100
267	100
268	100
280	300
326	500
