Mass Spectrum: Sulthiame
Formula: C10 H14 N2 O4 S2
CAS: 61-56-3
Molecular weight: 290
Origin: Finnigan MAT: Toxicological Library (LIBR-TX)
m/z	RELATIVE INTENSITY
41	792
51	787
55	729
63	595
64	508
65	617
75	728
76	1035
77	1881
90	507
91	501
103	315
104	2161
105	714
106	306
107	303
117	737
118	635
120	929
130	420
144	209
145	207
146	312
156	311
162	200
168	1493
170	321
183	609
184	6598
185	2760
186	485
198	1135
211	409
225	916
226	300
274	315
290	9999
291	1213
292	791
