Mass Spectrum: 3-Pyridinemethanol, 5-hydroxy-4,6-dimethyl-
Formula: C8 H11 N O2
CAS: 61-67-6
Molecular weight: 153
Origin: Japan AIST/NIMC Database- Spectrum MS-NW-4900
m/z	RELATIVE INTENSITY
14	30
15	269
16	10
17	20
18	70
25	20
26	259
27	1399
28	499
29	519
30	80
31	449
39	1469
40	319
41	1019
42	1179
43	1149
44	60
45	20
46	10
49	40
50	379
51	829
52	779
53	1069
54	319
55	769
56	119
57	70
58	10
61	40
62	80
63	199
64	119
65	639
66	1019
67	869
68	179
69	179
70	40
71	30
74	20
75	40
76	40
77	439
78	159
79	559
80	679
81	649
82	439
83	239
84	50
85	20
89	20
90	40
91	219
92	349
93	229
94	859
95	319
96	369
97	80
98	10
104	50
105	40
106	699
107	999
108	579
109	159
110	1109
111	169
112	20
116	10
117	30
118	70
119	20
120	90
121	20
122	799
123	849
124	5779
125	519
126	30
132	10
133	20
134	219
135	2989
136	1399
137	179
138	1219
139	99
140	10
150	179
151	249
152	3099
153	9999
154	929
155	80
