Mass Spectrum: 3-Amino-s-triazole
Formula: C2 H4 N4
CAS: 61-82-5
Molecular weight: 84
Origin: NIST Mass Spectrometry Data Center, 1998.
m/z	RELATIVE INTENSITY
13	30
16	10
17	40
26	70
27	650
28	3500
29	830
30	210
31	20
38	40
39	20
40	60
41	410
42	1440
43	1600
52	40
53	340
54	260
55	100
56	220
57	3360
58	70
84	9999
85	320
