Mass Spectrum: 1-Anthracenamine
Formula: C14 H11 N
CAS: 610-49-1
Molecular weight: 193
Origin: NIST Mass Spectrometry Data Center, 1990.
m/z	RELATIVE INTENSITY
39	174
50	175
51	189
52	116
62	261
63	403
64	103
70	284
74	303
75	283
76	167
82	743
86	211
87	319
88	189
89	200
96	465
97	1103
98	179
99	134
111	129
113	197
115	338
126	158
127	122
137	137
138	122
139	648
140	221
141	117
150	140
151	164
152	221
153	158
162	163
163	870
164	987
165	4733
166	1140
167	228
176	200
177	136
178	155
190	378
191	525
192	1445
193	9999
194	1542
195	128
