Mass Spectrum: Methyl-2-iodobenzoate
Formula: C8 H7 I O2
CAS: 610-97-9
Molecular weight: 262
Origin: Japan AIST/NIMC Database- Spectrum MS-IW-2924
m/z	RELATIVE INTENSITY
15	129
26	10
27	10
28	50
29	60
30	10
37	50
38	60
39	70
44	10
49	60
50	1089
51	189
52	10
53	20
59	60
61	10
62	20
63	90
64	119
65	40
73	60
74	379
75	439
76	2249
77	929
78	60
79	20
89	10
91	30
92	399
93	20
101	10
103	10
104	399
105	129
106	10
115	20
119	40
120	80
127	169
128	80
131	40
135	99
136	10
176	10
177	10
183	20
185	20
203	2669
204	189
214	10
216	10
217	10
218	10
231	9999
232	779
233	40
245	10
246	20
247	20
261	109
262	8769
263	779
264	60
