Mass Spectrum: Benzoic acid, 2,5-dinitro-
Formula: C7 H4 N2 O6
CAS: 610-28-6
Molecular weight: 212
Origin: Japan AIST/NIMC Database- Spectrum MS-NW- 486
m/z	RELATIVE INTENSITY
12	20
15	20
16	50
17	20
18	70
26	99
27	159
28	149
29	139
30	9999
31	40
36	149
37	319
38	509
39	389
40	50
41	90
42	60
43	90
44	929
45	409
46	249
47	10
48	20
49	119
50	1819
51	409
52	459
53	1229
54	119
55	159
56	40
57	149
60	70
61	279
62	719
63	1829
64	1479
65	189
66	199
67	60
68	99
69	80
70	30
71	60
72	30
73	359
74	2089
75	3949
76	1439
77	339
78	90
79	219
80	219
81	50
82	60
83	50
84	20
85	40
86	30
87	70
88	60
89	40
90	279
91	779
92	3169
93	299
94	60
95	40
96	60
97	50
98	30
99	30
101	30
102	40
103	179
104	129
105	60
106	99
107	40
108	269
109	30
111	30
112	20
118	90
119	139
120	2159
121	229
122	1069
123	90
124	20
127	50
129	20
132	20
134	70
135	20
136	40
137	20
138	40
139	20
148	599
149	109
150	20
151	20
152	60
153	20
154	20
155	20
164	179
165	50
166	109
167	40
168	3489
169	289
170	40
180	30
182	259
183	30
184	20
195	129
196	119
197	10
212	2159
213	209
214	40
