Mass Spectrum: o-Nitrobenzoyl chloride
Formula: C7 H4 Cl N O3
CAS: 610-14-0
Molecular weight: 185
Origin: NIST Mass Spectrometry Data Center, 1994
m/z	RELATIVE INTENSITY
12	14
15	19
16	43
25	37
26	122
27	290
28	117
29	14
30	1771
31	14
35	145
36	77
37	493
38	465
39	191
40	21
43	2
46	380
47	21
50	3038
51	2402
52	374
53	121
60	44
61	179
62	183
63	470
64	184
65	59
66	18
73	297
74	1213
75	1718
76	2784
77	239
78	453
79	9
84	45
85	136
86	50
87	62
88	18
89	8
90	22
92	185
93	19
99	45
101	23
104	572
105	53
111	470
112	46
113	158
114	12
120	46
134	156
135	8
139	12
150	9999
151	841
152	92
153	8
