Mass Spectrum: ortho-Hydroxypropiophenone
Formula: C9 H10 O2
CAS: 610-99-1
Molecular weight: 150
Origin: NIST Mass Spectrometry Data Center
m/z	RELATIVE INTENSITY
12	20
13	20
14	20
15	70
17	10
18	20
25	10
26	300
27	921
28	230
29	591
30	30
32	40
37	240
38	681
39	2883
40	180
42	60
43	40
46	30
48	10
49	60
50	410
51	500
53	731
54	60
55	200
56	50
57	110
60	20
61	180
62	400
63	941
64	601
65	3103
66	320
67	70
73	20
74	10
75	150
76	110
77	460
78	120
79	50
81	10
85	20
86	20
89	40
90	30
91	120
92	410
93	1942
94	190
95	20
102	40
103	110
104	50
105	30
107	30
118	20
121	9999
122	801
123	80
131	150
132	30
147	10
150	2382
151	230
152	20
