Mass Spectrum: Anthracene, 1-methyl-
Formula: C15 H12
CAS: 610-48-0
Molecular weight: 192
Origin: NIST Mass Spectrometry Data Center, 1994
m/z	RELATIVE INTENSITY
15	22
18	4
26	28
27	205
38	59
39	249
40	10
50	203
51	208
52	38
61	43
62	186
63	375
64	60
65	55
70	397
74	222
75	232
76	102
77	73
78	17
83	1593
85	34
86	139
87	238
88	165
89	122
90	13
95	1202
96	1179
98	117
99	72
100	36
101	26
102	32
110	64
111	72
112	19
113	75
114	26
115	176
116	16
122	34
123	21
125	26
126	95
127	32
128	28
134	15
137	51
138	38
139	196
140	30
149	33
150	189
151	143
152	204
153	25
161	47
162	94
163	415
164	280
165	1157
166	165
174	51
175	59
176	211
177	44
178	15
185	17
186	41
187	314
188	316
189	2491
190	1262
191	4761
192	9999
193	1489
194	101
