Mass Spectrum: 2-Nitrophenyl acetate
Formula: C8 H7 N O4
CAS: 610-69-5
Molecular weight: 181
Origin: NIST Mass Spectrometry Data Center
m/z	RELATIVE INTENSITY
12	10
13	30
14	150
15	761
16	10
18	20
26	50
28	60
30	691
37	160
38	571
39	611
40	40
43	9999
44	200
46	10
49	30
50	320
51	360
52	290
53	300
54	30
55	10
61	90
62	300
63	1281
64	651
65	601
66	70
67	20
68	10
75	50
76	80
77	50
78	140
79	30
81	500
82	30
92	150
93	190
94	90
95	30
104	10
106	180
107	10
109	490
110	30
122	110
123	170
124	10
133	20
135	10
139	3944
140	290
141	20
181	210
182	20
