Mass Spectrum: (Z),(Z)-2,4-Hexadiene
Formula: C6 H10
CAS: 6108-61-8
Molecular weight: 82
Origin: NIST Mass Spectrometry Data Center, 1990.
m/z	RELATIVE INTENSITY
15	272
26	348
27	1721
28	240
29	341
37	213
38	610
39	3807
40	714
41	3182
42	499
49	120
50	842
51	1031
52	478
53	1702
54	1539
55	571
62	170
63	336
65	1688
66	400
67	9999
68	565
74	130
77	699
78	110
79	1286
80	185
81	1056
82	4198
83	273
