Mass Spectrum: 3,4-Octadiene, 2,2,7,7-tetramethyl-
Formula: C12 H22
CAS: 61092-76-0
Molecular weight: 166
Origin: S.A. Rang et al., IR & MS of Unsatd. Hydrocarbons, 1977
m/z	RELATIVE INTENSITY
15	130
26	80
27	540
29	1740
39	680
41	2510
42	230
43	690
50	50
51	140
52	100
53	300
54	100
55	600
56	300
57	9999
66	90
67	40
68	390
69	110
70	450
77	240
78	310
79	70
80	470
81	50
82	420
83	170
84	240
85	30
91	110
93	110
94	50
95	2110
96	190
108	950
109	1700
110	110
123	110
151	330
152	40
166	100
