Mass Spectrum: N-Methyl-o-toluidine
Formula: C8 H11 N
CAS: 611-21-2
Molecular weight: 121
Origin: Japan AIST/NIMC Database- Spectrum MS-NW-1198
m/z	RELATIVE INTENSITY
14	40
15	119
26	60
27	289
28	209
29	30
30	499
37	60
38	179
39	849
40	90
41	229
42	249
43	30
44	60
45	30
46	40
47	40
49	20
50	329
51	749
52	449
53	349
54	109
55	30
56	30
58	199
59	499
60	399
61	70
62	189
63	499
64	169
65	1309
66	169
67	50
68	20
73	20
74	90
75	90
76	109
77	1309
78	509
79	769
80	199
81	20
85	20
86	30
87	30
88	10
89	349
90	179
91	2549
92	539
93	349
94	90
95	20
102	20
103	70
104	699
105	169
106	7029
107	939
108	50
116	20
117	149
118	649
119	169
120	5899
121	9999
122	879
123	40
