Mass Spectrum: Methanone, (4-methoxyphenyl)phenyl-
Formula: C14 H12 O2
CAS: 611-94-9
Molecular weight: 212
Origin: NIST Mass Spectrometry Data Center, 1994
m/z	RELATIVE INTENSITY
14	27
15	277
16	5
18	13
26	25
27	98
28	56
29	58
31	9
37	26
39	208
40	5
50	523
51	1071
52	79
53	87
55	10
57	10
61	26
62	155
63	585
64	704
65	85
66	37
69	10
70	9
73	23
74	197
75	185
76	9
77	3265
78	252
79	83
85	9
86	37
87	43
88	32
89	48
90	10
92	1298
93	95
94	9
98	22
99	13
101	12
102	18
105	1055
106	117
107	756
108	58
110	7
113	46
114	36
115	246
116	32
119	29
120	16
121	8
126	29
127	17
133	14
135	9999
136	894
137	88
139	227
140	89
141	197
142	23
150	27
151	51
152	132
153	64
154	17
167	12
168	85
169	249
170	35
181	355
182	59
184	41
195	49
196	43
197	49
198	11
212	4953
213	765
214	55
