Mass Spectrum: Methanone, bis(4-methylphenyl)-
Formula: C15 H14 O
CAS: 611-97-2
Molecular weight: 210
Origin: NIST Mass Spectrometry Data Center, 1994
m/z	RELATIVE INTENSITY
15	33
18	12
26	16
27	105
28	16
37	19
38	106
39	997
40	86
41	251
46	14
50	198
51	403
52	81
53	60
61	35
62	211
63	794
64	295
65	2785
66	161
74	70
75	92
76	106
77	116
78	35
82	52
86	51
87	62
89	996
90	854
91	4588
92	378
98	19
102	22
104	20
114	13
115	95
116	17
119	9999
120	922
121	64
126	22
127	24
128	42
129	15
139	63
141	24
150	16
151	37
152	136
153	39
163	33
164	52
165	422
166	137
167	116
168	19
176	19
177	20
178	65
179	34
180	18
181	129
182	88
193	17
195	1540
196	245
197	18
207	10
208	26
210	3282
211	540
212	40
