Mass Spectrum: Cyclopentanecarboxylic acid, 2-oxo-, ethyl ester
Formula: C8 H12 O3
CAS: 611-10-9
Molecular weight: 156
Origin: Japan AIST/NIMC Database- Spectrum MS-NW-5402
m/z	RELATIVE INTENSITY
12	40
13	50
14	189
15	569
16	40
17	20
18	60
24	20
25	119
26	1409
27	5809
28	2339
29	5559
30	189
31	2699
32	80
36	20
37	159
38	269
39	2279
40	469
41	2009
42	889
43	1119
44	649
45	1809
46	489
47	30
48	20
49	70
50	289
51	389
52	259
53	1169
54	1979
55	9999
56	1499
57	379
58	279
59	70
60	419
61	319
62	40
63	40
64	30
65	119
66	129
67	129
68	1399
69	779
70	299
71	309
72	199
73	8979
74	359
75	50
76	10
77	20
78	10
79	40
80	70
81	439
82	2609
83	2949
84	869
85	139
86	109
87	279
88	479
89	30
91	10
92	10
93	20
94	30
95	30
96	10
97	40
98	40
99	1059
100	839
101	3569
102	239
103	30
104	10
105	20
107	20
108	50
109	679
110	7549
111	6449
112	489
113	90
114	219
115	109
116	30
117	10
120	10
121	10
122	10
123	10
125	10
126	20
127	219
128	7009
129	599
130	60
137	20
138	10
139	10
141	30
142	50
143	10
154	10
155	50
156	1309
157	149
158	20
