Mass Spectrum: .alpha.-Isopropylbenzyl alcohol
Formula: C10 H14 O
CAS: 611-69-8
Molecular weight: 150
Origin: NIST Mass Spectrometry Data Center, 1990.
m/z	RELATIVE INTENSITY
15	57
26	59
27	467
29	231
31	46
38	122
39	758
40	113
41	442
42	66
43	504
50	511
51	1432
52	363
53	311
54	55
55	146
57	193
62	153
63	454
64	170
65	446
66	70
74	170
75	139
77	3980
78	1034
79	7166
80	481
89	285
91	1121
92	136
102	88
103	155
104	120
105	869
106	88
107	9999
108	742
115	1003
116	326
117	1833
118	191
128	102
129	108
130	45
131	328
132	1031
133	135
150	740
151	80
