Mass Spectrum: Isopropyl phenyl ketone
Formula: C10 H12 O
CAS: 611-70-1
Molecular weight: 148
Origin: NIST Mass Spectrometry Data Center, 1994
m/z	RELATIVE INTENSITY
12	8
14	77
15	409
16	3
26	306
27	1554
29	57
31	8
37	91
38	319
39	1236
40	8
41	1117
42	165
43	541
44	17
50	1051
51	2750
52	224
53	80
55	141
56	24
57	8
58	8
61	34
62	69
63	116
64	23
65	51
66	15
69	14
70	10
71	14
73	54
74	297
75	215
76	10
77	5427
78	448
79	32
85	7
86	17
87	16
88	8
89	41
91	76
92	9
101	7
102	31
103	57
104	7
105	9999
106	805
107	51
115	45
116	9
117	8
119	13
128	11
129	15
131	14
133	12
148	818
149	90
150	4
