Mass Spectrum: Benzoic acid, 2,4-dimethyl-
Formula: C9 H10 O2
CAS: 611-01-8
Molecular weight: 150
Origin: Japan AIST/NIMC Database- Spectrum MS-NW-2662
m/z	RELATIVE INTENSITY
14	30
15	30
16	20
17	10
18	30
26	50
27	619
28	249
29	60
31	20
32	20
36	10
37	90
38	209
39	1099
40	109
41	219
42	10
43	119
44	109
45	159
46	10
49	60
50	449
51	1369
52	399
53	499
54	30
55	60
59	40
60	20
61	109
62	279
63	679
64	159
65	639
66	359
67	40
69	10
73	30
74	189
75	209
76	149
77	2709
78	1309
79	1509
80	99
81	20
82	10
83	10
84	10
85	30
86	60
87	60
88	20
89	249
90	99
91	1869
92	159
93	80
94	10
97	10
98	30
99	10
101	40
102	229
103	1699
104	5019
105	6279
106	629
107	209
108	20
116	10
117	10
118	20
119	109
120	20
121	209
122	50
125	10
129	10
131	30
132	9999
133	4439
134	409
135	429
136	40
147	30
148	30
149	339
150	9439
151	949
152	90
