Mass Spectrum: Urea, N,N'-dimethyl-N,N'-diphenyl-
Formula: C15 H16 N2 O
CAS: 611-92-7
Molecular weight: 240
Origin: Japan AIST/NIMC Database- Spectrum MS-NW-2243
m/z	RELATIVE INTENSITY
15	40
18	10
27	70
28	30
30	70
37	10
38	50
39	259
40	20
41	20
42	30
50	109
51	699
52	80
53	20
54	10
56	40
62	20
63	109
64	119
65	249
66	50
74	20
75	30
76	70
77	3029
78	359
79	299
80	20
90	40
91	299
92	40
93	219
94	20
104	219
105	99
106	3279
107	409
108	20
119	389
120	129
121	30
132	20
133	10
134	9999
135	909
136	60
147	159
148	30
149	10
163	20
167	20
180	10
181	30
182	90
183	439
184	60
224	10
238	10
239	269
240	4519
241	779
242	70
