Mass Spectrum: Benzoylformic acid
Formula: C8 H6 O3
CAS: 611-73-4
Molecular weight: 150
Origin: NIST Mass Spectrometry Data Center, 1992
m/z	RELATIVE INTENSITY
12	4
14	19
16	9
25	34
26	106
28	538
29	90
30	27
35	10
36	57
37	247
38	385
39	284
40	42
42	13
44	369
45	338
46	27
47	15
48	48
49	187
50	1440
51	3123
52	235
54	15
60	34
61	90
62	108
63	80
64	24
65	60
66	8
72	23
73	138
74	417
75	268
76	8
77	7348
78	471
79	22
84	22
85	12
86	17
87	27
89	18
90	21
91	55
92	20
94	7
99	29
105	9999
106	833
107	38
110	14
111	27
112	16
122	180
123	14
150	66
151	14
