Mass Spectrum: Naphthalene, 1-(2-naphthalenylmethyl)-
Formula: C21 H16
CAS: 611-48-3
Molecular weight: 268
Origin: CONTINENTAL OIL CO., PONCA CITY, OKLA., USA
m/z	RELATIVE INTENSITY
26	37
27	208
28	133
29	60
30	5
36	17
37	40
38	58
39	355
40	29
41	96
42	26
43	85
44	7
49	10
50	181
51	330
52	66
53	36
54	16
55	69
56	36
57	68
58	18
60	12
61	17
62	109
63	388
64	161
65	124
66	21
67	24
68	23
69	40
70	41
71	33
72	13
73	14
74	146
75	225
76	125
77	220
78	95
79	27
80	25
81	42
82	30
83	35
84	25
85	29
86	65
87	148
88	118
89	203
90	28
91	87
92	14
93	26
94	43
95	44
96	26
97	27
98	114
99	97
100	80
101	208
102	122
103	23
104	15
105	22
106	41
107	47
108	34
109	28
110	52
111	59
112	62
113	203
114	188
115	1350
116	152
117	26
118	63
119	135
120	168
121	78
122	37
123	28
124	34
125	128
126	864
127	524
128	150
129	25
130	43
131	169
132	352
133	699
134	864
135	41
136	12
137	37
138	77
139	838
140	373
141	1442
142	172
143	15
146	11
147	9
149	19
150	71
151	82
152	137
153	62
154	13
155	10
161	19
162	25
163	105
164	45
165	96
166	19
174	30
175	27
176	53
177	17
178	14
185	15
186	22
187	76
188	37
189	125
190	41
191	41
192	13
198	21
199	23
200	58
201	29
202	60
203	20
209	6
210	5
211	46
212	26
213	84
214	30
215	73
216	24
217	5
222	14
223	20
224	58
225	40
226	129
227	49
228	64
229	25
235	36
236	45
237	171
238	157
239	499
240	236
241	148
242	34
248	60
249	69
250	175
251	243
252	1630
253	1377
254	281
255	52
259	43
261	165
262	153
263	669
264	393
265	2345
266	1656
267	5273
268	9999
269	2095
270	233
271	22
