Mass Spectrum: Benzene, 1-ethyl-2-methyl-
Formula: C9 H12
CAS: 611-14-3
Molecular weight: 120
Origin: Japan AIST/NIMC Database- Spectrum MS-NW-3366
m/z	RELATIVE INTENSITY
15	30
26	20
27	239
28	20
29	20
37	20
38	60
39	469
40	50
41	159
43	30
49	10
50	159
51	419
52	119
53	159
55	10
57	99
58	109
59	119
61	30
62	90
63	279
64	60
65	419
66	40
67	10
74	60
75	50
76	50
77	909
78	319
79	729
80	50
85	10
86	20
87	20
89	139
90	40
91	1029
92	229
93	50
101	20
102	90
103	589
104	279
105	9999
106	919
107	40
115	239
116	70
117	249
118	40
119	249
120	3189
121	319
122	10
