Mass Spectrum: 1H-Indole-2,3-dione, 5-nitro-
Formula: C8 H4 N2 O4
CAS: 611-09-6
Molecular weight: 192
Origin: Japan AIST/NIMC Database- Spectrum MS-IW-4952
m/z	RELATIVE INTENSITY
25	10
26	50
27	70
28	289
29	20
30	179
31	10
36	30
37	269
38	339
39	439
40	109
41	30
43	20
44	119
45	179
46	30
48	10
49	80
50	209
51	379
52	459
53	249
54	20
55	20
58	20
59	50
60	50
61	429
62	1059
63	2159
64	459
65	70
66	90
67	80
68	30
69	30
73	209
74	509
75	999
76	109
77	109
78	459
79	439
80	279
81	30
86	30
87	99
88	209
89	439
90	3629
91	499
92	40
93	10
96	50
101	10
103	139
104	30
105	10
106	999
107	209
108	10
116	20
117	219
118	549
119	50
120	10
129	10
132	10
133	10
134	469
135	40
137	179
138	10
145	119
146	20
148	269
149	40
162	20
164	9999
165	869
166	90
176	30
191	10
192	4499
193	449
194	50
