Mass Spectrum: Benzene, 1-chloro-2-(chloromethyl)-
Formula: C7 H6 Cl2
CAS: 611-19-8
Molecular weight: 160
Origin: Japan AIST/NIMC Database- Spectrum MS-NW-4680
m/z	RELATIVE INTENSITY
26	50
27	50
28	10
35	50
36	159
37	109
38	179
39	509
40	40
41	10
43	139
44	299
45	30
47	20
48	10
49	80
50	259
51	259
52	30
60	40
61	169
62	639
63	999
64	179
65	99
72	30
73	289
74	70
75	149
76	20
77	20
78	10
79	10
80	20
81	10
84	30
85	70
86	90
87	99
88	40
89	1789
90	459
91	70
96	10
97	80
98	10
99	519
100	20
101	169
102	10
111	10
123	99
124	119
125	9999
126	839
127	3129
128	249
133	20
135	10
159	229
160	1889
161	299
162	1229
163	119
164	199
165	10
