Mass Spectrum: Benzonitrile, 2-hydroxy-
Formula: C7 H5 N O
CAS: 611-20-1
Molecular weight: 119
Origin: Japan AIST/NIMC Database- Spectrum MS-NW-7664
m/z	RELATIVE INTENSITY
12	10
13	10
14	40
15	10
24	10
25	50
26	189
27	249
28	129
29	169
31	20
36	80
37	809
38	1159
39	1269
40	169
41	489
42	99
43	40
44	299
45	639
46	60
48	40
49	179
50	589
51	399
52	929
53	339
54	40
55	70
59	40
60	90
61	409
62	619
63	2219
64	3149
65	739
66	109
67	80
68	30
69	10
70	10
72	20
73	90
74	179
75	329
76	259
77	40
78	30
79	10
80	20
85	10
86	60
87	119
88	139
89	90
90	579
91	9139
92	1249
93	90
98	10
99	90
100	30
101	10
102	20
103	40
117	30
118	80
119	9999
120	979
121	70
