Mass Spectrum: 3,4-Octadiene, 7,7-dimethyl-
Formula: C10 H18
CAS: 61129-34-8
Molecular weight: 138
Origin: S.A. Rang et al., IR & MS of Unsatd. Hydrocarbons, 1977
m/z	RELATIVE INTENSITY
15	450
26	220
27	2600
29	3770
39	3420
41	7660
42	420
43	750
50	250
51	770
52	420
53	1340
54	390
55	1170
56	340
57	9999
63	270
65	750
66	350
67	5080
68	360
69	360
70	90
77	910
78	180
79	1180
80	180
81	2320
82	2670
83	190
84	20
85	440
93	230
94	100
95	940
107	70
108	40
109	750
110	110
123	950
124	91
138	110
