Mass Spectrum: 1-Decene, 9-methyl-
Formula: C11 H22
CAS: 61142-78-7
Molecular weight: 154
Origin: D.HENNEBERG, MAX-PLANCK INSTITUTE, MULHEIM, WEST GERMANY
m/z	RELATIVE INTENSITY
21	6
22	6
23	4
24	17
25	17
26	68
27	1675
28	288
29	2708
32	9
34	4
36	16
38	43
39	1702
40	238
41	6413
42	1471
43	7953
44	209
47	3
49	12
50	35
51	49
52	33
53	450
54	577
55	5649
56	9999
57	6146
58	215
63	16
65	169
66	48
67	620
68	666
69	6360
70	2772
71	881
72	71
77	39
78	15
79	42
80	13
81	161
82	212
83	1713
84	1014
85	157
95	45
96	105
97	807
98	521
99	25
110	52
111	308
112	126
113	11
125	22
126	229
127	7
139	61
154	68
