Mass Spectrum: Cyclobutane, 1,2-diethyl-, cis-
Formula: C8 H16
CAS: 61141-50-2
Molecular weight: 112
Origin: D.HENNEBERG, MAX-PLANCK INSTITUTE, MULHEIM, WEST GERMANY
m/z	RELATIVE INTENSITY
27	2925
28	1100
29	2385
39	2670
40	448
41	9684
42	3618
43	958
51	101
53	479
54	499
55	6707
56	9999
57	1895
58	10
67	224
68	122
69	1855
70	2640
71	132
82	163
83	1406
84	1559
112	50
113	2
