Mass Spectrum: Cyclohexane, (1,2-dimethylbutyl)-
Formula: C12 H24
CAS: 61142-37-8
Molecular weight: 168
Origin: D.HENNEBERG, MAX-PLANCK INSTITUTE, MULHEIM, WEST GERMANY
m/z	RELATIVE INTENSITY
24	5
25	18
26	26
27	933
29	1903
30	39
35	17
37	59
38	17
39	830
40	145
41	3807
42	309
43	4523
44	117
50	9
51	56
52	36
53	373
54	397
55	5841
56	1737
57	1743
58	62
60	7
63	4
64	4
65	86
66	71
67	1390
68	334
69	9999
70	570
71	134
72	6
77	79
78	9
79	96
80	71
81	1132
82	1430
83	2229
84	1519
85	1543
86	91
91	10
95	1362
96	12
97	278
98	15
109	37
110	2367
111	4817
112	439
113	6
125	4
139	28
168	47
