Mass Spectrum: Cyclobutane, 1,2-diethyl-
Formula: C8 H16
CAS: 61141-83-1
Molecular weight: 112
Origin: D.HENNEBERG, MAX-PLANCK INSTITUTE, MULHEIM, WEST GERMANY
m/z	RELATIVE INTENSITY
24	31
25	23
26	68
27	1238
28	512
29	1158
31	15
32	5
33	7
36	41
37	103
38	63
39	1517
40	316
41	6945
42	3088
43	1223
45	12
46	22
47	4
48	12
49	22
50	105
51	118
52	72
53	423
54	611
55	6741
56	9999
57	1863
58	66
59	1
61	9
62	16
63	53
65	121
66	34
67	372
68	259
69	2197
70	3440
71	373
72	50
76	7
77	66
78	10
79	76
81	85
82	443
83	2186
84	2840
85	244
97	463
98	26
99	9
107	9
112	403
113	31
