Mass Spectrum: Benzene, 1,1'-(1-ethenyl-1,3-propanediyl)bis-
Formula: C17 H18
CAS: 61141-97-7
Molecular weight: 222
Origin: D.HENNEBERG, MAX-PLANCK INSTITUTE, MULHEIM, WEST GERMANY
m/z	RELATIVE INTENSITY
27	147
28	456
29	23
32	77
38	34
39	742
40	98
41	155
42	16
43	31
44	19
45	8
49	6
50	182
51	758
52	212
53	78
55	25
56	9
58	441
59	81
60	4
61	4
62	45
63	381
64	107
65	778
66	64
67	10
69	3
70	4
71	4
73	42
74	38
75	90
76	191
77	705
78	736
79	87
80	4
82	5
83	11
87	15
88	26
89	543
90	194
91	2788
92	258
93	13
98	15
100	5
101	30
102	267
103	920
104	519
105	132
106	56
107	10
113	40
114	44
115	3656
116	879
117	9999
118	8064
119	703
120	37
129	6
130	5
131	12
133	11
134	7
144	3
146	3
147	11
177	3
191	7
193	4
207	69
208	15
209	9
221	6
222	10
223	5
