Mass Spectrum: Bicyclo[2.2.1]heptane, 2-(2-methyl-1-propenyl)-
Formula: C11 H18
CAS: 61142-27-6
Molecular weight: 150
Origin: D.HENNEBERG, MAX-PLANCK INSTITUTE, MULHEIM, WEST GERMANY
m/z	RELATIVE INTENSITY
25	2
26	23
27	679
28	24
29	591
30	15
31	1
36	8
37	12
38	33
39	989
40	187
41	2003
42	93
43	145
44	10
45	2
46	2
48	5
49	3
50	40
51	148
52	83
53	578
54	129
55	944
56	73
57	18
58	12
59	11
60	5
61	6
62	9
63	47
64	19
65	288
66	2304
67	3246
68	322
69	150
70	8
71	6
74	5
75	10
76	8
77	422
78	118
79	1002
80	528
81	620
82	320
83	189
84	16
89	75
90	6
91	273
92	57
93	831
94	1400
95	9999
96	730
97	18
98	1
102	2
103	12
104	3
105	46
106	24
107	370
108	233
109	101
110	7
115	6
116	1
117	5
119	50
120	7
121	318
122	159
123	13
133	4
135	2392
136	35
137	1
149	7
150	658
151	77
152	3
