Mass Spectrum: 2,3-Dimethyldodecane
Formula: C14 H30
CAS: 6117-98-2
Molecular weight: 198
Origin: N.Chernjak
m/z	RELATIVE INTENSITY
15	30
27	1261
29	2492
39	671
40	230
41	4534
42	1261
43	9999
53	260
54	100
55	2322
56	1001
57	9108
58	400
65	30
66	30
67	210
68	150
69	831
70	1401
71	7767
72	390
81	70
82	290
83	571
84	350
85	3964
86	260
95	20
96	180
97	781
98	290
99	1351
100	190
110	90
111	510
112	250
113	621
114	60
125	40
126	320
127	300
128	80
139	10
140	10
141	20
154	2132
155	1331
156	180
168	20
169	50
170	10
183	20
198	20
