Mass Spectrum: 2-Butene-1,4-diol, (Z)-
Formula: C4 H8 O2
CAS: 6117-80-2
Molecular weight: 88
Origin: Japan AIST/NIMC Database- Spectrum MS-NW-4327
m/z	RELATIVE INTENSITY
12	20
13	30
14	129
15	529
16	30
17	219
18	929
19	339
24	20
25	99
26	589
27	3209
28	869
29	4399
30	269
31	5669
32	199
33	40
34	20
36	50
37	289
38	549
39	4549
40	1329
41	5509
42	9999
43	2289
44	1809
45	529
46	10
47	1769
48	30
49	70
50	199
51	269
52	119
53	279
54	159
55	769
56	119
57	7639
58	789
59	60
60	20
61	30
65	20
66	30
67	60
68	299
69	2189
70	4039
71	489
72	40
73	40
80	10
81	50
82	20
83	30
84	20
85	20
86	30
87	30
89	20
