Mass Spectrum: N-Benzylaminoacetaldehyde diethyl acetal
Formula: C13 H21 N O2
CAS: 61190-10-1
Molecular weight: 223
Origin: NIST Mass Spectrometry Data Center, 1994
m/z	RELATIVE INTENSITY
13	15
14	57
15	356
16	27
18	16
19	203
26	264
27	1618
28	841
29	3728
30	499
31	318
32	17
39	574
40	75
41	330
42	393
43	525
44	605
45	307
46	17
47	5626
48	74
49	36
50	141
51	398
52	121
53	30
54	17
57	22
58	108
59	39
60	53
61	31
62	70
63	301
64	17
65	1731
66	93
70	24
71	16
72	118
75	4222
76	179
77	282
78	105
79	63
80	18
86	25
87	15
89	374
91	9999
92	806
93	36
100	30
103	4705
104	374
105	72
106	253
107	95
116	15
117	90
118	270
119	15
120	1401
121	126
130	38
131	46
132	119
133	44
134	47
148	80
149	17
178	908
179	475
180	59
223	10
