Mass Spectrum: 1,1':3',1''-Terphenyl, 5'-phenyl-
Formula: C24 H18
CAS: 612-71-5
Molecular weight: 306
Origin: Japan AIST/NIMC Database- Spectrum MS-NW-9573
m/z	RELATIVE INTENSITY
27	10
39	20
50	10
51	50
52	10
63	30
65	10
74	10
75	20
76	30
77	80
78	30
87	10
88	10
89	20
91	20
100	20
101	30
102	50
103	20
106	10
112	10
113	60
114	20
115	30
118	10
119	20
124	10
125	50
126	60
127	10
128	10
130	10
131	60
132	20
133	10
137	40
138	119
139	50
143	40
144	129
145	90
149	10
150	80
151	119
152	60
153	239
163	20
164	10
165	40
174	10
175	10
176	30
177	10
178	20
187	20
188	10
189	70
190	20
191	40
200	60
201	50
202	209
203	119
204	50
213	40
214	10
215	149
216	30
224	40
225	50
226	409
227	249
228	509
229	299
230	50
237	20
238	10
239	60
240	10
241	20
250	40
251	10
252	70
253	20
261	10
263	60
264	20
265	60
266	10
274	30
275	20
276	179
277	109
278	80
279	40
287	30
288	20
289	689
290	369
291	279
292	60
298	10
299	10
300	90
301	70
302	359
303	349
304	279
305	289
306	9999
307	2639
308	329
309	20
