Mass Spectrum: 2-Methoxybenzyl alcohol
Formula: C8 H10 O2
CAS: 612-16-8
Molecular weight: 138
Origin: Japan AIST/NIMC Database- Spectrum MS-NW-6430
m/z	RELATIVE INTENSITY
14	30
15	259
26	90
27	409
28	349
29	399
30	40
31	349
32	50
33	159
36	20
37	149
38	379
39	1389
40	229
41	599
42	50
43	99
44	30
45	40
46	20
47	40
49	60
50	689
51	1649
52	489
53	279
54	30
55	329
56	20
57	10
59	10
60	20
61	119
62	229
63	629
64	329
65	1259
66	369
67	389
68	70
69	30
71	10
73	40
74	189
75	149
76	449
77	4669
78	1519
79	1589
80	119
81	60
82	10
83	10
84	10
85	20
86	30
87	20
88	10
89	269
90	309
91	3429
92	679
93	309
94	1189
95	1109
96	80
97	10
102	20
103	20
104	209
105	5149
106	2129
107	3749
108	409
109	3329
110	339
111	20
115	10
117	10
118	60
119	539
120	629
121	1879
122	649
123	1879
124	149
125	20
133	20
134	10
135	289
136	169
137	2909
138	9999
139	859
140	80
