Mass Spectrum: Benzene, 1,1'-ethylidenebis-
Formula: C14 H14
CAS: 612-00-0
Molecular weight: 182
Origin: D.HENNEBERG, MAX-PLANCK INSTITUTE, MULHEIM, WEST GERMANY
m/z	RELATIVE INTENSITY
26	390
27	313
31	2
34	4
35	3
36	6
37	12
38	40
39	439
41	60
47	37
48	6
49	29
50	270
51	672
52	145
53	59
54	12
55	1
59	1
61	9
62	70
63	343
64	73
65	177
66	5
68	1
69	22
70	27
71	14
72	2
73	11
74	90
75	127
76	369
77	1159
78	387
79	329
80	32
83	752
84	21
85	20
86	26
87	55
88	73
89	423
90	190
91	202
92	12
93	5
98	19
100	24
101	35
102	151
103	593
104	290
105	510
106	62
107	4
108	1
110	7
111	6
112	4
113	45
114	19
115	298
116	29
118	2
119	1
122	2
125	3
126	47
127	54
128	184
129	31
130	8
131	1
132	5
136	22
137	10
138	15
139	188
140	33
141	94
142	16
143	2
145	1
147	35
150	254
151	186
152	1574
153	271
154	39
155	21
156	6
161	5
162	11
163	142
164	225
165	2764
166	1006
167	9999
168	1258
169	78
170	2
171	2
175	6
176	77
177	44
178	142
179	95
180	40
181	125
182	3834
183	562
184	37
