Mass Spectrum: Quinoline, 3-methyl-
Formula: C10 H9 N
CAS: 612-58-8
Molecular weight: 143
Origin: M. OEHME, NORW. INST. AIR RES., LILLESTROM, NORWAY
m/z	RELATIVE INTENSITY
50	480
51	540
52	120
57	610
58	270
61	90
62	270
63	620
64	140
65	230
70	170
71	110
74	170
75	250
76	160
77	140
86	110
87	170
88	170
89	810
90	280
101	120
102	80
104	80
113	220
114	240
115	3860
116	1280
117	720
118	60
128	290
140	250
141	160
142	3000
143	9999
144	1100
