Mass Spectrum: Acetamide, N-methyl-N-(4-methylphenyl)-
Formula: C10 H13 N O
CAS: 612-03-3
Molecular weight: 163
m/z	RELATIVE INTENSITY
39	437
40	48
41	232
42	194
43	1760
44	93
45	11
50	154
51	403
52	218
53	143
54	48
55	131
56	1401
57	170
58	22
59	14
60	12
61	40
62	76
63	259
64	94
65	888
66	113
67	43
68	42
69	108
70	62
71	70
72	14
73	12
74	37
75	42
76	76
77	756
78	309
79	218
80	80
81	25
82	50
83	115
84	41
85	40
86	22
87	17
89	192
90	152
91	1580
92	374
93	127
94	32
95	19
96	32
97	106
98	31
99	15
102	22
103	47
104	168
105	187
106	625
107	72
108	21
109	15
110	16
111	53
112	17
116	20
117	56
118	440
119	198
120	8913
121	9999
122	872
123	44
125	24
132	46
133	27
134	18
135	27
137	13
139	17
146	10
147	34
148	58
149	17
151	144
152	14
153	12
161	20
162	72
163	4289
164	572
165	43
