Mass Spectrum: Benzene, 1-ethyl-2-nitro-
Formula: C8 H9 N O2
CAS: 612-22-6
Molecular weight: 151
Origin: Japan AIST/NIMC Database- Spectrum MS-NW-4984
m/z	RELATIVE INTENSITY
12	10
14	30
15	179
16	10
25	10
26	149
27	1479
28	629
29	129
30	509
31	20
32	30
36	10
37	149
38	329
39	1799
40	179
41	299
42	70
43	7699
44	199
45	159
46	40
49	80
50	1019
51	2509
52	719
53	789
54	119
55	109
56	10
57	20
58	30
59	20
60	30
61	129
62	369
63	1179
64	489
65	2309
66	329
67	109
68	20
69	10
73	60
74	349
75	349
76	469
77	8549
78	4729
79	4379
80	689
81	90
82	10
84	10
85	20
86	50
87	70
88	40
89	899
90	669
91	1449
92	2719
93	469
94	60
95	40
97	10
98	30
99	10
101	109
102	569
103	3909
104	2479
105	1349
106	3649
107	389
108	99
109	50
115	20
116	249
117	869
118	409
119	329
120	289
121	129
122	20
130	10
131	10
132	139
133	149
134	9999
135	989
136	189
137	30
150	10
151	299
152	30
