Mass Spectrum: Benzenamine, N-ethyl-N-nitroso-
Formula: C8 H10 N2 O
CAS: 612-64-6
Molecular weight: 150
Origin: RADIAN CORP
m/z	RELATIVE INTENSITY
15	10
18	80
26	90
27	580
28	400
29	370
30	2360
32	20
37	130
38	400
39	1220
40	210
41	250
42	790
44	600
50	870
51	3100
52	840
53	310
54	100
59	20
61	60
62	190
63	700
64	630
65	1230
66	280
67	70
73	20
74	240
75	190
76	340
77	9999
78	1220
79	1100
80	220
88	10
89	70
90	130
91	1430
92	860
93	770
94	390
102	80
103	1420
104	3200
105	1320
106	4630
107	390
115	20
117	200
118	2060
119	1590
120	7090
121	1990
122	180
135	20
150	310
151	30
