Mass Spectrum: Benzene, 1,2-bis(chloromethyl)-
Formula: C8 H8 Cl2
CAS: 612-12-4
Molecular weight: 174
Origin: Japan AIST/NIMC Database- Spectrum MS-NW-8731
m/z	RELATIVE INTENSITY
14	10
26	50
27	199
28	139
35	40
36	189
37	80
38	269
39	649
40	40
41	20
49	99
50	749
51	2659
52	509
53	99
54	10
56	10
60	10
61	109
62	259
63	659
64	99
65	139
66	10
68	109
69	439
70	129
73	109
74	259
75	349
76	299
77	2069
78	1009
79	80
84	10
85	40
86	50
87	80
88	10
89	219
90	40
91	60
97	20
98	50
99	70
100	10
101	209
102	619
103	5069
104	3339
105	319
106	10
111	20
112	20
113	20
114	10
123	10
125	869
126	60
127	289
128	20
135	10
136	20
137	60
138	3149
139	9999
140	1879
141	3219
142	279
143	10
173	30
174	2659
175	249
176	1689
177	149
178	279
179	20
