Mass Spectrum: Benzenemethanol, 2-nitro-
Formula: C7 H7 N O3
CAS: 612-25-9
Molecular weight: 153
Origin: Japan AIST/NIMC Database- Spectrum MS-NW-3207
m/z	RELATIVE INTENSITY
14	20
15	10
16	10
17	20
18	70
26	99
27	669
28	439
29	479
30	469
31	349
32	40
36	10
37	179
38	359
39	1369
40	169
41	419
42	30
43	60
44	139
45	60
46	50
47	139
48	10
49	90
50	1379
51	3539
52	2209
53	1019
54	60
55	209
56	20
60	20
61	129
62	319
63	819
64	1259
65	1389
66	279
67	189
68	30
69	10
73	70
74	429
75	339
76	829
77	9999
78	2149
79	5799
80	619
81	99
82	10
85	30
86	60
87	50
88	30
89	339
90	359
91	3039
92	919
93	419
94	179
95	149
96	10
103	20
104	429
105	2349
106	359
107	229
108	199
109	30
117	40
118	30
119	209
120	189
121	439
122	50
123	10
124	50
134	30
135	1059
136	109
137	20
152	30
