Mass Spectrum: Naphthalene, 2-phenyl-
Formula: C16 H12
CAS: 612-94-2
Molecular weight: 204
Origin: NIST Mass Spectrometry Data Center, 1990.
m/z	RELATIVE INTENSITY
27	60
28	182
32	65
39	157
50	245
51	300
52	72
62	172
63	364
64	36
74	318
75	430
76	601
77	192
78	41
82	40
86	136
87	311
88	639
89	681
95	125
98	163
99	149
100	439
101	1575
102	736
110	51
111	66
113	73
115	112
122	48
123	37
125	50
126	270
127	113
128	149
137	42
138	36
139	143
149	65
150	335
151	298
152	264
153	44
162	60
163	202
164	125
165	155
174	131
175	149
176	386
177	101
178	122
187	61
188	52
189	196
190	33
198	48
199	84
200	742
201	757
202	3980
203	3231
204	9999
205	1579
206	145
