Mass Spectrum: [1,1'-Biphenyl]-3,3'-diol
Formula: C12 H10 O2
CAS: 612-76-0
Molecular weight: 186
Origin: P.A. Leclercq, Lab. Instrum. Anal., Tech. Univ. Eindhoven, Netherlands
m/z	RELATIVE INTENSITY
27	299
38	209
39	889
50	389
51	529
53	99
55	359
62	139
63	459
64	449
65	219
66	119
69	109
70	269
74	99
75	139
76	109
77	549
78	139
79	109
84	139
89	169
92	139
93	649
102	169
103	159
115	569
118	89
127	519
128	929
129	589
130	99
131	739
132	119
139	429
140	139
141	209
155	99
157	1689
158	299
168	89
169	149
185	359
186	9999
187	1369
188	129
