Mass Spectrum: Benzenamine, N-methyl-2-nitro-
Formula: C7 H8 N2 O2
CAS: 612-28-2
Molecular weight: 152
Origin: Japan AIST/NIMC Database- Spectrum MS-NW-8924
m/z	RELATIVE INTENSITY
15	119
26	40
27	239
28	729
29	60
30	489
31	30
32	10
37	80
38	289
39	899
40	109
41	259
42	199
43	20
44	40
45	40
46	10
49	10
50	709
51	2289
52	1279
53	329
54	109
55	90
56	10
57	10
58	20
59	20
61	50
62	199
63	1069
64	1109
65	1019
66	399
67	139
68	30
73	10
74	199
75	249
76	529
77	9529
78	3159
79	6989
80	1049
81	80
82	10
87	10
88	40
89	40
90	479
91	1359
92	809
93	509
94	359
95	70
102	60
103	90
104	2789
105	5879
106	3899
107	869
108	109
116	20
117	30
118	1169
119	919
120	179
121	90
122	119
123	119
133	40
134	259
135	849
136	109
137	10
151	139
152	9999
153	909
154	70
