Mass Spectrum: 3-Heptyne, 5-methyl-
Formula: C8 H14
CAS: 61228-09-9
Molecular weight: 110
Origin: JACSAT, 98(26) 8413(1976); R. WEST, UNIV OF WISCONSIN, USA
m/z	RELATIVE INTENSITY
41	3700
53	3200
55	2700
67	2900
79	2700
81	9999
95	4500
110	4800
111	500
