Mass Spectrum: Oxirane, 2-methyl-3-propyl-, cis-
Formula: C6 H12 O
CAS: 6124-90-9
Molecular weight: 100
Origin: CARL DJERASSI DEPT OF CHEM STANFORD UNIV STANFORD CALIF 94305
m/z	RELATIVE INTENSITY
42	1081
43	9999
44	1351
45	8649
46	216
49	54
50	324
51	378
52	162
53	703
54	649
55	2703
56	2703
57	5405
58	1514
59	162
62	54
63	54
65	108
66	54
67	649
68	54
69	162
71	4324
72	2919
73	162
77	54
79	108
81	108
82	270
83	108
84	108
85	4324
86	270
99	54
100	324
101	54
