Mass Spectrum: Ethyl-.beta.-(4-hydroxy-3-methoxy-phenyl)-propionate
Formula: C12 H16 O4
CAS: 61292-90-8
Molecular weight: 224
Origin: NIST Mass Spectrometry Data Center, 1994
m/z	RELATIVE INTENSITY
14	102
15	776
16	35
19	37
26	231
27	1383
28	568
29	2309
30	117
31	152
32	31
38	125
39	931
40	174
41	256
42	300
43	314
44	57
45	241
50	289
51	954
52	681
53	665
54	102
55	681
57	34
59	45
61	21
62	116
63	364
64	151
65	1117
66	421
67	145
68	65
69	73
74	40
76	303
77	1484
78	488
79	1052
80	341
81	179
82	30
87	22
89	270
91	1563
92	171
93	422
94	706
95	155
103	89
104	29
105	281
106	173
107	988
108	303
109	132
110	42
117	48
118	70
119	606
120	139
121	150
122	795
123	126
124	172
125	264
133	62
135	1029
137	9999
138	891
139	107
145	37
150	4401
151	614
153	972
154	92
163	55
177	22
178	53
179	274
180	31
195	135
196	58
224	2412
225	322
226	41
