Mass Spectrum: Phenol, 2-methoxy-, acetate
Formula: C9 H10 O3
CAS: 613-70-7
Molecular weight: 166
m/z	RELATIVE INTENSITY
39	200
41	200
43	1400
50	100
51	200
52	500
53	100
63	200
64	100
65	300
77	300
80	200
81	1000
92	100
95	200
109	5099
110	300
123	100
124	9999
125	800
166	1000
167	100
