Mass Spectrum: 1,1'-Biphenyl, 4-methoxy-
Formula: C13 H12 O
CAS: 613-37-6
Molecular weight: 184
Origin: Humboldt-Universitat zu Berlin, Department of Chemistry, Analytical Group
m/z	RELATIVE INTENSITY
14	71
15	1285
17	133
18	434
26	80
27	204
28	160
29	151
30	44
37	53
38	168
39	957
40	62
41	106
43	106
50	452
51	718
52	151
53	80
55	98
56	44
58	239
61	80
62	390
63	1108
64	195
65	328
69	160
74	346
75	399
76	771
77	275
78	62
84	35
85	62
86	177
87	275
88	213
89	585
90	71
91	266
92	532
98	106
99	89
101	71
102	266
103	53
110	53
111	62
113	310
114	195
115	4255
116	452
126	222
127	142
128	80
137	62
138	71
139	1409
140	408
141	5709
142	718
150	142
151	275
152	683
153	257
154	124
155	62
168	124
169	5638
170	780
171	89
184	9999
185	1471
186	115
