Mass Spectrum: Benzaldehyde, 2-ethoxy-
Formula: C9 H10 O2
CAS: 613-69-4
Molecular weight: 150
Origin: NIST Mass Spectrometry Data Center, 1994
m/z	RELATIVE INTENSITY
14	52
15	169
16	19
26	461
27	1924
28	256
29	1627
30	58
31	22
37	200
38	637
39	2517
40	283
41	54
42	57
43	203
44	18
45	57
50	813
51	1037
52	114
53	362
54	34
55	107
57	16
61	144
62	378
63	1023
64	595
65	2538
66	733
67	70
68	33
73	46
74	279
75	233
76	1253
77	784
78	205
79	137
89	22
90	21
91	128
92	415
93	1378
94	967
95	83
104	1552
105	903
106	102
107	323
108	70
119	57
121	9999
122	1417
123	125
131	354
132	600
133	225
134	57
135	433
136	41
150	2511
151	251
152	10
