Mass Spectrum: 1,2-Benzenediacetonitrile
Formula: C10 H8 N2
CAS: 613-73-0
Molecular weight: 156
Origin: NIST Mass Spectrometry Data Center, 1992
m/z	RELATIVE INTENSITY
14	28
16	30
17	27
26	138
28	27
29	89
37	145
38	386
39	596
40	96
41	75
50	684
51	895
52	270
53	57
61	179
62	560
63	1038
64	397
65	157
66	60
73	78
74	372
75	521
76	618
77	584
78	246
86	110
87	223
88	274
89	1220
90	236
91	114
98	85
99	99
100	218
101	627
102	2025
103	787
104	69
114	182
116	2788
117	269
127	313
128	1799
129	9999
130	1051
131	100
156	3032
157	370
