Mass Spectrum: 4-Benzylbiphenyl
Formula: C19 H16
CAS: 613-42-3
Molecular weight: 244
Origin: Japan AIST/NIMC Database- Spectrum MS-NW-1268
m/z	RELATIVE INTENSITY
17	10
18	60
27	40
28	40
32	10
38	10
39	199
40	10
41	30
44	30
50	80
51	209
52	50
53	10
62	40
63	179
64	30
65	209
66	10
74	50
75	60
76	60
77	169
78	109
79	40
81	10
82	20
83	10
86	20
87	50
88	40
89	149
90	50
91	809
92	70
93	20
94	60
95	30
98	10
99	10
100	20
101	80
102	60
103	30
106	40
107	70
108	50
109	10
112	10
113	80
114	60
115	479
116	70
117	10
118	10
119	90
120	60
121	30
122	129
126	50
127	50
128	119
129	50
137	10
138	10
139	129
140	20
141	159
142	40
150	40
151	99
152	509
153	309
154	90
155	10
162	10
163	90
164	119
165	1889
166	939
167	1679
168	229
169	10
176	30
177	10
178	60
179	20
187	20
188	10
189	70
190	20
191	20
200	20
201	20
202	159
203	99
204	20
213	40
214	20
215	279
216	109
217	60
218	10
224	10
225	10
226	99
227	119
228	439
229	549
230	99
231	10
237	20
238	20
239	219
240	99
241	329
242	179
243	1859
244	9999
245	2039
246	199
247	10
