Mass Spectrum: Anthracene, 9,10-dihydro-
Formula: C14 H12
CAS: 613-31-0
Molecular weight: 180
Origin: Japan AIST/NIMC Database- Spectrum MS-NW-1882
m/z	RELATIVE INTENSITY
26	10
27	60
28	10
29	10
37	10
38	30
39	219
40	10
41	20
42	10
43	10
50	179
51	299
52	60
53	10
56	20
57	20
59	10
61	40
62	159
63	509
64	99
65	60
69	60
73	10
74	199
75	389
76	1299
77	199
78	50
81	40
82	339
83	50
85	20
86	90
87	189
88	709
89	2059
90	439
91	20
98	80
99	70
100	30
101	70
102	90
103	20
110	20
111	30
113	50
114	20
115	159
116	10
122	20
123	10
124	10
125	40
126	159
127	119
128	119
129	10
137	20
138	20
139	179
140	20
141	20
149	30
150	279
151	569
152	819
153	159
154	20
162	10
163	99
164	80
165	1959
166	279
167	20
174	80
175	129
176	1069
177	759
178	5099
179	9459
180	9999
181	1409
182	99
