Mass Spectrum: Naphthalene, 2-(phenylmethyl)-
Formula: C17 H14
CAS: 613-59-2
Molecular weight: 218
Origin: NIST Mass Spectrometry Data Center, 1990.
m/z	RELATIVE INTENSITY
15	26
17	8
18	68
26	39
27	187
28	90
29	28
31	15
37	25
38	108
39	666
40	59
41	86
50	365
51	749
52	144
53	27
57	29
61	41
62	234
63	789
64	127
65	641
66	46
68	30
69	74
71	42
72	30
73	33
74	314
75	396
76	335
77	389
78	59
81	198
82	218
85	25
86	126
87	268
88	305
89	733
90	149
91	654
92	56
93	25
94	1002
96	261
98	121
99	92
100	173
101	941
103	38
108	1365
109	645
111	54
112	39
113	256
114	193
115	2096
116	198
123	25
125	48
126	331
127	299
128	106
137	55
139	887
140	420
141	1821
142	191
149	37
150	153
151	177
152	205
153	45
161	31
162	62
163	274
164	154
165	312
166	48
174	31
175	57
176	183
177	101
178	189
179	46
186	45
187	214
188	213
189	789
190	217
191	184
192	36
200	146
202	3712
203	3089
204	511
205	41
213	700
214	369
215	3399
216	1365
217	7443
218	9999
219	1737
220	138
