Mass Spectrum: Ethanone, 1-phenyl-, oxime
Formula: C8 H9 N O
CAS: 613-91-2
Molecular weight: 135
Origin: E.M.EMERY COLGATE-PALMOLIVE CO., PISCATAWAY, N.J., USA
m/z	RELATIVE INTENSITY
29	90
30	310
31	190
37	300
38	510
39	1400
40	340
41	210
42	1090
43	190
49	160
50	2150
51	4600
52	760
53	160
54	110
55	130
58	140
59	510
60	60
61	140
62	330
63	710
64	290
65	900
66	1340
67	160
73	90
74	540
75	550
76	1220
77	9999
78	3450
79	540
80	110
81	90
87	50
88	50
89	320
90	210
91	650
92	500
93	300
94	2360
95	330
101	50
102	500
103	3210
104	1590
105	460
106	1200
107	480
108	100
116	190
117	190
118	1490
119	710
120	610
121	70
133	60
134	1000
135	8210
136	760
137	70
