Mass Spectrum: 1,2,4-Benzenetriol, triacetate
Formula: C12 H12 O6
CAS: 613-03-6
Molecular weight: 252
Origin: NIST Mass Spectrometry Data Center
m/z	RELATIVE INTENSITY
15	30
26	10
38	10
39	50
41	50
42	110
43	3163
44	70
45	10
50	40
51	80
52	90
53	70
54	50
55	90
62	10
63	10
68	70
69	140
70	20
79	60
80	100
81	20
82	10
95	30
96	70
97	300
98	20
107	10
108	30
109	30
123	20
124	10
125	581
126	9999
127	721
128	80
137	10
151	50
167	60
168	3163
169	280
170	30
210	1181
211	130
212	10
252	170
253	20
