Mass Spectrum: 2-Cyclopenten-1-one, 4-methoxy-
Formula: C6 H8 O2
CAS: 61322-97-2
Molecular weight: 112
Origin: U.I.ZAHORSZKY KARLSRUHE UNIV., KARLSRUHE, GERMANY, F.R.G.
m/z	RELATIVE INTENSITY
26	1870
27	7030
28	550
29	1690
30	160
31	380
37	220
38	550
39	3780
40	740
41	4520
42	1650
43	5000
44	140
45	220
49	160
50	1100
51	1760
52	1590
53	9999
54	2750
55	1540
56	110
57	820
58	3570
59	380
68	550
69	3450
70	110
71	330
79	380
80	250
81	5980
82	3300
83	880
84	8350
85	710
97	1160
108	110
109	190
111	2830
112	9400
113	650
