Mass Spectrum: Chloromethyl chloroacetate
Formula: C3 H4 Cl2 O2
CAS: 6135-23-5
Molecular weight: 142
Origin: ASES Database, Dalian Institute, P.R. China
m/z	RELATIVE INTENSITY
36	400
41	2492
42	8627
48	1611
49	8347
50	500
51	2702
57	100
76	690
77	9999
79	3503
