Mass Spectrum: 3-Acetylbenzonitrile
Formula: C9 H7 N O
CAS: 6136-68-1
Molecular weight: 145
Origin: NIST Mass Spectrometry Data Center
m/z	RELATIVE INTENSITY
12	30
13	60
14	350
15	1531
16	20
17	20
18	120
25	30
26	180
27	440
28	270
29	110
31	10
32	10
36	30
37	350
38	490
39	621
40	40
41	110
42	601
43	4394
44	160
48	40
49	270
50	1651
51	1631
52	370
53	70
54	10
55	30
56	20
57	30
60	30
61	230
62	370
63	430
64	190
65	150
66	10
67	10
68	10
69	10
70	20
72	30
73	100
74	661
75	2082
76	1321
77	130
78	10
83	10
84	20
85	60
86	80
87	100
88	100
89	190
90	60
91	20
97	10
98	50
99	200
100	130
102	5765
103	611
104	30
111	10
114	30
115	10
116	80
117	10
127	20
130	9999
131	951
132	60
143	10
145	2082
146	210
