Mass Spectrum: 2-Heptanone, 4-methyl-
Formula: C8 H16 O
CAS: 6137-06-0
Molecular weight: 128
Origin: NIST Mass Spectrometry Data Center, 1990.
m/z	RELATIVE INTENSITY
14	321
15	590
16	148
26	180
27	1409
28	161
29	942
39	1334
40	347
41	2036
42	1309
43	9999
44	346
53	206
55	1246
56	226
57	691
58	5892
59	2739
67	308
69	318
70	844
71	625
85	2785
86	233
113	260
128	370
