Mass Spectrum: 2-Pentanone, 3-ethyl-
Formula: C7 H14 O
CAS: 6137-03-7
Molecular weight: 114
Origin: NIST Mass Spectrometry Data Center, 1990.
m/z	RELATIVE INTENSITY
15	222
26	142
27	1035
28	582
29	841
38	147
39	1208
40	234
41	1578
42	140
43	9999
44	357
45	83
51	157
53	279
55	1647
56	136
57	113
58	163
67	171
69	176
70	1154
71	3161
72	336
85	635
86	2358
87	143
99	168
114	469
