Mass Spectrum: 3-Heptanone, 4-methyl-
Formula: C8 H16 O
CAS: 6137-11-7
Molecular weight: 128
Origin: NIST Mass Spectrometry Data Center, 1990.
m/z	RELATIVE INTENSITY
15	207
26	429
27	3077
28	289
29	4664
39	1579
40	468
41	2537
42	943
43	7624
44	458
53	277
55	1579
57	9999
58	403
69	195
71	8049
72	494
86	4898
87	277
99	975
128	320
