Mass Spectrum: Geranyl bromide
Formula: C10 H17 Br
CAS: 6138-90-5
Molecular weight: 216
Origin: Mark Whitten, Florida Museum of Natural History, U. of Florida
m/z	RELATIVE INTENSITY
41	8030
42	502
43	292
44	12
50	172
51	427
52	270
53	1556
54	174
55	431
56	38
57	57
58	10
61	10
62	39
63	99
65	350
67	1871
68	1669
69	9999
70	505
71	22
74	14
75	12
77	348
78	77
79	327
81	2493
82	174
83	17
89	12
91	256
92	76
93	285
94	68
95	333
96	31
102	6
103	22
104	7
105	68
106	16
107	62
108	13
109	29
115	9
117	8
119	42
121	81
122	11
123	67
136	304
137	1527
138	164
147	18
148	28
149	20
150	19
172	59
173	154
174	70
175	159
176	14
