Mass Spectrum: Dehydroelsholtzia ketone
Formula: C10 H12 O2
CAS: 6138-88-1
Molecular weight: 164
Origin: NIST Mass Spectrometry Data Center
m/z	RELATIVE INTENSITY
27	2392
29	1161
37	150
38	470
49	220
50	1171
51	1872
52	1381
53	3713
54	1161
76	140
82	2642
83	1631
91	1511
93	5715
96	2492
103	631
105	741
106	150
107	2292
108	711
115	340
117	1561
118	410
119	1051
120	290
121	9999
122	1281
123	290
127	250
129	200
131	280
132	230
133	140
134	330
135	3203
136	7076
145	400
146	761
147	5145
148	771
149	2552
152	190
163	370
164	6075
165	561
168	210
