Mass Spectrum: 2-Butanone, 4-(2,2,6-trimethylcyclohexyl)-
Formula: C13 H24 O
CAS: 6138-85-8
Molecular weight: 196
Origin: NIST Mass Spectrometry Data Center, 2010
m/z	RELATIVE INTENSITY
15	110
26	30
27	601
28	130
29	871
30	20
31	20
37	10
39	1181
40	260
41	4654
42	741
43	9428
44	240
45	130
46	10
49	10
50	30
51	170
52	100
53	1091
54	370
55	4764
56	1481
57	2372
58	1752
59	681
60	20
61	10
62	20
63	70
65	400
66	180
67	3283
68	2823
69	8097
70	1321
71	2672
72	681
73	60
75	10
77	601
78	120
79	1071
80	480
81	4384
82	7757
83	4574
84	520
85	430
86	40
87	10
89	10
91	540
92	150
93	1461
94	811
95	7106
96	2732
97	1201
98	160
99	100
100	50
102	10
103	30
104	10
105	260
106	120
107	1341
108	641
111	1501
112	370
113	230
114	40
115	30
116	10
117	10
119	290
120	100
121	1611
122	1682
123	9999
124	1561
125	1772
126	390
127	60
133	60
134	20
135	510
136	1501
137	310
138	3553
139	2302
140	490
141	40
147	10
148	10
149	70
150	40
151	30
152	50
153	380
154	50
161	550
163	3904
164	530
165	30
167	210
168	30
178	400
179	270
180	30
181	1461
182	190
183	10
194	100
196	1401
197	210
198	10
