Mass Spectrum: Benzamide, N-benzoyl-
Formula: C14 H11 N O2
CAS: 614-28-8
Molecular weight: 225
Origin: J.H.BOWIE UNIVERSITY OF ADELAIDE, AUSTRALIA
m/z	RELATIVE INTENSITY
39	400
50	1000
51	3000
76	600
77	6500
78	600
94	300
104	500
105	9999
106	900
148	200
197	1000
225	3800
226	800
