Mass Spectrum: Acetamide, N-(2-bromophenyl)-
Formula: C8 H8 Br N O
CAS: 614-76-6
Molecular weight: 213
Origin: J Am Soc Mass Spectrom 2008, 19, 1114-1118
m/z	RELATIVE INTENSITY
36	90
37	831
38	1511
39	2102
40	360
41	631
42	1091
43	9999
44	290
45	120
49	190
50	901
51	581
52	1271
53	120
54	90
60	90
61	460
62	951
63	3253
64	2592
65	3984
66	460
67	90
73	120
74	460
75	480
76	390
77	340
78	140
79	190
80	90
81	120
82	90
87	120
88	190
89	120
90	851
91	2542
92	4084
93	631
94	90
95	90
102	70
104	190
105	190
106	120
107	70
116	90
117	310
118	90
119	310
120	70
133	120
134	7527
135	751
136	90
143	440
144	90
145	440
146	90
155	90
157	90
170	220
171	5965
172	631
173	6015
174	460
184	90
186	90
198	90
200	90
213	951
214	120
215	971
216	120
