Mass Spectrum: Benzoic acid, 4-methylphenyl ester
Formula: C14 H12 O2
CAS: 614-34-6
Molecular weight: 212
Origin: NIST Mass Spectrometry Data Center
m/z	RELATIVE INTENSITY
27	70
38	30
39	130
41	10
49	10
50	300
51	961
52	180
53	150
62	30
63	90
64	20
65	100
73	10
74	80
75	70
76	170
77	4204
78	450
79	180
80	10
89	30
90	10
91	40
105	9999
106	921
107	280
108	50
115	30
127	10
128	20
139	10
152	10
153	10
168	10
212	1531
213	230
214	20
