Mass Spectrum: Benzeneacetic acid, 2-hydroxy-
Formula: C8 H8 O3
CAS: 614-75-5
Molecular weight: 152
Origin: Japan AIST/NIMC Database- Spectrum MS-NW-3625
m/z	RELATIVE INTENSITY
13	10
14	30
15	40
16	30
17	20
18	70
25	30
26	219
27	869
28	289
29	199
31	50
32	10
36	90
37	309
38	619
39	1809
40	139
41	99
42	99
43	109
44	40
45	349
46	20
48	20
49	149
50	1089
51	2259
52	1399
53	809
54	80
55	189
56	10
57	20
58	10
60	30
61	139
62	299
63	649
64	159
65	119
66	80
67	129
68	30
69	20
71	10
73	60
74	209
75	169
76	219
77	4609
78	9999
79	2339
80	179
81	90
82	20
84	20
85	20
86	40
87	40
88	10
89	379
90	449
91	149
92	40
93	20
94	20
95	40
103	10
104	10
105	689
106	8789
107	4109
108	429
109	40
110	20
116	10
118	20
120	10
121	60
122	40
123	20
132	10
133	50
134	6369
135	569
136	50
149	10
150	10
152	3859
153	329
154	40
