Mass Spectrum: o-Chlorophenoxyacetic acid
Formula: C8 H7 Cl O3
CAS: 614-61-9
Molecular weight: 186
Origin: Japan AIST/NIMC Database- Spectrum MS-NW-3460
m/z	RELATIVE INTENSITY
12	30
13	70
16	20
17	129
18	409
24	10
25	50
26	179
27	239
28	359
29	749
30	129
31	1269
32	40
35	70
36	219
37	559
38	989
39	1269
40	60
41	80
42	549
43	90
44	189
45	819
46	30
47	109
48	50
49	319
50	1909
51	1519
52	209
53	299
54	20
55	70
56	99
57	30
58	20
59	149
60	119
61	509
62	709
63	2369
64	1449
65	569
66	119
67	30
68	10
69	10
70	139
71	50
72	229
73	1899
74	999
75	4439
76	949
77	3699
78	539
79	549
80	50
81	109
82	10
84	189
85	539
86	99
87	199
88	20
89	30
90	20
91	40
92	729
93	169
94	309
95	90
96	30
97	70
98	90
99	4079
100	379
101	1309
102	119
104	20
105	259
106	60
107	259
108	40
109	109
110	109
111	5639
112	689
113	4229
114	389
115	829
116	60
117	10
120	20
121	99
122	169
123	40
124	10
125	30
126	80
127	1129
128	9999
129	1009
130	3169
131	219
132	10
133	10
134	10
139	70
140	40
141	7179
142	619
143	2259
144	219
145	20
149	10
150	50
151	2519
152	289
153	30
155	10
185	10
186	8129
187	729
188	2629
189	239
190	30
