Mass Spectrum: Benzene, 1-isocyanato-2-methyl-
Formula: C8 H7 N O
CAS: 614-68-6
Molecular weight: 133
Origin: Japan AIST/NIMC Database- Spectrum MS-IW-3836
m/z	RELATIVE INTENSITY
26	70
27	169
28	80
37	129
38	229
39	609
40	60
41	50
42	10
43	20
44	10
49	70
50	589
51	979
52	809
53	129
54	40
56	10
60	10
61	99
62	199
63	479
64	259
65	359
66	189
67	20
73	30
74	129
75	199
76	359
77	1169
78	2579
79	509
80	30
83	10
84	10
85	20
86	30
87	40
88	40
89	479
90	339
91	1089
92	90
99	20
100	10
102	109
103	189
104	6449
105	3759
106	309
107	20
132	2939
133	9999
134	919
135	50
