Mass Spectrum: 5-Methylbenzimidazole
Formula: C8 H8 N2
CAS: 614-97-1
Molecular weight: 132
Origin: NIST Mass Spectrometry Data Center
m/z	RELATIVE INTENSITY
15	10
26	70
27	180
30	10
37	140
38	240
39	450
40	60
41	60
42	10
49	70
50	631
51	1231
52	881
53	280
54	50
60	10
61	90
62	190
63	350
64	170
65	220
66	410
73	30
74	150
75	250
76	520
77	1511
78	671
79	80
80	20
86	20
87	30
88	40
89	60
90	60
91	20
92	10
93	20
99	20
100	10
101	10
102	170
103	240
104	1261
105	330
106	40
114	20
115	10
116	20
117	10
129	60
130	100
131	9999
132	8478
133	811
134	30
