Mass Spectrum: Diazene, bis(4-chlorophenyl)-, 1-oxide
Formula: C12 H8 Cl2 N2 O
CAS: 614-26-6
Molecular weight: 266
Origin: J. Little, Eastman chemical company.
m/z	RELATIVE INTENSITY
39	340
50	751
51	490
62	330
63	1141
64	430
73	330
74	480
75	2772
76	681
85	370
89	611
90	2272
91	210
98	330
99	1521
101	540
111	9999
112	841
113	3253
114	290
125	5275
126	661
127	2442
128	300
129	260
138	290
139	2202
140	380
141	1071
156	240
168	891
169	200
175	571
201	200
202	841
203	1321
204	430
205	430
237	460
238	160
239	330
250	440
251	80
252	280
265	651
266	8768
267	1802
268	5685
269	951
270	1071
