Mass Spectrum: Benzenepropanenitrile, .beta.-oxo-
Formula: C9 H7 N O
CAS: 614-16-4
Molecular weight: 145
Origin: Japan AIST/NIMC Database- Spectrum MS-NW-8882
m/z	RELATIVE INTENSITY
18	20
26	10
27	129
28	50
29	20
37	20
38	99
39	189
40	109
41	60
42	30
43	90
44	10
45	10
49	30
50	749
51	2109
52	119
53	30
56	30
57	60
58	10
61	30
62	60
63	109
64	30
65	60
68	40
73	30
74	259
75	189
76	269
77	5909
78	489
79	20
86	10
87	10
88	10
89	99
90	30
91	50
102	10
103	10
104	30
105	9999
106	769
107	40
116	40
117	20
118	20
145	399
146	40
