Mass Spectrum: Ethyl nicotinate
Formula: C8 H9 N O2
CAS: 614-18-6
Molecular weight: 151
Origin: Japan AIST/NIMC Database- Spectrum MS-NW- 970
m/z	RELATIVE INTENSITY
14	20
15	99
17	20
18	129
25	30
26	289
27	999
28	289
29	1359
30	30
31	10
32	10
36	30
37	50
38	129
39	249
40	40
41	20
42	30
43	90
44	40
45	759
46	20
48	10
49	159
50	1289
51	3799
52	699
53	229
54	10
63	10
65	40
66	40
67	30
68	10
75	90
76	159
77	629
78	6669
79	1379
80	90
91	20
92	20
94	50
95	20
100	10
104	20
105	1889
106	9999
107	999
108	139
109	10
122	10
123	4909
124	449
125	40
132	10
133	10
136	20
149	10
150	669
151	2689
152	249
153	20
