Mass Spectrum: Furan, 2-(1,1-dimethylethyl)-4-methyl-
Formula: C9 H14 O
CAS: 6141-68-0
Molecular weight: 138
m/z	RELATIVE INTENSITY
38	601
39	4504
40	701
41	3803
43	701
50	1001
51	2102
52	901
53	2202
55	1601
63	601
65	1001
67	2202
77	1902
78	601
79	1601
91	901
93	500
95	1401
123	9999
124	901
138	1001
