Mass Spectrum: 3-Furancarboxylic acid, 2-methyl-, methyl ester
Formula: C7 H8 O3
CAS: 6141-58-8
Molecular weight: 140
m/z	RELATIVE INTENSITY
39	500
43	1902
44	701
50	500
51	901
52	701
53	801
80	801
108	1501
109	9999
110	801
125	2302
140	6005
141	601
