Mass Spectrum: Diazene, (4-chlorophenyl)phenyl-, (E)-
Formula: C12 H9 Cl N2
CAS: 6141-95-3
Molecular weight: 216
Origin: K.YAMADA CHIBA UNIVERSITY, YAYOI-CHO, CHIBA, JAPAN
m/z	RELATIVE INTENSITY
51	359
75	3705
77	9999
105	1912
111	8845
113	2948
139	2629
141	876
151	637
152	1952
153	478
188	40
216	3586
218	1195
