Mass Spectrum: Benzene, (3,3-diethoxy-1-propynyl)-
Formula: C13 H16 O2
CAS: 6142-95-6
Molecular weight: 204
m/z	RELATIVE INTENSITY
27	771
28	1672
29	2462
30	130
31	601
39	210
40	30
41	90
42	60
43	380
44	200
45	330
46	110
47	210
51	661
52	230
53	210
63	270
65	150
69	150
74	160
75	561
76	581
77	2742
78	280
89	180
91	1041
102	2042
103	3633
113	130
114	300
130	1281
131	9999
159	9248
175	1541
204	510
