Mass Spectrum: 3,4'-Diisopropylbiphenyl
Formula: C18 H22
CAS: 61434-46-6
Molecular weight: 238
Origin: NIST Mass Spectrometry Data Center, 1994
m/z	RELATIVE INTENSITY
15	217
17	33
18	36
27	1809
28	58
29	90
39	583
41	1664
43	3178
44	118
50	79
51	354
52	88
53	122
62	54
63	209
64	46
65	153
70	36
74	16
75	157
76	371
77	715
78	222
79	100
81	32
82	165
83	120
87	69
88	153
89	512
90	164
91	348
92	30
95	134
96	195
97	282
99	40
100	41
101	173
102	297
103	580
104	1654
110	33
112	66
113	51
115	577
116	94
117	80
118	20
119	87
126	116
127	204
128	274
129	88
139	171
140	40
141	232
142	50
150	131
151	314
152	908
153	509
154	148
155	193
163	101
165	2398
166	1728
167	1021
168	132
176	206
178	1354
179	1449
180	501
181	1704
182	270
183	28
189	262
190	153
191	441
192	208
193	234
194	108
195	497
196	92
202	108
203	96
204	40
205	48
206	45
207	258
208	71
209	144
221	94
223	9999
224	1849
225	157
236	33
238	4352
239	853
240	80
