Mass Spectrum: 5-Norbornen-2-yl acetate
Formula: C9 H12 O2
CAS: 6143-29-9
Molecular weight: 152
Origin: Chuck Anderson, Aldrich Chemical Co.
m/z	RELATIVE INTENSITY
15	238
16	6
18	1
25	5
26	61
27	548
28	96
29	183
30	9
31	41
32	3
36	1
37	24
38	81
39	681
40	195
41	325
42	90
43	3995
44	110
45	33
46	9
49	6
50	89
51	217
52	101
53	327
54	41
55	87
56	7
57	10
58	12
59	4
61	23
62	36
63	97
64	25
65	517
66	9999
67	747
68	36
69	10
70	3
73	5
74	17
75	9
76	8
77	568
78	142
79	891
80	99
81	1085
82	92
83	15
84	6
85	3
86	50
87	76
88	5
89	23
90	8
91	686
92	279
93	85
94	15
95	59
96	7
105	5
106	4
107	13
108	180
109	199
110	64
111	6
123	18
124	16
133	4
134	6
137	3
152	553
153	56
154	6
