Mass Spectrum: 2-Pentanol, 4,4-dimethyl-
Formula: C7 H16 O
CAS: 6144-93-0
Molecular weight: 116
Origin: Japan AIST/NIMC Database- Spectrum MS-NW-7469
m/z	RELATIVE INTENSITY
14	10
15	139
17	10
18	30
26	30
27	599
28	99
29	1229
30	20
31	139
32	10
37	10
38	30
39	599
40	109
41	2329
42	519
43	789
44	299
45	5049
46	119
47	10
49	20
50	30
51	40
52	20
53	99
54	20
55	869
56	2199
57	9999
58	519
59	379
60	40
61	40
65	10
67	50
68	10
69	179
70	329
71	119
73	10
74	10
75	30
81	10
83	589
84	50
85	50
87	30
98	70
99	20
101	529
102	40
114	20
115	10
