Mass Spectrum: Octanoic acid, 3-hexenyl ester, (Z)-
Formula: C14 H26 O2
CAS: 61444-41-5
Molecular weight: 226
Origin: W.Jennings, T.Shibamoto
m/z	RELATIVE INTENSITY
29	70
41	480
43	891
54	190
55	1591
57	2793
58	70
67	3994
68	190
81	190
82	9999
83	1291
127	1291
128	70
