Mass Spectrum: Guanidine, N,N-dimethyl-
Formula: C3 H9 N3
CAS: 6145-42-2
Molecular weight: 87
Origin: Japan AIST/NIMC Database- Spectrum MS-NW-6355
m/z	RELATIVE INTENSITY
12	20
13	60
14	129
15	929
16	50
17	430
18	539
26	30
27	199
28	1349
29	129
30	1649
31	30
39	60
40	229
41	399
42	2239
43	4689
44	9999
45	739
46	30
53	90
54	20
55	379
56	189
57	90
58	1569
59	319
60	10
67	10
69	259
70	109
71	539
72	2189
73	80
87	4029
88	239
