Mass Spectrum: 3-Furancarboxylic acid, 2,5-dimethyl-, methyl ester
Formula: C8 H10 O3
CAS: 6148-34-1
Molecular weight: 154
m/z	RELATIVE INTENSITY
39	601
41	601
43	8007
50	701
51	1001
52	701
53	1201
67	500
81	1201
94	2002
95	1201
121	601
122	1401
123	9999
124	901
139	7707
140	701
153	601
154	9809
155	1001
