Mass Spectrum: Dimethyl tetrathiooxalate
Formula: C4 H6 S4
CAS: 61485-47-0
Molecular weight: 182
Origin: P. JEROSCHEWSKI, SEKT. CHEM., WILHELM-PIECK ROSTOCK UNIV., DDR
m/z	RELATIVE INTENSITY
45	1700
59	800
76	1300
88	2600
91	9999
103	2000
118	1800
182	6000
