Mass Spectrum: Benzenamine, 4-(4-nitrophenoxy)-
Formula: C12 H10 N2 O3
CAS: 6149-33-3
Molecular weight: 230
Origin: NIST Mass Spectrometry Data Center, 1994
m/z	RELATIVE INTENSITY
14	70
26	107
27	354
28	967
29	70
30	682
32	21
37	115
38	484
39	1447
40	130
41	372
42	128
46	72
50	1750
51	597
52	1071
53	1622
54	511
55	53
61	109
62	355
63	1247
64	805
65	2688
66	363
67	39
72	62
73	69
74	449
75	756
76	1393
77	476
78	205
79	39
80	3095
81	261
87	41
88	34
89	121
90	149
91	241
92	1022
93	271
94	28
101	71
102	131
103	156
104	65
106	73
108	6831
109	648
110	41
115	317
116	116
117	163
118	49
122	105
126	93
127	538
128	989
129	609
130	537
131	80
139	335
140	114
141	87
142	30
143	71
144	230
145	36
154	605
155	312
156	1713
157	315
158	36
166	107
167	111
168	89
171	37
172	79
182	91
183	451
184	3281
185	423
186	31
200	89
214	55
230	9999
231	1400
232	90
