Mass Spectrum: Propanoic acid, 3-hydroxy-, methyl ester
Formula: C4 H8 O3
CAS: 6149-41-3
Molecular weight: 104
m/z	RELATIVE INTENSITY
12	130
13	160
14	841
15	5405
16	210
17	240
18	901
19	831
24	20
25	130
26	781
27	2512
28	3423
29	2833
30	380
31	6246
32	170
33	801
34	10
36	20
37	20
38	20
39	70
40	30
41	240
42	350
43	9999
44	1802
45	2923
46	80
47	80
52	10
53	80
54	30
55	1712
56	120
57	70
58	540
59	1091
60	80
61	400
62	10
67	10
68	70
69	60
70	10
71	1051
72	320
73	4644
74	5365
75	210
76	70
77	130
83	10
84	520
85	731
86	130
87	10
88	20
89	10
103	200
104	80
105	90
