Mass Spectrum: Butanoic acid, 3-hydroxy-3-methyl-, methyl ester
Formula: C6 H12 O3
CAS: 6149-45-7
Molecular weight: 132
Origin: INST.OF CLINICAL BIOCHEM,RIKSHOSP,UNIV.OF OSLO,E.JELLUM,ET.A
m/z	RELATIVE INTENSITY
27	800
29	1100
31	1900
39	600
41	1000
42	1100
43	9999
58	600
59	7400
73	500
74	1600
75	600
85	2900
101	500
117	2400
