Mass Spectrum: Benzenamine, 2-chloro-4-methyl-
Formula: C7 H8 Cl N
CAS: 615-65-6
Molecular weight: 141
Origin: NIST Mass Spectrometry Data Center, 1998.
m/z	RELATIVE INTENSITY
15	10
25	10
26	80
27	220
28	250
29	20
30	60
35	20
36	20
37	120
38	220
39	470
40	80
41	150
42	80
43	20
44	20
45	10
47	20
48	20
49	150
50	780
51	1880
52	1580
54	260
55	20
56	10
57	80
60	60
61	220
62	380
63	570
64	180
65	280
66	150
67	50
68	10
70	210
73	200
74	250
75	400
76	420
77	3480
78	1230
79	970
80	220
81	20
84	40
85	100
86	110
87	160
88	80
89	220
90	100
91	70
92	10
96	10
97	40
98	20
99	100
100	50
101	40
102	160
103	50
104	1260
105	360
106	9999
107	820
108	30
111	30
112	60
113	280
114	220
115	100
116	70
123	40
124	10
125	70
126	10
127	20
138	60
140	6669
141	7349
142	2680
143	2390
144	180
145	10
