Mass Spectrum: Ethyl 2,4-dioxovalerate
Formula: C7 H10 O4
CAS: 615-79-2
Molecular weight: 158
Origin: NIST Mass Spectrometry Data Center
m/z	RELATIVE INTENSITY
14	170
15	490
16	10
19	10
25	50
26	350
27	1511
28	330
29	2012
30	90
31	360
36	10
37	60
38	130
39	470
40	110
41	711
42	1121
43	7317
44	210
45	200
46	10
47	50
53	100
54	30
55	200
56	40
57	90
58	631
59	30
60	10
61	10
66	10
67	50
69	991
70	90
71	110
72	10
73	30
82	10
83	20
85	9999
86	480
87	90
88	10
115	70
130	20
158	300
159	20
