Mass Spectrum: Benzoxazole, 2-chloro-
Formula: C7 H4 Cl N O
CAS: 615-18-9
Molecular weight: 153
Origin: Japan AIST/NIMC Database- Spectrum MS-IW-7350
m/z	RELATIVE INTENSITY
25	10
26	90
27	80
28	20
31	50
35	20
36	60
37	379
38	669
39	479
40	30
41	10
43	10
44	20
47	109
48	10
49	90
50	199
51	269
52	90
53	109
54	10
60	30
61	229
62	509
63	2079
64	2769
65	189
66	30
73	30
74	40
75	50
76	129
77	40
78	90
79	10
86	40
87	40
88	70
89	99
90	1389
91	129
92	1019
93	60
97	10
98	40
99	10
100	10
106	30
117	50
118	459
119	40
124	40
125	799
126	70
127	259
128	20
153	9999
154	829
155	3319
156	269
157	10
