Mass Spectrum: 3-Hexanol, 4-methyl-
Formula: C7 H16 O
CAS: 615-29-2
Molecular weight: 116
Origin: NIST Mass Spectrometry Data Center, 1990.
m/z	RELATIVE INTENSITY
15	193
16	46
18	143
26	279
27	1888
28	921
29	2665
30	46
31	3196
32	82
39	1316
40	339
41	4645
42	439
43	1243
44	82
45	3895
46	94
50	94
51	156
52	62
53	327
54	62
55	1094
56	902
57	1883
58	2579
59	9999
60	332
65	73
67	160
69	2093
70	289
71	135
73	50
83	97
85	66
86	157
87	1536
88	96
98	211
