Mass Spectrum: N,N'-Dimethyloxamide
Formula: C4 H8 N2 O2
CAS: 615-35-0
Molecular weight: 116
Origin: NIST Mass Spectrometry Data Center, 1994
m/z	RELATIVE INTENSITY
14	62
15	818
16	81
27	287
28	1662
29	397
30	1563
31	541
32	94
40	103
41	75
42	104
43	75
44	1838
56	188
58	9999
59	2904
60	178
88	1804
89	92
116	4726
117	227
