Mass Spectrum: Hexanoic acid, 2-bromo-, ethyl ester
Formula: C8 H15 Br O2
CAS: 615-96-3
Molecular weight: 222
Origin: Japan AIST/NIMC Database- Spectrum MS-NW-9987
m/z	RELATIVE INTENSITY
14	10
15	109
17	10
18	30
26	189
27	2639
28	469
29	7059
30	169
31	119
32	10
37	10
38	60
39	1219
40	249
41	6949
42	1519
43	3149
44	129
45	619
46	20
47	10
50	20
51	60
52	30
53	279
54	99
55	2689
56	239
57	899
58	50
59	109
60	109
61	30
62	10
63	10
65	50
66	20
67	309
68	199
69	9999
70	879
71	439
72	30
73	2609
74	109
75	20
79	40
80	109
81	90
82	109
83	50
85	159
86	70
87	409
88	119
89	10
92	10
93	30
94	10
95	90
96	30
97	799
98	109
99	339
100	30
101	1059
102	70
103	10
105	30
106	109
107	429
108	119
109	399
110	10
111	10
113	90
114	60
115	3499
116	279
117	30
119	60
120	189
121	139
122	189
123	90
125	10
127	10
133	40
135	60
137	20
138	1829
139	50
140	1799
141	50
142	20
143	3559
144	319
145	30
147	20
148	30
149	239
150	40
151	279
152	20
153	80
165	80
166	5179
167	319
168	5029
169	229
170	30
175	10
176	10
177	329
178	30
179	389
180	20
181	90
193	30
194	30
195	60
196	30
197	30
222	50
223	80
224	50
225	70
