Mass Spectrum: Benzothiazole, 2-chloro-
Formula: C7 H4 Cl N S
CAS: 615-20-3
Molecular weight: 169
Origin: Japan AIST/NIMC Database- Spectrum MS-NW-3077
m/z	RELATIVE INTENSITY
26	30
27	30
28	10
32	20
35	20
36	30
37	169
38	229
39	379
40	10
41	10
44	70
45	299
46	10
47	60
48	10
49	60
50	299
51	139
52	40
53	70
54	419
55	20
56	20
57	109
58	419
59	20
60	40
61	119
62	209
63	679
64	249
65	10
68	20
69	1429
70	99
71	90
72	20
73	40
74	149
75	179
76	70
78	20
79	159
80	20
81	219
82	729
83	60
84	319
85	109
86	30
87	20
88	40
89	10
90	269
91	20
92	10
93	109
94	50
95	30
96	30
97	10
99	20
100	10
102	10
105	30
106	60
107	199
108	2979
109	219
110	139
111	20
122	30
123	30
124	10
125	20
127	10
133	209
134	1409
135	139
136	70
137	10
142	70
143	10
144	20
151	40
168	40
169	9999
170	899
171	3639
172	319
173	149
174	10
