Mass Spectrum: 1,4-Benzenediol, 2,5-dimethyl-
Formula: C8 H10 O2
CAS: 615-90-7
Molecular weight: 138
Origin: NIST Mass Spectrometry Data Center, 1994
m/z	RELATIVE INTENSITY
4	1
14	70
15	127
19	60
26	87
27	308
28	62
29	255
31	54
32	26
37	118
38	386
39	1795
40	484
41	818
42	181
43	471
45	49
50	253
51	560
52	207
53	845
54	157
55	508
59	40
61	90
62	128
63	281
64	124
65	712
66	442
67	987
68	407
69	945
70	54
74	108
75	63
77	890
78	207
79	1008
80	197
81	937
82	129
83	131
89	135
91	1511
92	329
93	167
94	374
95	1839
96	266
105	76
107	345
108	270
109	1118
110	279
119	244
120	427
121	992
122	76
123	4759
124	389
135	50
137	3393
138	9999
139	912
140	81
