Mass Spectrum: 2-(Methylmercapto)benzothiazole
Formula: C8 H7 N S2
CAS: 615-22-5
Molecular weight: 181
Origin: Japan AIST/NIMC Database- Spectrum MS-NW-3689
m/z	RELATIVE INTENSITY
14	20
15	159
26	30
27	50
28	40
32	30
33	10
34	10
36	10
37	149
38	229
39	539
40	30
44	129
45	1179
46	149
47	139
48	10
49	50
50	319
51	269
52	70
53	10
54	40
56	10
57	129
58	329
59	60
60	30
61	109
62	199
63	889
64	329
65	70
66	10
68	20
69	1379
70	229
71	99
72	40
73	40
74	159
75	249
76	179
77	169
78	149
79	10
80	20
81	229
82	589
83	109
84	99
85	10
86	10
87	20
88	40
89	20
90	379
91	279
92	20
93	119
94	90
95	169
96	129
97	10
98	10
99	10
100	10
102	459
103	80
104	299
105	40
106	70
107	189
108	2949
109	479
110	159
111	20
116	50
117	60
118	10
120	50
121	199
122	869
123	80
124	60
126	10
133	229
134	159
135	1499
136	1599
137	199
138	80
139	169
140	40
141	20
142	10
146	40
147	40
148	6599
149	919
150	359
151	50
153	10
162	20
164	10
165	129
166	939
167	109
168	90
169	10
178	10
179	20
180	2089
181	9999
182	1239
183	929
184	99
185	30
