Mass Spectrum: 2-Furancarboxylic acid, propyl ester
Formula: C8 H10 O3
CAS: 615-10-1
Molecular weight: 154
Origin: Japan AIST/NIMC Database- Spectrum MS-IW-2226
m/z	RELATIVE INTENSITY
14	10
15	40
25	10
26	109
27	719
28	199
29	359
30	30
31	789
32	10
33	10
36	10
37	129
38	369
39	1629
40	159
41	839
42	399
43	1129
44	60
45	60
47	10
50	10
51	50
53	80
54	60
55	369
56	179
57	129
58	119
59	489
60	99
61	20
65	20
66	90
67	249
68	339
69	50
70	10
71	30
72	10
73	109
74	119
75	60
77	10
81	20
82	20
83	129
84	409
85	619
86	30
87	20
89	40
91	10
93	10
94	30
95	9999
96	879
97	159
98	20
99	159
100	60
101	889
102	40
103	20
105	10
108	10
109	20
110	60
111	20
112	6779
113	1969
114	149
115	40
116	30
117	40
119	10
121	10
123	10
124	20
125	80
126	40
127	10
128	10
129	30
131	20
136	20
137	60
138	20
139	179
140	20
153	30
154	1139
155	109
156	10
