Mass Spectrum: Phenol, 2,4-dibromo-
Formula: C6 H4 Br2 O
CAS: 615-58-7
Molecular weight: 250
Origin: Japan AIST/NIMC Database- Spectrum MS-NW-1651
m/z	RELATIVE INTENSITY
12	20
13	10
14	30
24	20
25	80
26	119
27	50
28	50
29	139
31	70
36	139
37	779
38	789
39	359
41	20
42	40
43	10
45	40
46	80
48	40
49	179
50	319
51	90
53	1129
54	50
55	20
60	169
61	819
62	1579
63	5569
64	1029
65	80
66	169
67	20
70	20
71	179
72	179
73	129
74	349
75	129
77	10
79	119
80	50
81	109
82	50
85	279
86	289
89	10
90	80
91	469
92	899
93	60
95	20
104	20
105	10
106	20
107	20
111	10
112	20
115	30
116	99
117	379
118	109
119	349
120	20
125	119
126	239
127	109
128	20
129	10
130	20
131	30
133	30
140	10
141	109
142	559
143	1419
144	599
145	1269
146	80
154	10
170	619
171	589
172	619
173	589
174	50
175	10
195	20
197	30
199	10
221	90
222	20
223	179
224	20
225	90
249	20
250	5229
251	389
252	9999
253	699
254	4909
255	329
256	20
