Mass Spectrum: Benzene, 1,2,4-tribromo-
Formula: C6 H3 Br3
CAS: 615-54-3
Molecular weight: 312
Origin: NIST Mass Spectrometry Data Center, 1990.
m/z	RELATIVE INTENSITY
12	25
13	17
14	23
15	14
24	17
25	56
26	41
27	14
28	343
32	92
36	149
37	645
38	315
39	34
40	7
48	79
49	416
50	488
51	49
60	64
61	151
62	67
63	19
72	122
73	882
74	3052
75	2237
76	219
77	340
78	291
79	231
80	46
81	237
82	33
91	42
93	69
104	57
105	32
106	65
116	200
117	345
118	247
128	227
129	59
130	205
131	48
152	103
153	590
154	843
155	645
156	931
157	410
158	356
159	129
160	38
184	12
197	18
210	10
233	1341
235	2804
236	248
237	1293
238	87
312	3182
313	230
314	9999
315	972
316	9877
317	764
318	3243
319	225
