Mass Spectrum: Benzene, 1,2-diiodo-
Formula: C6 H4 I2
CAS: 615-42-9
Molecular weight: 330
Origin: NIST Mass Spectrometry Data Center, 1994
m/z	RELATIVE INTENSITY
25	37
26	92
27	55
36	78
37	394
38	306
39	104
48	58
49	562
50	3691
51	237
60	36
61	94
62	37
63	16
73	464
74	1795
75	1304
76	4761
77	326
78	15
127	1834
128	88
152	22
153	17
164	32
165	263
176	81
177	40
203	2830
204	192
330	9999
331	658
332	20
