Mass Spectrum: Ethyl 2-bromovalerate
Formula: C7 H13 Br O2
CAS: 615-83-8
Molecular weight: 208
Origin: NIST Mass Spectrometry Data Center, 1990.
m/z	RELATIVE INTENSITY
14	200
15	206
16	91
25	74
26	497
27	2925
28	834
29	3893
30	158
31	245
38	206
39	1167
40	278
41	1069
42	226
43	1229
44	281
45	381
50	135
51	213
53	604
55	9999
56	795
57	667
58	135
59	348
60	92
71	133
73	480
80	96
81	159
82	229
83	1123
84	182
85	211
88	102
93	109
95	70
99	397
100	314
101	2384
102	130
106	195
107	327
108	271
109	363
120	319
121	91
122	196
129	2754
130	184
135	1253
136	201
137	1364
138	1923
139	184
140	2103
163	619
166	6804
168	6879
169	277
179	139
181	198
