Mass Spectrum: 4,4'-Diphenyl-2,2'-dipyridyl
Formula: C22 H16 N2
CAS: 6153-92-0
Molecular weight: 308
Origin: NIST Mass Spectrometry Data Center, 1994
m/z	RELATIVE INTENSITY
39	36
50	54
51	175
52	57
63	57
74	44
75	79
76	126
77	225
78	47
87	38
88	27
89	37
100	40
101	102
102	159
103	49
113	42
114	27
115	73
125	56
126	223
127	579
128	279
129	43
138	35
139	146
140	113
141	31
146	35
150	33
151	69
152	164
153	255
154	1048
155	380
156	43
176	52
177	48
178	33
179	37
180	34
181	71
201	38
202	54
203	52
204	150
205	42
206	33
224	37
226	39
229	102
230	50
231	197
232	34
250	58
251	49
252	126
253	66
254	68
264	54
265	38
266	35
277	98
278	319
279	189
280	1419
281	614
282	220
283	54
290	46
291	61
292	70
293	27
303	49
304	57
305	367
306	228
307	3004
308	9999
309	2127
310	287
311	29
