Mass Spectrum: trans-2,4-Dimethylthiane
Formula: C7 H14 S
CAS: 61568-42-1
Molecular weight: 130
Origin: V.G.Zaikin, TIPS, Russian Acad. Sci.
m/z	RELATIVE INTENSITY
51	300
53	400
55	5805
59	2402
60	2602
61	2302
67	1201
68	600
69	2602
70	1301
73	1451
74	1501
75	1801
81	5504
82	600
83	500
87	900
88	200
96	1301
97	400
101	3252
102	1000
103	200
115	9999
116	700
117	500
129	150
130	5605
131	480
132	261
133	20
