Mass Spectrum: cis-2,4-Dimethylthiane
Formula: C7 H14 S
CAS: 61568-43-2
Molecular weight: 130
Origin: V.G.Zaikin, TIPS, Russian Acad. Sci.
m/z	RELATIVE INTENSITY
53	1101
54	600
55	6305
56	700
58	500
59	2402
60	2902
61	2602
67	1401
68	700
69	3102
70	1501
71	400
73	1601
74	1801
75	2201
81	5905
82	600
83	600
87	1000
88	300
96	1101
97	600
101	4403
102	1401
103	400
115	9999
116	950
117	600
130	6305
131	540
132	300
133	20
