Mass Spectrum: Benzoic acid, 4-benzoyl-, methyl ester
Formula: C15 H12 O3
CAS: 6158-54-9
Molecular weight: 240
m/z	RELATIVE INTENSITY
50	601
51	1001
52	100
75	500
76	1001
77	5405
78	300
103	601
104	500
105	9999
106	701
119	300
120	300
135	601
152	400
153	200
163	4704
164	500
181	801
209	1501
210	200
240	4404
241	701
