Mass Spectrum: N-1H-Tetrazol-5-ylacetamide
Formula: C3 H5 N5 O
CAS: 6158-77-6
Molecular weight: 127
Origin: James Little,Eastman Chem.Co.,Kingsport,TN
m/z	RELATIVE INTENSITY
27	340
28	1371
29	360
30	100
40	80
41	320
42	611
43	9999
44	631
45	290
55	150
56	90
57	460
58	60
60	90
67	60
69	270
70	70
71	100
73	130
81	60
83	90
84	60
85	641
86	160
95	40
96	50
97	70
98	40
99	290
112	50
127	1682
128	320
129	40
