Mass Spectrum: Glycine, methyl ester
Formula: C3 H7 N O2
CAS: 616-34-2
Molecular weight: 89
Origin: Japan AIST/NIMC Database- Spectrum MS-NW- 504
m/z	RELATIVE INTENSITY
14	40
15	339
16	10
17	20
18	50
27	70
28	909
29	209
30	9999
31	169
33	209
41	20
42	80
43	10
44	20
45	40
57	10
59	50
60	30
88	30
89	499
90	20
