Mass Spectrum: 4,6-Dinitro-1,3-dimethyl-benzene
Formula: C8 H8 N2 O4
CAS: 616-72-8
Molecular weight: 196
Origin: Japan AIST/NIMC Database- Spectrum MS-NW-4255
m/z	RELATIVE INTENSITY
15	40
16	10
26	70
27	509
28	329
29	169
30	1439
31	129
32	20
36	10
37	99
38	229
39	1429
40	189
41	409
42	70
43	269
44	30
45	10
46	70
47	10
48	10
49	40
50	629
51	2029
52	879
53	849
54	159
55	109
56	10
57	10
60	30
61	129
62	409
63	1319
64	389
65	1509
66	629
67	219
68	139
69	60
70	10
71	109
73	30
74	229
75	329
76	459
77	4349
78	2359
79	569
80	159
81	109
82	109
83	10
84	10
85	40
86	80
87	109
88	50
89	399
90	179
91	2469
92	519
93	379
94	419
95	60
96	20
97	10
98	40
99	20
100	10
101	99
102	619
103	3069
104	2379
105	1009
106	349
107	149
108	60
109	30
113	10
114	10
115	10
116	30
117	30
118	50
119	339
120	449
121	459
122	389
123	40
124	10
130	20
131	30
132	1599
133	2119
134	279
135	109
136	30
148	40
149	139
150	70
151	30
152	20
161	50
162	279
163	90
164	20
165	20
166	20
177	20
178	10
179	9999
180	1039
181	109
182	10
196	1629
197	169
198	20
