Mass Spectrum: Propane, 1,3-dichloro-2-methyl-
Formula: C4 H8 Cl2
CAS: 616-19-3
Molecular weight: 126
m/z	RELATIVE INTENSITY
12	10
13	10
14	40
15	140
16	10
25	20
26	290
27	1842
28	340
29	811
30	20
35	40
36	80
37	220
38	370
39	2582
40	300
41	7176
42	540
43	90
44	30
45	10
47	100
48	110
49	2072
50	310
51	981
52	120
53	1722
54	1491
55	9999
56	460
57	50
58	10
59	10
60	40
61	290
62	671
63	961
64	240
65	290
66	10
67	10
68	10
69	10
70	10
71	20
72	30
73	170
74	30
75	1561
76	611
77	6156
78	390
79	1842
80	70
81	10
82	10
83	120
84	10
85	90
86	10
87	90
88	801
89	1672
90	7016
91	1001
92	2202
93	170
94	10
95	20
96	30
97	60
98	20
99	40
110	20
111	100
112	20
113	40
121	10
122	10
123	50
124	400
125	100
126	360
127	120
128	120
129	40
130	10
