Mass Spectrum: 2-Pyrrolidinone
Formula: C4 H7 N O
CAS: 616-45-5
Molecular weight: 85
Origin: Japan AIST/NIMC Database- Spectrum MS-NW-4213
m/z	RELATIVE INTENSITY
12	10
13	30
14	149
15	299
16	20
17	10
18	30
24	20
25	90
26	659
27	1609
28	4549
29	1499
30	6979
31	109
32	30
36	20
37	119
38	169
39	939
40	1349
41	6179
42	7389
43	279
44	219
50	10
51	60
52	149
53	70
54	219
55	389
56	1149
57	159
58	20
66	50
67	20
68	20
69	10
70	10
82	10
83	30
84	1939
85	9999
86	559
87	30
