Mass Spectrum: 1H-Imidazole, 1-methyl-
Formula: C4 H6 N2
CAS: 616-47-7
Molecular weight: 82
Origin: Japan AIST/NIMC Database- Spectrum MS-NW-4944
m/z	RELATIVE INTENSITY
12	30
13	60
14	99
15	829
16	10
24	20
25	80
26	679
27	719
28	1509
29	319
30	149
36	50
37	10
38	149
39	269
40	1589
41	1469
42	2379
43	60
44	10
50	30
51	179
52	419
53	219
54	2239
55	1049
56	90
66	80
67	129
68	20
79	20
80	10
81	1599
82	9999
83	519
84	10
