Mass Spectrum: Trimecaine
Formula: C15 H24 N2 O
CAS: 616-68-2
Molecular weight: 248
Origin: Tox21 Consortium/NIST Mass Spectrometry Data Center, 2012
m/z	RELATIVE INTENSITY
15	10
26	10
27	90
28	150
29	280
30	651
31	10
39	80
40	20
41	100
42	280
43	120
44	40
50	10
51	40
52	30
53	40
54	40
55	30
56	300
57	120
58	771
59	30
63	30
64	10
65	90
66	20
67	10
68	10
70	40
71	20
72	340
73	20
75	10
76	10
77	120
78	40
79	80
80	10
84	100
85	60
86	9999
87	571
88	20
89	20
90	20
91	300
92	40
93	30
94	10
100	10
102	20
103	40
104	30
105	50
106	30
107	20
109	10
112	10
115	70
116	30
117	80
118	70
119	130
120	70
121	10
128	10
130	30
131	30
132	90
133	70
134	350
135	80
136	10
144	10
145	10
146	80
147	20
148	60
149	10
158	10
159	10
160	20
161	70
162	40
163	10
173	10
174	10
176	10
177	20
233	10
247	10
248	150
249	30
