Mass Spectrum: Carbonic acid, dimethyl ester
Formula: C3 H6 O3
CAS: 616-38-6
Molecular weight: 90
Origin: NIST Mass Spectrometry Data Center, 1992
m/z	RELATIVE INTENSITY
12	90
13	237
14	1211
15	9999
16	293
17	110
18	27
19	5
22	7
26	13
28	884
29	7045
30	1256
31	6906
32	194
33	1016
34	18
40	5
41	9
42	36
43	191
44	1185
45	9537
46	248
47	34
56	24
59	5942
60	716
61	662
62	824
63	19
64	6
72	5
75	153
76	4
90	549
91	35
92	5
