Mass Spectrum: Pentane, 3-chloro-
Formula: C5 H11 Cl
CAS: 616-20-6
Molecular weight: 106
Origin: CONTINENTAL OIL CO., PONCA CITY, OKLAHOMA, USA
m/z	RELATIVE INTENSITY
13	92
14	267
15	1363
16	55
25	74
26	882
27	4663
28	597
29	2906
30	81
31	37
35	69
36	113
37	290
38	550
39	3610
40	206
41	9999
42	3514
43	4398
44	90
47	40
48	45
49	617
50	240
51	471
52	106
53	440
54	164
55	3278
56	207
57	199
58	9
60	29
61	183
62	324
63	306
64	110
65	117
66	33
67	70
68	37
69	220
70	6950
71	4309
72	241
73	62
74	12
75	126
76	1598
77	2758
78	603
79	880
80	55
89	44
91	77
93	46
106	42
108	13
