Mass Spectrum: 2,4-Imidazolidinedione, 1-methyl-
Formula: C4 H6 N2 O2
CAS: 616-04-6
Molecular weight: 114
m/z	RELATIVE INTENSITY
41	500
42	3803
43	3904
44	100
55	100
70	300
71	300
86	400
114	9999
115	701
