Mass Spectrum: 2,4-Imidazolidinedione, 5-methyl-
Formula: C4 H6 N2 O2
CAS: 616-03-5
Molecular weight: 114
m/z	RELATIVE INTENSITY
41	1702
42	7006
43	9999
44	2803
53	200
54	300
55	400
56	601
70	1301
71	2702
86	7807
87	500
99	1201
114	8107
115	801
