Mass Spectrum: Ethanamine, N-ethyl-N-methyl-
Formula: C5 H13 N
CAS: 616-39-7
Molecular weight: 87
Origin: Japan AIST/NIMC Database- Spectrum MS-NW-2121
m/z	RELATIVE INTENSITY
14	20
15	469
26	129
27	729
28	639
29	959
30	1009
31	20
32	30
39	50
40	60
41	219
42	1299
43	379
44	6029
45	159
51	10
52	20
53	10
54	109
55	50
56	649
57	269
58	1439
59	60
68	10
70	199
71	90
72	9999
73	539
74	10
84	10
85	50
86	1109
87	2449
88	139
