Mass Spectrum: Butane, 1-chloro-2-methyl-
Formula: C5 H11 Cl
CAS: 616-13-7
Molecular weight: 106
Origin: NIST Mass Spectrometry Data Center, 1990.
m/z	RELATIVE INTENSITY
14	91
15	402
26	598
27	2907
28	720
29	4583
30	111
31	32
32	20
35	30
36	42
37	190
38	456
39	2955
40	793
41	8997
42	1576
43	556
44	26
47	27
48	59
49	603
50	257
51	488
52	101
53	460
54	26
55	2776
56	4448
57	9999
58	433
61	78
62	72
63	233
64	26
65	77
67	35
69	229
70	1102
71	66
73	51
75	78
76	124
77	223
78	48
79	70
91	22
106	44
