Mass Spectrum: 3-Pentanethiol
Formula: C5 H12 S
CAS: 616-31-9
Molecular weight: 104
m/z	RELATIVE INTENSITY
2	40
12	10
13	30
14	100
15	611
16	20
25	20
26	410
27	3513
28	480
29	3043
30	80
32	90
33	240
34	140
35	180
36	10
37	90
38	240
39	2522
40	290
41	8558
42	1732
43	9999
44	340
45	1511
46	280
47	4154
48	90
49	220
50	110
51	150
52	50
53	300
54	70
55	2642
56	140
57	100
58	320
59	360
60	150
61	430
62	50
63	50
64	10
65	30
66	10
67	50
68	20
69	200
70	681
71	3683
72	210
73	210
74	1271
75	5205
76	270
77	230
78	10
87	10
89	10
101	10
102	10
103	10
104	4044
105	250
106	190
