Mass Spectrum: Bicyclo[4.2.0]oct-7-ene
Formula: C8 H12
CAS: 616-10-4
Molecular weight: 108
Origin: L.L. MILLER, DEP. CHEM., UNIV. MINNESOTA, MINN., USA
m/z	RELATIVE INTENSITY
37	200
38	600
39	6600
40	1000
41	4200
42	300
50	800
51	1700
52	1000
53	1300
54	1600
55	200
62	200
63	400
65	1700
66	2600
67	5800
68	200
77	2900
78	1100
79	9999
80	6500
81	400
82	100
91	1600
92	200
93	4000
94	200
107	200
108	1000
