Mass Spectrum: Phenol, 4,6-di(1,1-dimethylethyl)-2-methyl-
Formula: C15 H24 O
CAS: 616-55-7
Molecular weight: 220
Origin: USAF ACADEMY, COLORADO SPRINGS, COLORADO 80840, J LLOYD PFLUG
m/z	RELATIVE INTENSITY
15	36
27	95
29	230
30	9
39	198
40	8
41	688
42	36
43	103
50	18
51	108
52	47
53	155
54	16
55	164
57	1634
58	115
62	11
63	59
64	63
65	157
66	91
67	292
69	45
70	24
71	30
72	72
73	86
74	23
75	20
76	30
77	366
78	99
79	245
80	254
81	519
83	14
86	20
87	19
88	10
89	46
90	16
91	508
92	48
93	55
95	226
101	10
102	40
103	113
104	39
105	267
106	37
107	79
108	26
109	72
115	362
116	139
117	130
118	32
119	136
120	36
121	396
122	43
123	31
126	10
127	95
128	245
129	215
130	72
131	199
132	55
133	172
134	41
135	143
136	19
137	31
139	16
141	141
142	114
143	53
144	31
145	111
146	45
147	149
148	56
149	200
150	24
152	19
153	30
154	12
155	31
156	35
157	66
158	26
159	58
160	37
161	167
162	51
163	112
164	15
171	15
172	15
173	28
174	25
175	162
176	23
177	336
178	41
187	13
189	412
190	63
191	15
203	26
205	9999
206	1630
207	136
208	11
219	20
220	1609
221	262
222	25
