Mass Spectrum: Hydrazine, 1,1-diethyl-
Formula: C4 H12 N2
CAS: 616-40-0
Molecular weight: 88
Origin: ATLAS OF MASS SPECTRA OF ORGANIC COMPOUNDS, V. A. KOPTYUG, ED.
m/z	RELATIVE INTENSITY
26	250
27	1250
28	1750
29	1620
30	1250
31	810
39	50
40	110
41	340
42	2250
43	910
44	1750
45	4630
46	100
54	60
55	60
56	1000
57	160
58	260
59	830
70	150
71	70
73	9999
74	480
87	490
88	4880
89	480
