Mass Spectrum: Sulfurous acid, dimethyl ester
Formula: C2 H6 O3 S
CAS: 616-42-2
Molecular weight: 110
Origin: Japan AIST/NIMC Database- Spectrum MS-NW- 988
m/z	RELATIVE INTENSITY
14	40
15	3319
16	20
17	10
18	109
28	299
29	1039
30	149
31	319
32	70
33	20
34	10
44	40
45	889
46	449
47	10
48	349
49	109
50	109
63	40
64	159
65	359
66	10
67	20
73	10
78	40
79	9999
80	349
81	489
82	10
95	10
110	1289
111	40
112	70
