Mass Spectrum: Propane, 2-methyl-2-(methylthio)-
Formula: C5 H12 S
CAS: 6163-64-0
Molecular weight: 104
Origin: NIST Mass Spectrometry Data Center
m/z	RELATIVE INTENSITY
15	150
26	60
27	711
29	2212
30	50
32	10
33	10
35	30
37	60
38	160
39	1932
40	260
41	6816
42	300
43	40
44	20
45	931
46	310
47	681
48	270
49	1211
50	150
51	200
52	30
53	240
54	50
55	941
56	1782
57	9999
58	641
59	500
60	30
61	330
62	10
63	10
69	30
70	10
71	90
72	30
73	100
74	80
75	10
85	10
87	10
89	1641
90	80
91	70
104	5155
105	340
106	240
107	10
