Mass Spectrum: Di-tert-Butyl ether
Formula: C8 H18 O
CAS: 6163-66-2
Molecular weight: 130
Origin: D.HENNEBERG, MAX-PLANCK INSTITUTE, MULHEIM, WEST GERMANY
m/z	RELATIVE INTENSITY
25	112
26	42
27	461
28	348
29	1445
30	44
31	450
32	3
38	58
39	685
40	135
41	2934
42	157
43	495
44	11
45	18
47	33
48	28
49	84
50	87
51	45
52	12
53	81
54	30
55	329
56	823
57	9905
58	504
59	8388
60	284
61	18
71	2
73	20
85	61
115	9999
116	73
117	1
