Mass Spectrum: Phosphonic acid, ethyl-, dimethyl ester
Formula: C4 H11 O3 P
CAS: 6163-75-3
Molecular weight: 138
Origin: VERIFIN - Methodology B2-1980
m/z	RELATIVE INTENSITY
27	600
28	400
29	600
31	300
45	100
47	1301
48	200
49	200
62	50
63	100
65	200
77	100
78	60
79	5204
80	1801
81	50
93	200
95	900
105	300
107	200
108	300
109	3202
110	9999
111	200
137	400
138	500
