Mass Spectrum: 4-Methylthio-2-5-dimethoxyamphetamine
Formula: C12 H19 N O2 S
CAS: 61638-07-1
Molecular weight: 241
Origin: Dr. Jiri Zamecnik, DCIEM, North York, Canada, GP Library
m/z	RELATIVE INTENSITY
42	190
44	9999
45	420
53	150
65	130
67	110
77	210
79	100
91	210
105	120
109	110
111	70
121	130
122	100
123	100
137	210
138	90
139	130
151	200
152	270
153	130
167	400
168	130
169	40
183	1260
184	130
185	60
197	290
198	4560
199	530
200	240
210	30
225	20
241	150
242	30
