Mass Spectrum: Cyclopent-3-ene, 1,1-dimethoxy-1-sila-
Formula: C6 H12 O2 Si
CAS: 61667-33-2
Molecular weight: 144
Origin: V.A.KOPTYUG, ATLAS OF MASS SPECTRA OF ORGANIC COMPOUNDS
m/z	RELATIVE INTENSITY
39	300
40	100
41	200
43	200
54	200
59	5199
60	2900
61	1100
75	300
76	400
82	300
87	400
89	300
90	6599
91	1600
113	9999
114	1700
115	500
116	300
143	700
144	4900
145	700
146	200
