Mass Spectrum: 2-Vinyl-1,3-dithiane
Formula: C6 H10 S2
CAS: 61685-40-3
Molecular weight: 146
Origin: ASES Database, Dalian Institute, P.R. China
m/z	RELATIVE INTENSITY
39	2001
40	200
41	3673
45	4313
46	3353
47	880
53	300
54	100
58	390
59	980
64	980
65	1201
67	590
71	3823
72	4413
73	2892
74	6726
81	2001
85	1901
97	400
99	1481
100	200
103	2171
104	1211
105	1801
106	1901
113	1201
117	100
118	300
119	1491
145	200
146	9999
