Mass Spectrum: 2-Butenoic acid, 2-methyl-, propyl ester, (E)-
Formula: C8 H14 O2
CAS: 61692-83-9
Molecular weight: 142
Origin: Chuck Anderson, Aldrich Chemical Co.
m/z	RELATIVE INTENSITY
13	1
14	3
15	40
16	1
19	3
24	1
25	8
26	188
27	2683
28	597
29	2325
30	89
31	165
32	4
36	3
37	28
38	90
39	1516
40	186
41	1240
42	271
43	1305
44	69
45	243
46	8
47	2
49	10
50	108
51	190
52	110
53	753
54	716
55	6653
56	569
57	268
58	51
59	151
60	15
61	2
62	2
63	2
65	5
66	7
67	25
68	8
69	211
70	25
71	54
72	58
73	117
74	26
75	2
77	3
79	8
80	3
81	97
82	1341
83	9999
84	597
85	1222
86	58
87	60
88	4
89	2
93	1
95	18
96	17
97	24
98	20
99	206
100	2426
101	4117
102	232
103	22
104	2
109	97
110	8
111	9
112	3
113	102
114	15
115	2
123	2
124	15
125	22
126	2
127	974
128	76
129	8
141	5
142	252
143	37
144	4
