Mass Spectrum: Benzoic acid, 4-hydroxy-3-methoxy-, ethyl ester
Formula: C10 H12 O4
CAS: 617-05-0
Molecular weight: 196
Origin: Japan AIST/NIMC Database- Spectrum MS-NW-1939
m/z	RELATIVE INTENSITY
14	10
15	70
18	10
26	60
27	239
28	60
29	289
30	10
31	60
37	30
38	60
39	169
40	20
41	189
42	10
43	60
45	40
49	20
50	209
51	519
52	749
53	259
54	40
55	189
61	40
62	119
63	239
64	80
65	449
66	60
67	149
68	30
69	50
71	30
74	20
75	30
76	10
77	259
78	40
79	319
80	279
81	139
82	10
91	90
92	139
93	159
94	40
95	109
96	40
97	249
98	10
106	10
107	70
108	549
109	299
110	20
111	40
119	60
120	119
121	99
122	139
123	1209
124	229
125	259
126	20
135	20
136	159
137	209
138	20
139	20
149	90
150	30
151	9999
152	1229
153	879
154	70
155	10
164	30
165	20
167	20
168	1839
169	159
170	20
179	10
181	459
182	50
195	90
196	5529
197	629
198	80
