Mass Spectrum: Propanoic acid, 2-oxo-, ethyl ester
Formula: C5 H8 O3
CAS: 617-35-6
Molecular weight: 116
Origin: NIST Mass Spectrometry Data Center, 1994
m/z	RELATIVE INTENSITY
12	12
13	61
14	238
15	890
16	23
18	6
24	5
25	44
26	287
27	1115
28	263
29	2051
30	119
31	36
32	5
39	5
40	19
41	117
42	5
43	9999
44	336
45	290
46	9
47	7
53	22
54	7
55	8
56	42
57	94
58	6
61	172
70	5
73	132
74	5
87	7
116	285
117	15
