Mass Spectrum: 2-Furancarbonitrile
Formula: C5 H3 N O
CAS: 617-90-3
Molecular weight: 93
Origin: Chuck Anderson, Aldrich Chemical Co.
m/z	RELATIVE INTENSITY
13	25
14	65
24	31
25	81
26	176
27	53
28	105
29	760
30	6
32	24
36	203
37	1441
38	2249
39	1602
40	72
41	98
42	492
43	15
46	136
48	44
49	112
50	112
51	139
52	45
53	53
54	208
62	257
63	624
64	5117
65	3014
66	768
67	148
74	25
75	59
76	7
92	6
93	9999
94	514
95	34
