Mass Spectrum: Stibine, triethyl-
Formula: C6 H15 Sb
CAS: 617-85-6
Molecular weight: 208
m/z	RELATIVE INTENSITY
121	699
122	1259
123	1608
124	1259
125	559
134	4195
135	9090
136	5594
137	9789
138	5594
139	2797
147	489
148	420
149	4056
150	2098
151	9999
152	1958
153	5034
179	1958
180	699
181	1259
182	559
208	3496
209	559
210	2937
211	489
