Mass Spectrum: Pentanedioic acid, 2-methyl-
Formula: C6 H10 O4
CAS: 617-62-9
Molecular weight: 146
Origin: Japan AIST/NIMC Database- Spectrum MS-IW-5246
m/z	RELATIVE INTENSITY
14	30
15	80
16	10
17	50
18	300
25	10
26	259
27	1519
28	1469
29	1679
30	139
31	419
37	40
38	90
39	1039
40	169
41	2579
42	2479
43	2179
44	199
45	1659
46	80
47	40
49	20
50	90
51	109
52	50
53	359
54	629
55	6119
56	6279
57	709
58	709
59	1479
60	3369
61	169
62	10
63	10
65	10
66	10
67	10
68	90
69	2769
70	129
71	149
72	419
73	1559
74	2519
75	90
76	10
78	10
79	10
81	70
82	549
83	1719
84	559
85	919
86	169
87	1269
88	50
89	10
95	20
97	10
98	10
99	219
100	9999
101	1239
102	249
103	10
109	10
110	70
111	10
113	70
118	10
127	30
128	3219
129	769
130	60
146	70
147	30
