Mass Spectrum: 3-Hexanol, 2-methyl-
Formula: C7 H16 O
CAS: 617-29-8
Molecular weight: 116
Origin: Japan AIST/NIMC Database- Spectrum MS-NW-8555
m/z	RELATIVE INTENSITY
15	70
18	20
26	40
27	899
28	119
29	729
30	20
31	1079
32	10
38	30
39	529
40	70
41	1169
42	169
43	3809
44	379
45	779
46	10
50	10
51	30
52	10
53	129
54	50
55	9999
56	669
57	699
58	40
59	189
67	20
69	149
70	30
71	229
72	1079
73	8529
74	389
75	20
83	70
97	10
98	10
99	20
101	10
114	20
115	20
