Mass Spectrum: 2-Ethylbutylamine
Formula: C6 H15 N
CAS: 617-79-8
Molecular weight: 101
Origin: NIST Mass Spectrometry Data Center, 2009
m/z	RELATIVE INTENSITY
15	20
18	100
26	40
27	420
28	440
29	480
30	9999
31	250
32	410
33	10
37	10
38	40
39	460
40	80
41	721
42	360
43	561
44	220
49	10
50	40
51	60
52	30
53	120
54	130
55	861
56	621
57	50
58	150
59	20
62	10
63	10
65	20
66	10
67	30
68	20
69	130
70	140
71	40
72	220
73	30
82	10
83	10
84	280
85	20
86	10
100	40
101	571
102	50
