Mass Spectrum: 2,3-Butanedione, mono(O-methyloxime)
Formula: C5 H9 N O2
CAS: 617-32-3
Molecular weight: 115
Origin: A.Pleshkova, Nesmeyanov Inst.Org.Elem.Cpds, Moscow
m/z	RELATIVE INTENSITY
27	240
28	350
29	490
30	120
31	120
40	240
41	661
42	2612
43	9999
44	420
45	120
72	2472
73	210
115	3653
116	320
117	60
