Mass Spectrum: Formamide, N,N-diethyl-
Formula: C5 H11 N O
CAS: 617-84-5
Molecular weight: 101
Origin: Japan AIST/NIMC Database- Spectrum MS-NW-1011
m/z	RELATIVE INTENSITY
14	50
15	569
25	20
26	349
27	2019
28	1829
29	2229
30	9999
31	139
32	50
37	10
38	20
39	80
40	169
41	469
42	1249
43	309
44	4169
45	109
46	40
52	20
54	99
55	60
56	579
57	159
58	7989
59	279
68	10
69	10
70	159
71	20
72	1549
73	309
74	40
86	3679
87	169
100	159
101	8199
102	489
103	30
