Mass Spectrum: Carbamodithioic acid, dimethyl-, ethyl ester
Formula: C5 H11 N S2
CAS: 617-38-9
Molecular weight: 149
Origin: F.I.ONUSKA CANADA CENTRE FOR INLAND WATERS, ONTARIO, CANADA
m/z	RELATIVE INTENSITY
29	1543
40	1077
41	1093
42	1961
43	1785
44	4469
55	772
56	740
57	1254
58	225
59	305
60	305
61	370
69	691
71	804
72	611
73	981
76	9999
83	531
85	643
88	9469
90	595
97	450
105	257
111	257
120	225
121	4823
122	305
135	418
149	4469
