Mass Spectrum: 2-Furanmethanamine
Formula: C5 H7 N O
CAS: 617-89-0
Molecular weight: 97
Origin: RADIAN CORP
m/z	RELATIVE INTENSITY
14	60
15	130
16	100
17	20
18	10
25	40
26	270
27	900
28	830
29	1070
30	2350
31	90
32	50
34	40
35	110
36	100
37	850
38	1530
39	3700
40	870
41	4870
42	1760
43	3670
44	240
48	100
49	260
50	1080
51	1380
52	1340
53	4620
54	1210
55	190
56	130
57	30
62	40
63	70
64	170
65	250
66	320
67	670
68	3580
69	9999
70	560
78	730
79	150
80	2470
81	2750
82	160
93	50
94	300
95	70
96	2680
97	5390
98	320
