Mass Spectrum: Bismuthine, triethyl-
Formula: C6 H15 Bi
CAS: 617-77-6
Molecular weight: 296
Origin: ETHYL CORPORATION, FERNDALE, MICHIGAN
m/z	RELATIVE INTENSITY
26	1240
27	4330
28	880
29	3930
209	9999
238	4670
267	3490
296	1800
