Mass Spectrum: 1H-Pyrrole, 1-ethyl-
Formula: C6 H9 N
CAS: 617-92-5
Molecular weight: 95
Origin: AP-2100
m/z	RELATIVE INTENSITY
12	39
13	49
14	106
15	364
16	8
17	3
18	6
24	19
25	105
26	867
27	2375
28	1485
29	888
30	42
31	5
36	43
37	470
38	960
39	2552
40	1409
41	1766
42	273
43	13
44	6
46	10
47	22
48	32
49	86
50	434
51	655
52	501
53	2009
54	244
55	30
56	48
57	3
60	3
61	13
62	32
63	84
64	105
65	273
66	487
67	2716
68	446
69	32
70	3
74	3
75	13
76	39
77	48
78	510
79	199
80	9999
81	587
82	16
90	2
91	9
92	96
93	301
94	1027
95	6933
96	494
97	16
