Mass Spectrum: Ethyl oxamate
Formula: C4 H7 N O3
CAS: 617-36-7
Molecular weight: 117
Origin: NIST Mass Spectrometry Data Center, 1994
m/z	RELATIVE INTENSITY
15	264
26	452
27	1861
28	431
29	2874
30	195
31	347
32	22
42	135
43	913
44	9999
45	2052
46	563
56	191
57	448
61	77
72	586
73	160
74	585
89	1104
117	188
