Mass Spectrum: Diethylcyanamide
Formula: C5 H10 N2
CAS: 617-83-4
Molecular weight: 98
Origin: Japan AIST/NIMC Database- Spectrum MS-IW- 572
m/z	RELATIVE INTENSITY
14	10
15	209
26	169
27	1229
28	689
29	2089
30	109
38	10
39	50
40	119
41	219
42	799
43	369
44	90
52	20
53	299
54	119
55	9999
56	409
57	30
58	20
66	10
67	129
68	40
69	859
70	589
71	50
81	20
83	2789
84	139
95	10
97	99
98	3049
99	269
100	10
