Mass Spectrum: 1-Pentadecanol, TMS derivative
Formula: C18 H40 O Si
CAS: 61736-79-6
Molecular weight: 300
Origin: NIST Mass Spectrometry Data Center
m/z	RELATIVE INTENSITY
27	110
28	30
29	370
30	10
31	10
39	130
41	1121
42	230
43	1591
44	90
45	290
46	20
47	170
48	10
49	10
51	10
53	90
54	120
55	1281
56	290
57	1271
58	190
59	420
60	70
61	621
62	40
63	20
65	20
66	20
67	270
68	160
69	1221
70	210
71	601
72	140
73	2732
74	310
75	5475
76	400
77	300
78	20
79	50
80	10
81	220
82	190
83	1571
84	190
85	430
86	40
87	170
88	90
89	1261
90	130
91	470
92	40
93	30
94	10
95	170
96	100
97	1451
98	160
99	270
100	40
101	681
102	80
103	2322
104	220
105	90
107	20
109	70
110	40
111	621
112	90
113	140
114	20
115	420
116	50
117	50
118	10
123	20
124	20
125	180
126	30
127	70
128	10
129	240
130	30
131	70
132	10
137	10
138	10
139	50
140	20
141	30
143	80
144	10
145	30
151	10
152	10
153	30
154	10
155	10
157	70
158	10
159	20
167	10
169	10
171	60
172	10
173	10
182	30
183	10
185	60
186	10
187	10
199	70
200	10
201	10
210	30
211	10
213	70
214	10
227	40
228	10
257	10
269	80
270	20
271	10
283	20
285	9999
286	2472
287	631
288	90
289	10
299	10
300	10
