Mass Spectrum: Tetraethyl ethylenetetracarboxylate
Formula: C14 H20 O8
CAS: 6174-95-4
Molecular weight: 316
Origin: NIST Mass Spectrometry Data Center
m/z	RELATIVE INTENSITY
12	60
15	350
17	150
18	330
19	100
26	410
27	3173
28	80
29	9999
30	420
31	651
39	90
41	100
42	180
43	621
44	450
45	821
46	70
47	80
51	70
53	3473
54	280
55	120
66	40
67	40
68	60
69	380
70	400
71	190
80	571
81	460
82	180
97	2072
98	1011
99	350
100	90
108	380
113	80
115	450
125	2202
126	1992
127	290
128	60
141	150
143	1241
144	80
151	641
152	2582
153	330
154	681
155	70
159	70
167	30
169	4384
170	3053
171	490
172	50
180	761
181	110
182	40
187	7987
188	530
189	130
197	3873
198	2012
199	250
200	60
215	4744
216	440
217	50
226	1862
227	250
228	40
241	80
243	4954
244	601
245	80
271	2532
272	360
273	70
