Mass Spectrum: 1,1'-Biphenyl, 2,2',3,3',4,6-Hexachloro-
Formula: C12 H4 Cl6
CAS: 61798-70-7
Molecular weight: 358
Origin: T.L.Hayes, Battelle Columbus Laboratories, Columbus, OH 43221
m/z	RELATIVE INTENSITY
33	40
34	163
35	452
36	961
37	603
38	500
39	230
40	1985
41	20
42	37
43	61
44	610
45	42
46	19
47	292
48	77
49	507
50	625
51	220
52	24
54	16
55	167
56	52
58	15
60	495
61	1510
62	533
63	90
66	132
67	188
68	14
69	39
71	231
72	830
73	3220
74	1993
75	639
77	34
78	672
79	605
80	121
81	28
82	66
83	81
84	1657
85	1671
86	904
87	342
88	29
89	69
91	2729
92	499
94	154
95	218
96	1608
97	1428
98	1748
99	536
100	32
101	27
102	29
103	66
104	59
105	15
106	167
107	614
108	2440
109	6279
110	3826
111	919
112	80
114	494
115	508
116	80
117	54
118	215
119	267
120	830
121	838
122	1324
123	513
124	77
126	3889
127	4076
128	1735
129	324
130	89
131	556
132	1244
133	990
134	597
135	449
136	86
137	48
141	87
142	185
143	362
144	8533
145	9999
146	5762
147	2330
148	1031
149	211
154	81
155	129
156	450
157	463
158	394
159	230
160	77
161	1299
162	2246
163	1045
164	1129
165	96
166	91
167	217
168	209
169	319
170	150
171	218
172	44
173	40
177	31
178	89
179	1252
180	2292
181	2127
182	1837
183	1521
184	503
185	387
186	54
191	105
192	302
193	188
194	323
195	132
196	87
197	49
202	20
203	46
204	194
205	176
206	184
207	131
208	75
209	55
215	61
216	230
217	490
218	4178
219	873
220	2521
221	464
222	427
223	65
226	24
227	35
228	135
229	70
230	134
231	34
232	39
238	61
239	55
240	87
241	64
242	43
249	29
251	85
252	702
253	834
254	835
255	838
256	323
257	252
258	53
262	60
264	113
265	62
266	57
267	18
281	43
282	31
283	27
287	47
288	6618
289	966
290	8279
291	1174
292	3928
293	524
294	859
295	127
296	84
298	14
322	70
323	2496
324	479
325	4000
326	650
327	2546
328	374
329	812
330	104
331	159
332	14
341	25
343	28
358	4949
359	668
360	9406
361	1176
362	7211
363	929
364	3084
365	384
366	735
367	73
368	76
369	37
