Mass Spectrum: Benzoic acid, 3-bromo-, methyl ester
Formula: C8 H7 Br O2
CAS: 618-89-3
Molecular weight: 214
Origin: Japan AIST/NIMC Database- Spectrum MS-NW-1871
m/z	RELATIVE INTENSITY
14	20
15	529
16	10
17	20
18	70
25	10
26	60
27	50
28	30
29	199
30	70
31	40
36	20
37	239
38	559
39	169
40	10
41	10
44	70
45	20
48	10
49	209
50	2819
51	499
52	90
53	109
54	20
59	189
60	20
61	60
62	70
63	179
64	90
65	90
66	10
67	329
68	10
72	20
73	249
74	1349
75	3109
76	3289
77	519
78	60
79	40
80	40
81	40
82	40
85	10
86	10
89	20
90	20
91	60
92	90
93	10
98	70
99	70
103	99
104	249
105	70
106	10
107	40
116	10
117	20
118	10
119	119
120	109
121	10
122	10
128	30
129	90
130	30
131	99
133	10
135	509
136	50
143	20
145	20
153	10
154	50
155	4029
156	329
157	3989
158	279
159	10
168	10
169	30
170	30
171	30
172	20
182	20
183	9999
184	809
185	9649
186	769
187	50
196	60
197	20
198	70
199	30
201	20
213	229
214	4349
215	599
216	4309
217	379
218	30
