Mass Spectrum: 3,5-Dichloronitrobenzene
Formula: C6 H3 Cl2 N O2
CAS: 618-62-2
Molecular weight: 191
Origin: NIST Mass Spectrometry Data Center
m/z	RELATIVE INTENSITY
16	10
25	20
26	20
27	10
30	2783
31	10
35	100
36	140
37	691
38	450
39	70
44	20
46	340
47	140
48	100
49	510
50	1661
51	240
52	40
53	10
54	80
59	10
60	310
61	671
62	601
63	681
64	90
65	10
71	70
72	280
73	1772
74	5605
75	4644
76	330
77	10
80	10
82	10
83	200
84	1071
85	891
86	440
87	360
88	110
89	30
90	50
91	50
94	10
95	60
96	50
97	310
98	140
99	140
100	50
101	10
106	20
107	180
108	410
109	8207
110	1852
111	2883
112	571
113	30
118	20
119	160
120	20
121	110
122	10
123	20
124	160
125	30
126	200
127	20
128	50
133	4904
134	300
135	3143
136	180
137	510
138	20
143	10
145	9999
146	761
147	6446
148	450
149	1061
150	70
156	50
158	10
160	10
161	480
162	30
163	290
164	20
165	50
175	140
177	90
179	10
191	4854
192	350
193	3113
194	210
195	470
196	30
