Mass Spectrum: Hydrazine, 1-methyl-1-phenyl-
Formula: C7 H10 N2
CAS: 618-40-6
Molecular weight: 122
Origin: ATLAS OF MASS SPECTRA OF ORGANIC COMPOUNDS, V. A. KOPTYUG, ED.
m/z	RELATIVE INTENSITY
27	420
29	1320
30	210
31	120
37	120
38	330
39	980
40	90
41	100
42	120
43	560
44	100
45	280
50	790
51	2100
52	650
53	350
54	80
61	510
62	120
63	540
64	330
65	610
66	160
73	120
74	230
75	230
76	190
77	6750
78	1300
79	1650
80	200
90	90
91	370
92	580
93	560
94	210
104	980
105	980
106	740
107	4650
108	420
121	880
122	9999
123	1000
