Mass Spectrum: Benzoic acid, 3-iodo-
Formula: C7 H5 I O2
CAS: 618-51-9
Molecular weight: 248
Origin: NIST Mass Spectrometry Data Center, 1998.
m/z	RELATIVE INTENSITY
25	10
26	20
27	50
29	20
36	20
37	190
38	240
39	780
40	30
42	10
43	10
44	20
45	300
48	20
49	260
50	3050
51	1010
52	50
53	240
54	10
55	20
60	20
61	90
62	100
63	200
64	170
65	4690
66	290
67	20
72	20
73	340
74	1540
75	1410
76	2810
77	360
78	30
84	10
85	10
86	10
90	10
91	30
92	180
93	350
94	20
101	40
103	280
104	210
105	30
106	10
110	10
115	120
119	20
121	2710
122	220
123	20
124	50
127	670
128	50
139	10
144	10
151	10
152	30
153	10
163	10
164	10
165	10
176	40
177	20
191	10
200	10
201	10
202	10
203	1030
204	70
220	20
230	20
231	1330
232	110
248	9999
249	790
250	70
