Mass Spectrum: Benzoic acid, 3-iodo-, methyl ester
Formula: C8 H7 I O2
CAS: 618-91-7
Molecular weight: 262
Origin: Japan AIST/NIMC Database- Spectrum MS-IW-5218
m/z	RELATIVE INTENSITY
14	10
15	149
26	10
27	20
28	20
29	10
31	10
37	60
38	90
39	80
40	10
41	40
42	30
43	50
44	10
49	70
50	1499
51	169
52	10
53	40
55	10
56	20
57	30
59	90
61	20
62	30
63	99
64	70
65	50
73	99
74	639
75	839
76	3259
77	529
78	40
79	40
89	10
90	10
91	40
92	129
93	10
101	50
103	289
104	429
105	70
107	30
115	179
116	10
119	249
120	299
121	20
127	139
128	20
133	10
135	409
136	30
152	10
153	10
176	20
177	10
183	10
185	10
201	10
202	10
203	3599
204	249
205	10
216	10
217	20
218	20
230	10
231	9999
232	799
233	50
244	30
245	20
246	20
261	149
262	8519
263	769
264	70
