Mass Spectrum: alpha.-Methylbenzylamine
Formula: C8 H11 N
CAS: 618-36-0
Molecular weight: 121
Origin: Japan AIST/NIMC Database- Spectrum MS-NW-1311
m/z	RELATIVE INTENSITY
14	10
15	139
26	30
27	239
28	969
29	40
30	70
37	40
38	80
39	299
40	40
41	109
42	1189
43	669
44	1619
45	50
46	10
49	20
50	309
51	749
52	259
53	589
54	40
58	40
59	70
60	10
61	30
62	60
63	149
64	30
65	119
66	30
67	20
73	20
74	99
75	70
76	99
77	1289
78	469
79	2319
80	169
86	10
87	10
89	60
90	30
91	149
92	40
93	30
94	10
101	10
102	60
103	259
104	479
105	449
106	9999
107	879
108	40
117	20
118	50
119	50
120	619
121	149
122	30
