Mass Spectrum: Benzenesulfinic-acid-
Formula: C6 H6 O2 S
CAS: 618-41-7
Molecular weight: 142
Origin: James Little,Eastman Chem.Co.,Kingsport,TN
m/z	RELATIVE INTENSITY
27	250
29	1121
30	751
31	350
38	230
39	571
45	250
48	270
50	1491
51	3803
52	320
53	230
63	200
65	881
66	641
74	641
75	380
77	7146
78	5695
79	440
81	200
93	190
94	2062
95	210
97	1131
98	90
108	110
109	270
110	80
125	1672
126	250
127	90
141	170
142	9999
143	1101
144	641
145	60
