Mass Spectrum: Benzoyl bromide
Formula: C7 H5 Br O
CAS: 618-32-6
Molecular weight: 184
Origin: RADIAN CORP
m/z	RELATIVE INTENSITY
25	10
26	60
27	80
29	20
35	70
36	30
37	220
38	300
39	220
48	20
49	200
50	1230
51	1720
52	20
53	70
60	20
61	100
62	120
63	110
64	10
65	40
72	20
73	190
74	690
75	380
76	390
77	5580
78	380
79	40
84	20
85	30
86	20
104	40
105	9999
106	760
107	50
