Mass Spectrum: Ethyl 3,5-dinitrobenzoate
Formula: C9 H8 N2 O6
CAS: 618-71-3
Molecular weight: 240
Origin: Chuck Anderson, Aldrich Chemical Co.
m/z	RELATIVE INTENSITY
15	246
17	64
18	266
19	12
26	303
27	2041
28	2499
29	5870
30	2889
31	163
36	184
37	130
38	299
39	187
41	61
42	40
43	331
44	378
45	2912
46	268
50	424
51	206
52	183
53	293
55	88
61	160
62	470
63	1020
64	407
65	169
66	126
69	166
73	290
74	3508
75	8898
76	888
77	197
78	80
79	137
80	169
81	18
82	44
88	40
89	88
90	131
91	745
92	538
93	150
94	130
101	182
102	739
103	2316
104	335
105	12
107	182
108	269
118	40
119	1513
120	1416
121	302
122	62
134	2178
135	98
136	756
137	151
138	21
147	194
148	217
149	5664
150	705
151	68
165	213
166	2201
167	203
179	716
180	6054
181	538
182	133
194	200
195	9999
196	3325
197	407
210	335
212	321
213	498
223	596
224	213
240	1364
241	143
