Mass Spectrum: 3-Eicosyne
Formula: C20 H38
CAS: 61886-66-6
Molecular weight: 278
Origin: D.HENNEBERG, MAX-PLANCK INSTITUTE, MULHEIM, WEST GERMANY
m/z	RELATIVE INTENSITY
26	367
27	383
28	11
29	982
30	39
31	26
34	22
39	304
40	174
41	3024
42	522
43	5030
44	182
48	21
50	39
51	46
52	61
53	545
54	879
55	4542
56	953
57	3849
58	166
61	20
62	22
65	225
66	723
67	9999
68	5572
69	4220
70	889
71	1709
72	90
76	25
77	160
78	98
79	986
80	486
81	7838
82	8359
83	3601
84	603
85	854
86	50
91	156
92	55
93	482
94	445
95	7689
96	3713
97	2294
98	346
99	134
100	45
105	41
107	218
108	348
109	9207
110	5522
111	1306
112	248
113	100
121	98
122	153
123	2640
124	1246
125	418
126	113
127	72
135	77
136	30
137	602
138	361
139	140
140	65
141	29
149	21
151	206
152	179
153	62
154	46
155	35
165	77
166	116
167	80
168	41
177	18
179	56
180	99
182	30
192	19
193	35
194	97
208	128
209	113
222	140
223	35
235	189
236	159
237	29
249	479
250	129
263	30
277	32
278	320
279	69
