Mass Spectrum: 5-Methyl-2-pyrazinylmethanol
Formula: C6 H8 N2 O
CAS: 61892-95-3
Molecular weight: 124
Origin: Philip Morris R&D
m/z	RELATIVE INTENSITY
36	50
37	255
38	917
39	3867
40	2069
41	1527
42	3929
43	789
44	119
45	60
48	106
50	74
51	290
52	1023
53	561
54	955
55	2247
56	1157
57	207
58	579
59	60
60	186
61	84
62	48
64	262
65	223
66	1174
67	833
68	775
69	292
70	173
71	212
73	51
78	78
79	244
80	224
81	253
82	105
83	165
84	58
85	81
87	33
93	1701
94	1205
95	8627
96	671
97	166
98	37
99	59
105	121
106	212
107	128
109	45
119	71
121	240
122	90
123	5172
124	9999
125	852
126	54
