Mass Spectrum: Benzoic acid, 4-iodo-, methyl ester
Formula: C8 H7 I O2
CAS: 619-44-3
Molecular weight: 262
Origin: RADIAN CORP
m/z	RELATIVE INTENSITY
14	70
15	890
26	30
27	10
29	1120
30	370
31	150
37	250
38	370
39	180
49	80
50	4620
51	390
53	160
59	220
61	40
62	70
63	190
64	70
73	450
74	2230
75	1790
76	4980
77	770
92	130
103	320
104	1400
105	70
115	10
119	210
120	190
127	1670
128	20
135	400
203	3690
204	30
231	9999
232	170
262	6010
263	130
