Mass Spectrum: Benzamide, 4-nitro-
Formula: C7 H6 N2 O3
CAS: 619-80-7
Molecular weight: 166
Origin: NIST Mass Spectrometry Data Center, 1998.
m/z	RELATIVE INTENSITY
16	10
17	10
26	20
27	80
29	20
30	360
36	10
37	180
38	320
39	380
40	30
41	50
42	20
43	30
44	1730
45	20
46	160
49	140
50	2710
51	1750
52	310
53	240
54	40
60	20
61	140
62	240
63	500
64	500
65	1530
66	160
73	230
74	1350
75	2170
76	2880
77	900
78	60
79	10
80	170
81	10
86	10
87	20
88	20
89	10
90	50
91	120
92	2350
93	170
94	10
99	10
100	10
101	20
102	170
103	1610
104	3690
105	290
106	30
107	10
108	160
109	10
118	40
119	30
120	1330
121	90
122	90
123	40
134	10
136	140
137	10
148	30
150	9999
151	800
152	80
166	7189
167	590
168	60
