Mass Spectrum: Benzamide, 4-methyl-
Formula: C8 H9 N O
CAS: 619-55-6
Molecular weight: 135
Origin: Japan AIST/NIMC Database- Spectrum MS-IW- 262
m/z	RELATIVE INTENSITY
27	50
28	99
37	20
38	60
39	449
40	40
41	129
43	40
44	219
45	80
46	10
49	10
50	129
51	209
52	70
53	209
54	20
58	10
59	50
60	10
61	30
62	109
63	339
64	90
65	1379
66	80
67	30
73	10
74	30
75	30
76	20
77	90
78	20
79	40
85	10
86	30
87	20
88	10
89	359
90	239
91	5589
92	449
93	10
104	20
105	10
106	60
107	10
109	10
116	50
117	90
118	90
119	9999
120	889
121	50
133	10
134	20
135	7649
136	759
137	50
