Mass Spectrum: Cyclohexene, 4-methyl-1-(1-methylethyl)-, (R)-
Formula: C10 H18
CAS: 619-52-3
Molecular weight: 138
m/z	RELATIVE INTENSITY
27	1001
29	601
39	1101
40	100
41	2302
42	100
43	1101
53	901
54	300
55	2002
56	100
57	200
67	601
68	1101
69	901
77	601
79	1001
80	200
81	6606
82	1702
83	300
91	400
93	400
94	1201
95	9999
96	2202
97	200
109	400
123	2302
124	200
138	2702
139	200
