Mass Spectrum: Benzoic acid, 4-iodo-
Formula: C7 H5 I O2
CAS: 619-58-9
Molecular weight: 248
Origin: Japan AIST/NIMC Database- Spectrum MS-NW-3452
m/z	RELATIVE INTENSITY
18	20
25	10
26	30
27	70
28	50
29	20
36	30
37	189
38	199
39	489
40	20
42	10
43	10
44	50
45	169
48	20
49	139
50	1619
51	599
52	30
53	149
54	10
55	10
60	20
61	50
62	50
63	80
64	80
65	2399
66	139
67	10
72	20
73	209
74	839
75	859
76	1779
77	229
78	10
91	10
92	70
93	199
94	10
101	40
103	189
104	289
105	50
110	239
115	109
116	10
120	10
121	1469
122	139
123	10
124	80
127	329
128	119
152	20
176	20
177	10
191	10
201	10
202	10
203	959
204	70
215	10
220	60
230	10
231	2629
232	209
233	10
247	10
248	9999
249	759
250	70
