Mass Spectrum: Benzene, 1,1'-(1,2-ethenediyl)bis[4-nitro-, (Z)-
Formula: C14 H10 N2 O4
CAS: 619-93-2
Molecular weight: 270
Origin: Japan AIST/NIMC Database- Spectrum MS-IW-6780
m/z	RELATIVE INTENSITY
27	10
30	60
38	10
39	70
41	20
42	10
43	20
44	20
50	109
51	149
52	30
53	10
55	20
57	40
62	60
63	309
64	30
65	40
69	30
70	10
71	30
74	90
75	229
76	719
77	99
78	30
81	20
82	30
83	20
85	20
86	30
87	90
88	249
89	149
90	20
91	10
93	10
95	10
96	10
97	30
98	30
99	40
100	30
101	60
102	119
103	10
105	10
109	10
110	10
111	20
112	10
113	50
114	20
115	99
116	10
122	10
123	10
125	30
126	119
127	90
128	80
129	10
135	10
137	20
138	30
139	269
140	60
141	10
148	20
149	40
150	239
151	679
152	679
153	179
154	90
155	10
162	10
163	119
164	139
165	1669
166	1339
167	189
168	10
174	60
175	149
176	1569
177	1479
178	2179
179	329
180	40
181	30
182	30
190	30
191	30
192	20
193	109
194	239
195	50
206	10
207	149
208	20
210	40
222	10
223	169
224	189
225	30
236	10
239	10
240	799
241	119
242	10
253	40
254	119
255	20
270	9999
271	1599
272	209
273	10
