Mass Spectrum: Benzoic acid, 4-ethoxy-
Formula: C9 H10 O3
CAS: 619-86-3
Molecular weight: 166
Origin: A.A.Kutin, Moscow, Russia
m/z	RELATIVE INTENSITY
29	110
30	4
33	3
34	10
35	1
36	14
37	107
38	384
39	1220
40	211
41	57
42	44
43	128
44	87
45	212
46	20
47	4
49	24
50	468
51	316
52	100
53	478
55	170
56	10
57	13
58	1
59	2
60	31
61	89
62	248
63	649
64	393
65	1706
66	198
67	61
68	15
69	37
70	4
71	14
73	31
74	197
75	201
76	203
77	193
78	40
79	51
81	379
82	63
83	7
84	6
85	3
86	1
87	1
89	11
90	13
91	135
92	243
93	962
94	74
95	25
96	4
97	4
98	1
99	1
102	1
103	49
104	48
105	41
106	9
107	15
109	110
110	147
111	14
112	6
117	3
121	9999
122	699
123	79
124	6
125	1
128	1
129	1
130	1
131	2
133	4
135	42
138	6973
139	459
140	52
141	2
143	1
145	1
147	8
148	6
149	120
150	18
151	58
152	33
153	6
162	3
164	58
166	5574
167	530
168	57
169	2
