Mass Spectrum: cis-Hexahydroterephthalic acid
Formula: C8 H12 O4
CAS: 619-81-8
Molecular weight: 172
Origin: NIST Mass Spectrometry Data Center, 2011
m/z	RELATIVE INTENSITY
15	50
19	20
20	10
25	10
26	150
27	1471
28	460
29	991
30	30
31	190
36	30
37	40
38	150
39	2642
40	390
41	3203
42	390
43	1832
44	220
45	2372
46	100
47	170
49	20
50	260
51	581
52	310
53	1722
54	3413
55	2943
56	320
57	460
58	90
59	60
60	130
61	40
62	30
63	80
64	20
65	320
66	921
67	3263
68	871
69	631
70	120
71	180
72	50
73	1201
74	90
75	170
76	20
77	821
78	180
79	2612
80	5135
81	9999
82	1041
83	210
84	150
85	180
86	811
87	180
88	20
90	10
91	80
92	90
93	50
94	270
95	550
96	40
97	831
98	180
99	250
100	170
101	10
105	20
106	10
107	140
108	8348
109	1061
110	160
111	360
112	821
113	80
118	20
119	50
121	20
123	20
124	10
125	120
126	8408
127	751
128	150
129	10
135	10
136	601
137	60
138	10
139	10
152	10
153	10
154	871
155	140
156	10
