Mass Spectrum: Benzene, 1-(chloromethyl)-3-nitro-
Formula: C7 H6 Cl N O2
CAS: 619-23-8
Molecular weight: 171
Origin: Japan AIST/NIMC Database- Spectrum MS-NW-3573
m/z	RELATIVE INTENSITY
18	10
26	60
27	99
28	129
30	469
35	30
36	70
37	149
38	329
39	999
40	159
41	20
43	60
44	30
46	70
48	10
49	99
50	469
51	699
52	139
53	30
60	20
61	169
62	529
63	1729
64	519
65	239
66	10
72	10
73	239
74	99
75	239
76	80
77	799
78	339
79	20
84	20
85	70
86	119
87	119
88	50
89	4039
90	3069
91	239
92	20
97	30
99	1029
100	60
101	329
102	20
103	10
104	20
105	50
106	30
107	10
108	10
112	10
113	209
114	20
115	70
123	30
124	269
125	3499
126	349
127	1129
128	90
136	9999
137	819
138	70
141	80
143	30
154	389
155	90
156	129
157	30
170	10
171	2979
172	249
173	959
174	80
