Mass Spectrum: Propane, 1-(ethenylsulfinyl)-
Formula: C5 H10 O S
CAS: 61926-31-6
Molecular weight: 118
Origin: F. TURECEK,HEYROVSKY INST PHYS CHEM & ELECTROCHEM,PRAGUE,CZECH
m/z	RELATIVE INTENSITY
14	190
15	870
25	130
26	1110
27	9999
28	720
29	1110
31	720
32	260
33	110
34	180
37	220
38	430
39	3330
40	440
41	9300
42	920
43	7610
44	360
45	1950
46	930
47	2490
48	810
49	380
50	470
55	190
56	100
57	320
58	960
59	1360
60	1530
61	320
63	670
67	110
68	560
69	1640
70	140
73	520
74	100
75	340
76	8400
77	390
78	400
89	110
100	1140
101	600
102	110
118	400
