Mass Spectrum: Methanesulfonic acid, ethyl ester
Formula: C3 H8 O3 S
CAS: 62-50-0
Molecular weight: 124
Origin: NIST Mass Spectrometry Data Center, 1998.
m/z	RELATIVE INTENSITY
13	10
14	50
15	750
16	20
19	10
25	10
26	200
27	830
28	690
29	2480
30	190
31	270
32	40
33	50
34	30
35	10
39	10
41	40
42	150
43	640
44	80
45	1740
46	120
47	60
48	460
49	100
50	80
51	20
56	10
59	210
60	10
62	20
63	280
64	300
65	1060
66	40
67	50
69	10
78	120
79	9999
80	1440
81	590
82	60
83	40
92	10
94	10
95	110
96	180
97	2300
98	50
99	110
107	20
109	7119
110	220
111	360
112	10
123	190
124	310
125	30
126	10
