Mass Spectrum: Thiourea
Formula: C H4 N2 S
CAS: 62-56-6
Molecular weight: 76
Origin: Japan AIST/NIMC Database- Spectrum MS-NW-1171
m/z	RELATIVE INTENSITY
12	20
13	80
14	80
15	20
16	149
17	269
18	109
26	30
27	159
28	80
29	10
32	159
33	269
34	179
35	10
36	10
38	129
39	20
40	40
41	199
42	1009
43	5239
44	309
45	30
46	119
47	129
48	259
49	20
50	10
58	90
59	1159
60	2359
61	99
62	109
76	9999
77	269
78	459
79	10
