Mass Spectrum: .alpha.-Aminoisobutanoic acid
Formula: C4 H9 N O2
CAS: 62-57-7
Molecular weight: 103
Origin: Japan AIST/NIMC Database- Spectrum MS-NW-5033
m/z	RELATIVE INTENSITY
12	10
13	10
14	50
15	559
16	20
17	50
18	199
25	20
26	80
27	199
28	449
29	90
30	579
31	30
37	40
38	80
39	449
40	219
41	1589
42	3569
43	509
44	149
45	259
46	10
47	10
50	10
51	10
52	40
53	20
54	50
55	20
56	109
57	209
58	9999
59	449
60	20
68	10
69	30
70	40
85	10
86	10
87	10
88	509
89	20
