Mass Spectrum: Dichlorvos
Formula: C4 H7 Cl2 O4 P
CAS: 62-73-7
Molecular weight: 220
Origin: NIST Mass Spectrometry Data Center, 1990.
m/z	RELATIVE INTENSITY
11	3
12	16
13	34
14	156
15	2804
16	22
17	2
18	32
24	8
25	54
26	34
27	47
28	109
29	773
30	117
31	526
32	19
33	19
35	41
36	34
37	15
38	12
39	8
40	5
41	23
42	8
43	8
45	46
47	1577
48	433
49	285
50	124
51	28
52	3
53	4
54	4
55	45
59	39
60	359
61	51
62	153
63	137
64	44
65	140
66	42
67	10
68	3
69	3
71	5
72	3
73	10
76	347
77	110
78	241
79	2697
80	78
81	78
82	193
83	564
84	125
85	346
86	25
87	53
89	8
91	19
93	428
94	33
95	257
96	102
97	347
98	22
99	120
101	14
102	6
103	4
105	4
109	9999
110	325
111	244
112	94
113	374
114	48
115	89
116	10
118	4
119	6
122	3
123	13
125	12
126	34
127	8
128	67
130	23
131	10
140	3
143	4
145	810
146	34
147	266
148	8
149	7
155	10
157	5
169	6
170	9
171	4
173	3
174	27
176	19
178	2
185	2791
186	174
187	900
188	49
189	18
191	15
192	46
193	10
194	39
195	3
196	6
204	4
220	522
222	345
223	22
224	57
