Mass Spectrum: N-Nitrosodimethylamine
Formula: C2 H6 N2 O
CAS: 62-75-9
Molecular weight: 74
Origin: Japan AIST/NIMC Database- Spectrum MS-NW- 697
m/z	RELATIVE INTENSITY
12	30
13	80
14	279
15	2329
16	30
17	40
18	99
26	10
27	339
28	569
29	40
30	619
38	50
39	60
40	209
41	349
42	5139
43	2519
44	629
45	30
55	10
56	109
57	129
58	10
59	139
73	10
74	9999
75	299
76	10
