Mass Spectrum: Nandrolone phenpropionate
Formula: C27 H34 O3
CAS: 62-90-8
Molecular weight: 406
Origin: Patti Price, Georgia Bureau of Investigation, Decatur, Georgia
m/z	RELATIVE INTENSITY
39	260
40	40
41	490
42	130
43	190
44	20
50	50
51	280
52	100
53	340
54	70
55	890
56	50
57	70
63	110
64	40
65	900
66	160
67	890
68	110
69	260
70	10
71	60
75	20
76	50
77	2161
78	790
79	2942
80	370
81	1060
82	130
83	250
84	20
85	20
86	30
89	130
91	9999
92	950
93	1131
94	290
95	950
96	110
97	190
99	10
100	10
102	70
103	960
104	1481
105	7857
106	820
107	2552
108	430
109	790
110	1371
111	210
115	260
116	110
117	580
118	170
119	870
120	340
121	460
122	220
123	470
124	70
127	50
128	190
129	370
130	130
131	790
132	210
133	1921
134	340
135	1601
136	190
137	70
139	20
141	110
142	90
143	390
144	150
145	730
146	340
147	2662
148	450
149	560
150	340
151	50
155	110
156	50
157	270
158	120
159	450
160	230
161	660
162	230
163	270
164	80
165	40
169	100
170	30
171	220
172	90
173	200
174	80
175	210
176	50
181	30
182	30
183	190
184	50
185	190
186	90
187	400
188	70
189	80
190	20
195	50
197	220
198	70
199	410
200	110
201	300
202	80
211	120
212	70
213	200
214	100
215	570
216	100
217	150
218	40
227	50
228	50
229	160
230	50
231	250
237	30
238	150
239	1731
240	300
241	110
242	10
246	120
255	80
256	1751
257	9618
258	2171
259	280
273	70
274	110
275	10
406	320
407	130
