Mass Spectrum: Benzenemethanamine, N,N-bis(phenylmethyl)-
Formula: C21 H21 N
CAS: 620-40-6
Molecular weight: 287
Origin: RADIAN CORP
m/z	RELATIVE INTENSITY
14	190
16	20
27	20
38	20
39	350
40	20
41	150
42	90
50	100
51	330
52	70
53	10
62	40
63	240
64	90
65	1760
66	100
73	20
74	20
75	30
76	40
77	200
78	100
79	10
89	370
90	140
91	9999
92	1240
93	70
103	10
104	70
105	30
115	20
116	50
117	60
118	190
119	20
152	50
153	10
164	10
165	120
166	60
167	60
178	10
179	20
181	400
182	60
193	10
194	140
195	30
196	2020
197	330
198	20
208	100
209	20
210	2420
211	400
212	30
286	350
287	1750
288	400
289	40
