Mass Spectrum: Benzene, (iodomethyl)-
Formula: C7 H7 I
CAS: 620-05-3
Molecular weight: 218
Origin: ALPHA Chemicals / NIST MS Data Center.
m/z	RELATIVE INTENSITY
13	6
14	4
15	5
17	5
18	15
25	9
26	69
27	106
28	107
29	5
32	12
36	9
37	119
38	287
39	865
40	96
41	141
42	7
43	15
44	5
46	19
49	69
50	378
51	447
52	183
53	32
60	27
61	149
62	341
63	759
64	280
65	1849
66	98
73	15
74	45
75	33
76	35
77	11
78	3
84	13
85	45
86	75
87	42
88	3
89	685
90	3
91	9999
92	729
93	22
105	1
127	582
128	31
152	4
170	4
172	4
218	378
219	30
