Mass Spectrum: 3-Ethyl-2-hexene
Formula: C8 H16
CAS: 620-00-8
Molecular weight: 112
Origin: NIST Mass Spectrometry Data Center, 1990.
m/z	RELATIVE INTENSITY
15	50
26	107
27	859
28	305
29	736
39	1562
40	329
41	2464
42	372
43	430
44	68
50	153
51	339
52	148
53	783
54	68
55	9999
56	559
63	86
65	272
66	116
67	971
68	317
69	532
70	502
71	52
77	180
78	45
79	187
81	176
83	5928
84	818
97	106
112	1622
113	150
