Mass Spectrum: Benzene, 1-chloro-3-(chloromethyl)-
Formula: C7 H6 Cl2
CAS: 620-20-2
Molecular weight: 160
Origin: Japan AIST/NIMC Database- Spectrum MS-NW-2742
m/z	RELATIVE INTENSITY
26	30
27	40
28	10
35	40
36	80
37	99
38	149
39	449
40	40
41	30
43	99
44	209
45	20
47	10
48	10
49	70
50	249
51	249
52	30
55	10
57	60
60	30
61	149
62	539
63	899
64	169
65	99
71	30
72	20
73	299
74	70
75	169
76	20
77	20
79	20
80	20
81	10
84	30
85	70
86	90
87	99
88	40
89	1609
90	479
91	70
96	10
97	70
98	10
99	509
100	30
101	159
111	10
123	139
124	60
125	9999
126	809
127	3259
128	249
133	30
135	20
159	679
160	2189
161	589
162	1379
163	169
164	219
165	10
