Mass Spectrum: Benzene, 1-(chloromethyl)-3-methyl-
Formula: C8 H9 Cl
CAS: 620-19-9
Molecular weight: 140
Origin: NIST Mass Spectrometry Data Center, 1992
m/z	RELATIVE INTENSITY
13	11
14	6
15	214
25	15
26	210
27	823
29	8
31	9
35	83
36	52
37	221
38	508
39	1483
40	141
41	75
42	5
43	23
44	8
45	4
47	11
48	23
49	186
50	855
51	1812
52	504
53	268
54	16
55	11
60	25
61	184
62	431
63	945
64	175
65	350
66	48
67	8
68	28
69	183
70	56
73	131
74	276
75	246
76	273
77	1975
78	940
79	1590
80	104
81	4
84	15
85	38
86	67
87	83
88	4
89	354
90	84
91	134
92	7
96	4
97	24
98	39
99	57
100	11
101	69
102	267
103	1478
104	4
105	9999
106	855
107	36
108	2
111	4
112	11
113	7
114	5
123	6
125	429
126	39
127	137
128	11
140	2207
141	271
142	679
143	58
144	2
