Mass Spectrum: p-Ethyldiphenylmethane
Formula: C15 H16
CAS: 620-85-9
Molecular weight: 196
Origin: PET54 P.H. Peterman, U.S. Fish Wildlife Serv., Columbia, Mo., USA
m/z	RELATIVE INTENSITY
39	383
41	153
50	87
51	338
52	88
53	124
62	45
63	236
64	147
65	498
66	37
74	40
75	84
76	339
77	643
78	242
79	219
80	32
81	32
82	279
83	404
84	26
87	55
88	156
89	865
90	344
91	1316
92	127
93	26
94	27
95	31
97	25
101	51
102	191
103	466
104	388
105	1393
106	125
113	56
114	80
115	632
116	137
117	284
118	132
119	161
126	74
127	111
128	256
129	61
139	180
140	41
141	214
142	56
149	39
150	112
151	319
152	1306
153	382
154	65
162	52
163	321
164	304
165	3996
166	2491
167	9999
168	1677
169	102
180	228
181	1176
182	180
193	141
194	520
195	341
196	5360
197	888
198	72
