Mass Spectrum: 2-Furancarboxaldehyde, 5-methyl-
Formula: C6 H6 O2
CAS: 620-02-0
Molecular weight: 110
Origin: Japan AIST/NIMC Database- Spectrum MS-NW-1340
m/z	RELATIVE INTENSITY
12	10
13	20
14	70
15	329
17	10
18	80
25	60
26	389
27	2259
28	289
29	589
30	10
31	30
32	40
36	40
37	269
38	419
39	1159
40	70
41	99
42	189
43	979
44	40
48	20
49	179
50	779
51	1049
52	599
53	5159
54	489
55	129
56	20
58	10
60	10
61	40
62	30
63	40
64	20
65	20
66	40
67	50
68	20
69	60
77	10
79	179
80	149
81	1029
82	80
83	10
84	10
94	10
95	199
96	70
108	30
109	7889
110	9999
111	699
112	60
