Mass Spectrum: Benzonitrile, 3-methyl-
Formula: C8 H7 N
CAS: 620-22-4
Molecular weight: 117
Origin: NIST Mass Spectrometry Data Center, 1990.
m/z	RELATIVE INTENSITY
15	51
17	1
18	23
26	151
27	265
28	54
36	42
37	377
38	589
39	1369
40	174
41	109
43	103
44	48
45	77
48	38
49	145
50	671
51	788
52	292
53	62
56	46
57	143
58	158
60	56
61	430
62	740
63	1500
64	650
65	344
66	56
73	82
74	225
75	523
76	384
77	145
78	54
84	47
85	77
86	159
87	295
88	469
89	3255
90	4996
91	671
92	41
98	23
99	55
100	31
102	55
110	19
111	29
114	201
116	6733
117	9999
118	852
119	38
