Mass Spectrum: Benzene, 1-ethyl-3-methyl-
Formula: C9 H12
CAS: 620-14-4
Molecular weight: 120
Origin: Japan AIST/NIMC Database- Spectrum MS-NW- 137
m/z	RELATIVE INTENSITY
15	40
18	70
26	20
27	329
28	40
29	30
37	20
38	70
39	629
40	60
41	229
43	70
50	169
51	489
52	159
53	189
55	20
57	109
58	159
59	199
61	30
62	99
63	339
64	70
65	519
66	50
69	20
73	30
74	60
75	60
76	60
77	1059
78	359
79	759
80	50
86	20
87	30
89	159
90	50
91	1109
92	389
93	70
102	109
103	589
104	259
105	9999
106	919
107	30
115	229
116	50
117	229
118	60
119	379
120	3239
121	319
