Mass Spectrum: Benzyl sulfone
Formula: C14 H14 O2 S
CAS: 620-32-6
Molecular weight: 246
Origin: NIST Mass Spectrometry Data Center
m/z	RELATIVE INTENSITY
16	30
27	50
38	180
39	1001
40	70
41	230
50	150
51	350
52	110
62	150
63	500
64	200
65	2102
66	130
76	30
77	60
89	350
91	9999
92	821
104	210
182	1101
183	150
246	60
