Mass Spectrum: Benzene, 1-chloro-3-ethyl-
Formula: C8 H9 Cl
CAS: 620-16-6
Molecular weight: 140
m/z	RELATIVE INTENSITY
14	10
15	30
26	30
27	300
28	10
29	30
31	10
35	10
36	10
37	70
38	150
39	460
40	40
41	60
42	10
43	130
44	30
45	20
47	10
48	10
49	100
50	631
51	1651
52	380
53	90
54	50
55	10
56	10
57	10
60	20
61	120
62	220
63	611
64	100
65	130
66	20
67	10
68	90
69	170
70	70
71	10
72	20
73	270
74	300
75	701
76	190
77	1471
78	240
79	540
80	40
83	10
84	40
85	110
86	70
87	90
88	20
89	961
90	290
91	50
92	10
93	10
96	10
97	40
98	40
99	290
100	40
101	290
102	290
103	1301
104	230
105	8818
106	791
107	40
108	10
109	10
110	10
111	300
112	350
113	150
114	110
115	20
121	10
122	10
123	40
124	20
125	9999
126	781
127	3203
128	250
129	10
135	10
136	20
137	30
138	50
139	751
140	5215
141	731
142	1682
143	160
144	10
