Mass Spectrum: Acetic acid, chloro-, phenyl ester
Formula: C8 H7 Cl O2
CAS: 620-73-5
Molecular weight: 170
Origin: V.Zaikin,Inst.Petrochem.Synth.,RAS,Moscow
m/z	RELATIVE INTENSITY
25	50
26	210
27	180
28	20
29	120
39	2292
40	300
41	250
42	621
43	80
49	1441
50	761
51	460
52	981
53	180
55	140
56	50
57	60
60	30
61	150
62	230
63	530
64	280
65	2042
66	831
67	60
68	30
69	40
73	50
74	110
75	150
76	170
77	2672
78	360
79	881
80	150
81	90
82	80
83	30
91	50
92	40
93	370
94	9999
95	1061
96	80
100	20
101	180
102	60
105	20
107	70
108	20
112	40
113	140
120	70
121	230
122	70
123	170
126	50
128	40
129	40
130	1391
131	90
170	881
171	90
172	300
173	30
