Mass Spectrum: Pyridine, 4-methoxy-
Formula: C6 H7 N O
CAS: 620-08-6
Molecular weight: 109
m/z	RELATIVE INTENSITY
50	901
51	1101
52	3103
53	500
66	901
67	500
68	601
78	1201
79	3303
80	601
93	200
94	400
108	300
109	9999
110	801
