Mass Spectrum: Octane, 2,2,6-trimethyl-
Formula: C11 H24
CAS: 62016-28-8
Molecular weight: 156
Origin: D.HENNEBERG, MAX-PLANCK INSTITUTE, MULHEIM, WEST GERMANY
m/z	RELATIVE INTENSITY
24	1
25	8
26	25
27	331
28	62
29	1080
30	58
36	32
38	17
39	254
40	76
41	1605
42	164
43	1888
44	59
45	4
46	4
49	7
50	5
52	4
53	61
54	36
55	451
56	4224
57	9999
58	493
59	10
63	2
65	9
66	4
67	12
70	452
71	1116
72	59
83	35
84	17
85	789
86	60
97	6
98	182
99	255
100	18
111	4
114	5
140	5
141	105
142	12
