Mass Spectrum: Octane, 6-ethyl-2-methyl-
Formula: C11 H24
CAS: 62016-19-7
Molecular weight: 156
Origin: D.HENNEBERG, MAX-PLANCK INSTITUTE, MULHEIM, WEST GERMANY
m/z	RELATIVE INTENSITY
24	11
27	888
28	146
29	1394
30	31
32	21
33	7
34	10
36	11
37	38
38	15
39	548
40	109
41	2573
42	642
43	9999
44	294
45	13
46	1
47	6
50	17
51	37
52	9
53	123
54	49
55	1231
56	1083
57	6246
58	281
59	3
64	2
65	32
66	2
67	54
68	91
69	499
70	1686
71	7119
72	398
73	11
77	8
78	7
79	5
81	7
82	23
83	99
84	226
85	2926
86	210
97	21
98	189
99	50
110	5
111	191
126	495
127	726
128	75
156	10
