Mass Spectrum: Butane, 1-methoxy-2-methyl-
Formula: C6 H14 O
CAS: 62016-48-2
Molecular weight: 102
Origin: D.HENNEBERG, MAX-PLANCK INSTITUTE, MULHEIM, WEST GERMANY
m/z	RELATIVE INTENSITY
26	79
27	459
28	211
29	1732
30	60
31	288
32	17
33	148
37	3
39	369
40	95
41	2602
42	555
43	496
44	43
45	9999
46	267
47	1498
48	29
50	13
51	23
52	5
53	75
54	45
55	894
56	3220
57	1155
58	66
59	168
60	8
65	9
67	16
68	4
69	55
70	2858
71	265
72	26
73	124
74	18
77	12
78	14
79	10
80	11
85	12
87	7
101	21
102	31
