Mass Spectrum: Octane, 2,3,6-trimethyl-
Formula: C11 H24
CAS: 62016-33-5
Molecular weight: 156
Origin: D.HENNEBERG, MAX-PLANCK INSTITUTE, MULHEIM, WEST GERMANY
m/z	RELATIVE INTENSITY
24	9
25	8
27	865
28	150
29	1620
30	51
31	4
33	3
36	32
38	43
39	556
40	120
41	2713
42	551
43	7774
44	120
45	15
49	9
50	22
51	8
52	26
53	156
54	82
55	1119
56	1195
57	9999
58	474
62	7
63	29
64	20
65	8
66	12
67	69
68	23
69	236
70	2083
71	8432
72	474
73	17
75	5
77	25
79	10
80	5
82	98
83	523
84	380
85	630
86	27
91	6
97	13
99	23
112	706
113	802
114	60
117	3
127	4
140	6
156	4
