Mass Spectrum: Octane, 2,4,6-trimethyl-
Formula: C11 H24
CAS: 62016-37-9
Molecular weight: 156
Origin: D.HENNEBERG, MAX-PLANCK INSTITUTE, MULHEIM, WEST GERMANY
m/z	RELATIVE INTENSITY
24	8
25	4
26	64
27	681
28	35
29	1307
30	42
32	21
33	15
34	2
39	518
40	132
41	2319
42	450
43	6848
44	185
45	13
46	9
49	4
50	16
51	20
52	7
53	137
54	128
55	806
56	1310
57	9999
58	404
63	6
65	15
66	13
67	131
68	83
69	578
70	659
71	2574
72	125
77	24
79	94
81	50
82	16
83	157
84	455
85	2321
86	170
89	5
91	12
94	5
95	8
98	253
99	633
100	34
110	10
111	2
112	22
113	56
114	5
126	18
127	179
128	9
141	26
156	6
