Mass Spectrum: 2-Propenal, 3-[4-(dimethylamino)phenyl]-
Formula: C11 H13 N O
CAS: 6203-18-5
Molecular weight: 175
Origin: Japan AIST/NIMC Database- Spectrum MS-NW-1691
m/z	RELATIVE INTENSITY
14	80
15	319
16	70
17	10
18	30
26	50
27	279
28	219
29	359
30	129
37	50
38	139
39	569
40	70
41	159
42	859
43	109
44	429
45	20
49	20
50	519
51	1099
52	269
53	139
54	50
55	179
56	40
57	40
58	50
59	30
60	239
61	70
62	219
63	699
64	249
65	369
66	189
67	40
68	80
69	139
70	20
71	50
72	759
73	809
74	299
75	459
76	399
77	1669
78	399
79	249
80	50
81	50
82	30
83	10
85	10
86	299
87	179
88	90
89	389
90	209
91	469
92	99
93	40
94	40
95	20
97	10
98	50
99	20
100	20
101	379
102	789
103	1319
104	559
105	409
106	139
107	70
108	40
113	10
114	50
115	229
116	249
117	249
118	289
119	249
120	1849
121	4719
122	419
123	20
127	30
128	249
129	269
130	1079
131	1819
132	819
133	119
134	1179
135	129
142	70
143	60
144	669
145	409
146	3409
147	1789
148	249
149	90
156	20
157	30
158	359
159	139
160	149
161	20
172	50
173	40
174	3759
175	9999
176	1239
177	90
