Mass Spectrum: Benzofuran, 7-(2,4-dinitrophenoxy)-3-ethoxy-2,3-dihydro-2,2-dimethyl-
Formula: C18 H18 N2 O7
CAS: 62059-46-5
Molecular weight: 374
Origin: J. SHAW, BORRISTON RESEARCH, ROCKVILLE, MD, USA
m/z	RELATIVE INTENSITY
12	70
13	30
14	150
15	610
16	230
17	530
18	1401
19	70
20	10
24	10
27	4504
29	9999
30	2472
32	20
36	20
39	3113
41	4734
43	6926
44	350
45	390
46	240
47	10
48	10
50	570
51	1781
52	750
53	1221
55	1571
56	90
57	340
58	120
59	410
62	510
63	1721
64	620
65	1571
66	270
67	200
68	100
69	580
70	210
71	610
72	110
74	650
75	1091
76	600
77	2162
78	550
79	3093
80	510
81	600
82	160
83	100
84	60
85	20
86	60
87	130
88	140
89	540
91	1811
92	550
93	810
94	270
95	180
96	70
97	50
98	30
99	100
100	120
101	180
102	330
103	510
104	190
105	1531
107	1781
108	270
109	1001
110	100
111	70
112	30
113	140
114	140
115	760
116	180
117	180
118	120
119	420
120	330
121	410
122	130
123	310
124	30
125	70
126	390
127	500
128	360
129	120
130	80
131	260
133	3533
134	560
135	350
136	150
137	810
138	290
139	750
140	160
141	80
142	30
143	70
144	80
145	130
146	120
147	160
148	50
149	290
150	150
151	700
152	240
153	170
154	90
155	310
156	100
157	90
158	20
159	30
161	990
162	440
163	600
164	130
165	290
166	110
167	330
168	240
169	270
170	60
171	50
172	10
173	10
174	10
175	10
176	30
177	80
178	100
179	670
180	120
181	100
182	70
183	160
184	80
185	50
186	10
189	20
190	20
191	10
192	30
193	60
194	80
195	120
196	110
197	360
198	70
199	30
200	10
202	10
203	10
205	20
207	430
208	90
209	110
210	110
211	110
212	40
213	60
214	30
215	30
219	10
220	40
221	100
222	40
223	20
224	20
225	50
226	30
227	20
228	10
229	10
230	10
231	10
234	40
235	30
236	20
237	40
238	20
239	20
240	30
241	40
242	40
243	110
244	10
249	10
251	10
252	20
253	20
254	10
255	30
256	50
257	70
258	20
259	50
260	10
265	10
266	40
267	30
268	10
269	10
270	10
271	20
280	60
281	20
282	40
283	40
284	20
285	10
287	10
294	10
295	10
296	10
301	10
303	360
304	50
305	10
311	100
312	40
313	90
314	10
317	10
327	20
328	10
329	60
330	10
357	50
358	10
374	180
375	30
