Mass Spectrum: Methyl 2,4-dichlorobutanoate
Formula: C5 H8 Cl2 O2
CAS: 62093-65-6
Molecular weight: 170
Origin: ASES Database, Dalian Institute, P.R. China
m/z	RELATIVE INTENSITY
39	3593
41	5344
42	970
43	1090
49	3032
51	1191
55	2702
56	360
59	9999
60	530
61	340
62	610
63	720
74	610
75	6055
76	4844
77	2242
78	1621
99	970
102	410
103	610
108	8447
109	470
110	2902
111	2332
113	1391
121	600
123	180
135	600
137	180
139	1090
141	600
