Mass Spectrum: 1,4-Diphenylsemicarbazide
Formula: C13 H13 N3 O
CAS: 621-12-5
Molecular weight: 227
Origin: Japan AIST/NIMC Database- Spectrum MS-NW- 210
m/z	RELATIVE INTENSITY
26	30
27	109
28	109
29	189
30	30
31	20
32	10
37	50
38	189
39	779
40	119
41	169
42	30
43	60
44	30
45	20
46	20
50	229
51	869
52	259
53	119
54	70
55	50
56	40
57	80
59	20
60	30
61	20
62	80
63	309
64	389
65	1579
66	419
67	70
68	20
69	60
70	20
71	30
73	20
74	60
75	50
76	99
77	2449
78	729
79	419
80	209
81	119
82	20
83	40
84	20
85	30
87	20
90	70
91	899
92	2059
93	1529
94	279
95	50
96	20
97	40
98	20
101	20
104	20
105	99
106	109
107	1249
108	9999
109	759
110	50
111	20
113	20
115	20
118	20
119	449
120	369
121	30
122	20
125	40
127	20
128	20
129	20
134	70
135	30
136	20
137	20
141	20
145	20
149	30
152	20
154	20
160	30
167	20
168	20
169	30
182	20
183	20
211	20
227	4139
228	659
229	60
