Mass Spectrum: Tripropyl orthoformate
Formula: C10 H22 O3
CAS: 621-76-1
Molecular weight: 190
Origin: Japan AIST/NIMC Database- Spectrum MS-IW-7199
m/z	RELATIVE INTENSITY
14	20
15	90
17	10
18	30
19	10
25	10
26	159
27	1469
28	499
29	499
30	70
31	2869
32	70
33	30
36	20
37	159
38	239
39	1439
40	539
41	3779
42	3159
43	9709
44	629
45	119
46	10
47	2179
48	20
49	10
55	30
56	10
57	139
58	99
59	529
60	209
61	40
63	279
71	50
73	99
87	20
88	129
89	9999
90	499
91	50
101	10
102	30
105	149
130	20
131	8329
132	659
133	50
147	40
189	99
190	10
