Mass Spectrum: 3-(Diethylamino)-1,2-propanediol
Formula: C7 H17 N O2
CAS: 621-56-7
Molecular weight: 147
Origin: Chuck Anderson, Aldrich Chemical Co.
m/z	RELATIVE INTENSITY
15	112
18	79
19	44
20	13
26	49
27	445
28	682
29	948
30	1833
31	310
32	12
36	5
39	26
40	17
41	128
42	698
43	275
44	387
45	73
54	42
55	32
56	323
57	169
58	1538
59	63
60	167
61	6
68	14
70	140
71	56
72	483
73	103
74	27
75	3
84	46
85	15
86	9999
87	548
88	153
98	5
100	51
112	2
114	19
116	1563
117	100
130	20
132	23
146	15
147	155
148	19
