Mass Spectrum: Urea, N-ethyl-N'-phenyl-
Formula: C9 H12 N2 O
CAS: 621-04-5
Molecular weight: 164
m/z	RELATIVE INTENSITY
38	125
39	500
40	375
41	700
42	500
43	2500
44	1250
50	125
51	475
52	125
55	250
56	200
57	125
63	250
64	375
65	450
66	75
67	125
68	75
69	200
70	75
71	100
72	9999
73	700
74	125
77	625
78	125
79	75
91	800
92	250
93	275
94	75
95	75
97	75
105	200
106	200
107	50
109	50
119	1875
120	250
121	75
161	125
163	200
164	3750
165	450
