Mass Spectrum: Phenol, 3-propyl-
Formula: C9 H12 O
CAS: 621-27-2
Molecular weight: 136
Origin: J.MACAK, DEP. GAS COKE TECH., PRAGUE INST. CHEM. TECH., CZEC ?
m/z	RELATIVE INTENSITY
38	400
39	200
40	300
41	700
43	200
50	400
51	1100
52	500
53	800
55	500
62	200
63	600
64	200
65	700
66	300
67	200
74	100
75	200
77	3000
78	700
79	1000
80	200
81	200
89	200
90	200
91	600
92	100
93	200
94	700
95	100
103	300
105	100
107	9999
108	4900
109	400
120	100
121	1500
122	200
136	3600
137	400
