Mass Spectrum: m-Tolyl isothiocyanate
Formula: C8 H7 N S
CAS: 621-30-7
Molecular weight: 149
Origin: Japan AIST/NIMC Database- Spectrum MS-IW-7197
m/z	RELATIVE INTENSITY
26	20
27	99
28	30
32	20
37	80
38	159
39	869
40	70
41	179
43	10
44	40
45	179
49	30
50	299
51	449
52	129
53	30
56	10
57	20
58	30
59	20
60	40
61	129
62	239
63	689
64	269
65	1639
66	109
69	50
70	99
71	20
72	30
73	60
74	429
75	169
76	119
77	229
78	139
79	20
81	10
82	30
83	50
84	40
85	30
86	50
87	50
88	50
89	709
90	459
91	5009
92	389
93	10
94	10
95	30
96	50
97	10
102	20
103	30
104	259
105	80
107	10
108	30
109	10
114	10
115	30
116	429
117	719
118	60
120	30
121	459
122	149
123	40
133	20
134	10
146	30
148	1929
149	9999
150	1059
151	489
152	40
