Mass Spectrum: Benzene, 1-isocyanato-3-methyl-
Formula: C8 H7 N O
CAS: 621-29-4
Molecular weight: 133
Origin: Japan AIST/NIMC Database- Spectrum MS-NW-2939
m/z	RELATIVE INTENSITY
14	10
15	30
18	10
25	10
26	129
27	339
28	119
29	10
36	20
37	219
38	409
39	1069
40	119
41	109
42	20
43	20
44	20
49	60
50	499
51	829
52	779
53	139
54	40
55	10
56	10
60	10
61	90
62	159
63	449
64	249
65	519
66	119
67	20
73	20
74	80
75	109
76	259
77	969
78	1769
79	369
80	20
83	10
85	10
86	20
87	20
88	30
89	139
90	199
91	1319
92	109
99	10
102	70
103	129
104	3599
105	1339
106	119
107	10
116	10
131	10
132	2859
133	9999
134	929
135	60
