Mass Spectrum: Benzene, 1-ethoxy-3-nitro-
Formula: C8 H9 N O3
CAS: 621-52-3
Molecular weight: 167
Origin: Japan AIST/NIMC Database- Spectrum MS-NW-3561
m/z	RELATIVE INTENSITY
14	20
15	90
16	10
18	20
25	20
26	249
27	1599
28	329
29	3879
30	1049
31	20
32	10
36	10
37	169
38	689
39	1989
40	99
41	199
42	40
43	149
44	20
45	30
46	30
49	50
50	919
51	389
52	189
53	659
54	70
55	229
56	10
60	20
61	139
62	399
63	1689
64	1649
65	5659
66	449
67	70
68	50
69	70
73	40
74	299
75	529
76	919
77	949
78	219
79	80
80	60
81	2889
82	179
83	90
84	10
86	10
89	20
90	20
91	449
92	1839
93	7769
94	709
95	70
96	10
97	10
103	60
104	10
105	30
106	40
107	60
108	30
109	469
110	50
111	50
115	20
116	20
119	30
120	60
121	599
122	119
123	20
135	10
137	50
138	10
139	9999
140	739
141	90
150	10
151	119
152	60
153	50
166	30
167	7109
168	689
169	80
