Mass Spectrum: N,N'-Diphenylmalonamide
Formula: C15 H14 N2 O2
CAS: 621-10-3
Molecular weight: 254
Origin: A.A.Kutin, Moscow, Russia
m/z	RELATIVE INTENSITY
33	1
34	3
36	37
38	193
39	893
40	266
41	162
42	191
43	713
44	182
45	12
50	150
51	710
52	178
53	55
54	59
55	16
56	6
57	22
58	3
59	42
60	7
61	14
62	50
63	258
64	361
65	1961
66	1406
67	124
69	285
70	12
71	10
73	5
74	21
75	49
77	2726
78	292
79	248
80	41
81	8
83	7
84	27
86	2
88	6
89	48
90	94
91	1325
92	5197
93	9999
94	880
95	37
96	3
101	6
102	14
104	125
105	103
106	696
107	100
108	11
109	4
110	4
112	4
113	2
115	9
116	38
117	136
119	600
120	877
121	73
122	22
126	1
127	55
128	3
129	7
130	4
131	4
132	80
134	3026
135	4949
136	446
137	38
139	3
140	2
141	1
144	38
145	6
146	5
147	2
149	4
152	7
154	7
157	1
159	2
160	58
161	27
162	64
163	5
164	5
166	5
167	11
168	6
169	5
171	4
175	1
178	4
179	3
180	6
183	3
185	8
188	1
189	1
190	3
193	150
194	27
195	8
196	3
197	2
205	2
206	13
207	21
208	6
209	3
211	13
212	2
217	9
218	3
221	3
231	2
232	17
233	2
235	13
250	4
251	6
252	20
254	6398
255	1095
256	110
257	7
