Mass Spectrum: Decanoic acid, 1,2,3-propanetriyl ester
Formula: C33 H62 O6
CAS: 621-71-6
Molecular weight: 554
Origin: R.T.HOLMAN,UNIVERSITY OF MINNESOTA
m/z	RELATIVE INTENSITY
27	290
28	90
29	730
39	280
41	1880
42	390
43	2590
44	110
45	190
53	140
54	160
55	1760
56	490
57	2350
58	1290
59	560
60	1260
61	310
67	520
68	290
69	1180
70	470
71	2060
72	310
73	1410
74	390
75	80
79	120
81	940
82	580
83	790
84	630
85	1470
86	160
87	440
88	790
89	110
93	80
95	1060
96	620
97	510
98	790
99	190
100	290
101	530
102	70
107	60
109	220
110	1180
111	290
112	730
113	380
114	340
115	390
116	380
117	160
123	120
124	60
125	90
126	110
127	760
128	220
129	1180
130	140
134	140
135	110
137	290
138	80
141	150
142	70
143	350
149	380
152	280
153	140
154	520
155	9999
156	1180
157	260
158	220
159	60
160	120
167	210
170	1470
171	1170
172	470
173	350
176	60
183	600
184	120
185	230
186	120
187	80
196	90
197	220
198	60
199	100
200	110
201	90
210	160
211	80
212	120
213	250
214	60
215	1180
216	180
225	60
226	60
227	790
228	600
229	2820
230	440
231	90
239	140
241	110
242	70
247	430
248	80
255	80
257	90
270	1880
271	1060
272	190
279	80
282	210
283	1000
284	210
288	70
289	160
297	240
298	100
308	120
310	90
311	140
312	120
325	240
326	140
327	100
339	820
340	440
341	150
353	240
354	290
355	280
356	60
358	100
367	90
369	2000
370	520
371	100
372	60
381	410
382	3860
383	9410
384	2410
385	380
386	60
401	560
402	140
424	430
425	120
427	120
442	350
443	110
452	160
481	170
482	60
536	110
554	64
555	30
