Mass Spectrum: Phenoxyacetamide
Formula: C8 H9 N O2
CAS: 621-88-5
Molecular weight: 151
Origin: NIST Mass Spectrometry Data Center, 1994
m/z	RELATIVE INTENSITY
15	65
16	44
17	45
18	63
25	11
26	81
27	287
29	287
30	1154
31	137
37	164
38	507
39	1538
40	134
41	119
42	445
43	81
44	1564
45	28
50	942
51	2652
52	323
53	114
54	25
55	60
58	955
59	25
60	15
61	82
62	218
63	516
64	210
65	1070
66	330
67	24
73	48
74	313
75	189
76	15
77	7032
78	2224
79	2631
80	212
81	21
89	15
90	48
91	45
92	69
93	295
94	1123
95	117
105	154
107	5708
108	2242
109	168
110	27
121	235
122	113
133	55
134	234
135	32
151	9999
152	924
153	79
