Mass Spectrum: Benzene, 1,1'-[sulfinylbis(methylene)]bis-
Formula: C14 H14 O S
CAS: 621-08-9
Molecular weight: 230
Origin: Japan AIST/NIMC Database- Spectrum MS-NW-7895
m/z	RELATIVE INTENSITY
27	20
28	10
32	10
38	30
39	369
40	30
41	99
44	10
45	129
50	60
51	179
52	40
53	10
61	10
62	40
63	189
64	60
65	1019
66	70
69	10
74	10
75	10
76	10
77	119
78	30
79	20
87	10
89	159
90	70
91	9999
92	829
93	30
105	80
106	50
109	10
121	60
122	40
123	60
124	60
125	10
137	10
139	10
140	10
152	70
153	10
165	10
166	10
178	10
179	10
180	289
181	179
182	30
213	10
214	40
230	429
231	80
232	20
