Mass Spectrum: 1,4-Dibenzyloxybenzene
Formula: C20 H18 O2
CAS: 621-91-0
Molecular weight: 290
Origin: NIST Mass Spectrometry Data Center
m/z	RELATIVE INTENSITY
38	20
39	230
41	80
50	50
51	160
52	70
53	30
54	70
55	10
62	40
63	280
64	120
65	1411
66	70
75	10
76	10
77	50
82	30
89	290
90	170
91	9999
92	1031
93	30
104	40
105	10
108	10
110	10
115	40
116	10
128	10
141	40
142	20
152	10
153	10
165	10
167	10
169	20
171	30
181	40
182	10
198	10
199	70
200	10
290	1742
291	380
292	40
