Mass Spectrum: Octadecanoic acid, 2-hydroxy-1-(hydroxymethyl)ethyl ester
Formula: C21 H42 O4
CAS: 621-61-4
Molecular weight: 358
m/z	RELATIVE INTENSITY
26	300
27	1501
28	1001
29	3203
30	200
31	801
32	100
36	200
37	100
38	100
39	901
40	200
41	6206
42	1601
43	9999
44	1101
45	1001
46	100
47	100
51	100
52	100
53	400
54	701
55	7106
56	2502
57	8508
58	701
59	400
60	3603
61	1802
62	100
63	100
65	100
66	100
67	1201
68	801
69	4304
70	1401
71	4104
72	300
73	4504
74	4504
75	1601
76	100
77	100
78	100
79	300
80	200
81	1101
82	901
83	3203
84	4204
85	2702
86	300
87	1501
88	200
89	100
91	200
93	500
94	200
95	1101
96	701
97	2702
98	7106
99	1101
100	400
101	701
102	200
103	100
104	100
105	100
107	200
108	100
109	601
110	400
111	1501
112	2402
113	701
114	200
115	701
116	1601
117	300
118	100
119	100
121	300
122	100
123	300
124	200
125	601
126	601
127	300
128	100
129	2502
130	300
131	100
132	100
133	100
134	3503
135	500
136	100
137	200
138	200
139	300
140	400
141	400
142	100
143	400
144	100
145	100
147	601
148	100
149	200
150	100
151	100
152	100
153	200
154	701
155	300
156	100
157	200
158	100
159	100
160	100
163	100
165	100
166	100
167	200
168	400
169	200
170	100
171	400
172	100
173	100
176	300
177	100
179	100
180	100
181	200
182	300
183	100
185	801
186	100
190	100
191	100
194	100
195	100
196	300
197	100
199	300
200	100
209	100
210	500
211	200
213	100
222	200
223	200
224	300
225	100
227	200
228	100
237	100
238	100
241	801
242	100
248	100
249	100
255	300
256	100
264	100
265	100
266	1001
267	4304
268	901
269	200
283	100
284	2502
285	1601
286	300
287	100
297	100
298	500
299	100
311	100
312	100
327	801
328	200
340	200
341	100
358	100
359	100
