Mass Spectrum: Acetamide, N-(3-bromophenyl)-
Formula: C8 H8 Br N O
CAS: 621-38-5
Molecular weight: 213
Origin: F.B.Jariwala et al, J. Am. Soc. Mass Spectrom. 19, 1114-1118 (2008)
m/z	RELATIVE INTENSITY
37	191
38	813
39	1054
41	191
42	924
43	9999
50	502
52	542
61	371
62	763
63	2369
64	1275
65	2590
66	131
74	261
75	301
76	110
77	60
79	60
81	171
89	60
90	462
91	1355
92	3644
93	261
117	171
119	171
133	80
134	60
143	301
145	241
146	60
155	60
157	60
170	151
171	7610
172	612
173	7007
174	522
213	2419
214	241
215	2279
216	211
