Mass Spectrum: Hexanamide, N-phenyl-
Formula: C12 H17 N O
CAS: 621-15-8
Molecular weight: 191
Origin: CARL DJERASSI DEPT OF CHEM STANFORD UNIV STANFORD CALIF 94305
m/z	RELATIVE INTENSITY
41	400
42	100
43	900
44	100
50	100
51	200
52	100
53	100
55	200
63	100
64	100
65	400
66	300
67	100
71	400
77	500
78	100
91	200
92	400
93	9999
94	900
99	300
119	200
120	300
130	200
134	200
135	800
136	200
190	300
191	1400
192	400
