Mass Spectrum: Decane, 2,5,9-trimethyl-
Formula: C13 H28
CAS: 62108-22-9
Molecular weight: 184
Origin: D.HENNEBERG, MAX-PLANCK INSTITUTE, MULHEIM, WEST GERMANY
m/z	RELATIVE INTENSITY
39	1149
40	9
41	2079
42	319
43	4479
44	259
53	19
55	700
56	1269
57	9999
58	359
69	369
70	649
71	3149
72	100
83	9
84	89
85	459
98	229
99	469
112	159
113	309
