Mass Spectrum: Decane, 2,6,7-trimethyl-
Formula: C13 H28
CAS: 62108-25-2
Molecular weight: 184
Origin: D.HENNEBERG, MAX-PLANCK INSTITUTE, MULHEIM, WEST GERMANY
m/z	RELATIVE INTENSITY
39	509
40	189
41	2467
42	899
43	6103
44	200
53	149
54	79
55	1528
56	2117
57	9999
58	419
67	89
68	109
69	699
70	2487
71	4885
72	329
73	109
82	169
83	189
84	529
85	799
86	89
96	59
97	159
98	129
99	299
100	59
111	69
112	809
113	609
114	69
140	39
141	109
