Mass Spectrum: Decane, 6-ethyl-2-methyl-
Formula: C13 H28
CAS: 62108-21-8
Molecular weight: 184
Origin: D.HENNEBERG, MAX-PLANCK INSTITUTE, MULHEIM, WEST GERMANY
m/z	RELATIVE INTENSITY
39	368
41	3017
42	498
43	7589
44	368
53	29
54	19
55	1065
56	1254
57	9999
58	338
69	498
70	667
71	4312
72	139
83	139
84	258
85	2519
86	59
98	537
99	468
113	69
126	109
127	89
140	29
141	531
154	119
155	189
