Mass Spectrum: Butane, 2,2,3-tribromo-
Formula: C4 H7 Br3
CAS: 62127-47-3
Molecular weight: 292
Origin: RADIAN CORP
m/z	RELATIVE INTENSITY
15	690
25	260
26	2230
27	9150
29	2490
37	590
38	1020
39	3670
49	430
50	1910
51	2310
52	850
53	9999
54	1130
55	4160
79	1920
80	960
81	1980
82	890
105	540
107	810
109	750
133	2900
134	820
135	2880
136	700
160	70
213	2110
215	4980
217	2450
