Mass Spectrum: 2-Propenoic acid, 3-bromo-, methyl ester, (E)-
Formula: C4 H5 Br O2
CAS: 6213-87-2
Molecular weight: 164
Origin: PYTCAS, 18(4)617(1979); F. X. WOOLARD ET AL.
m/z	RELATIVE INTENSITY
59	2900
85	9999
105	5600
107	5600
119	200
121	200
133	9999
135	9999
164	2400
166	2400
