Mass Spectrum: 2-Chloro-N,N-dimethyl-4-nitroaniline
Formula: C8 H9 Cl N2 O2
CAS: 6213-19-0
Molecular weight: 200
Origin: NIST Mass Spectrometry Data Center, 1994
m/z	RELATIVE INTENSITY
12	43
13	43
14	181
15	2929
16	111
17	24
18	176
26	101
27	246
28	913
29	24
30	3356
32	48
35	57
36	101
37	369
38	594
39	959
40	311
41	464
42	5142
43	354
44	515
45	48
46	1007
47	75
48	36
49	303
50	1508
51	1704
52	643
53	275
54	132
55	66
56	43
59	91
60	84
61	533
62	860
63	2152
64	513
65	974
66	896
67	188
68	312
69	185
71	34
72	146
73	776
74	1527
75	2955
76	1492
77	2566
78	853
79	265
80	108
81	60
82	42
84	279
85	198
86	267
87	281
88	430
89	527
90	491
91	1672
92	903
93	265
94	55
96	49
97	499
98	241
99	1289
100	234
101	489
102	751
103	416
104	2471
105	321
106	364
107	124
108	64
109	123
110	413
111	479
112	593
113	566
114	191
115	157
116	210
117	1128
118	3420
119	2315
120	347
124	745
125	349
126	498
127	243
128	108
129	48
133	97
134	125
136	34
137	132
138	812
139	1588
140	436
141	664
142	455
143	80
144	152
151	52
153	4695
154	1162
155	1654
156	407
157	39
165	60
170	2372
171	281
172	851
173	85
183	59
184	207
185	78
186	75
197	135
199	9144
200	9999
201	3959
202	3319
203	335
