Mass Spectrum: 1,2-Dimethyl-4-(adamantyl-1)benzene
Formula: C18 H24
CAS: 62133-11-3
Molecular weight: 240
Origin: B. Derendyaev, Novosibirsk Institute of Organic Chemistry
m/z	RELATIVE INTENSITY
53	329
55	379
65	199
67	289
77	879
79	879
91	1319
93	289
105	529
115	559
119	1249
128	579
129	419
131	259
141	379
142	259
143	279
146	2479
147	259
155	269
167	399
168	579
169	369
182	359
183	9999
184	1719
197	449
240	3919
241	639
