Mass Spectrum: 2-Propenoic acid, 3-bromo-, methyl ester, (Z)-
Formula: C4 H5 Br O2
CAS: 6214-22-8
Molecular weight: 164
Origin: PYTCAS, 18(4)617(1979); F. X. WOOLARD ET AL.
m/z	RELATIVE INTENSITY
59	2200
85	4700
105	3500
107	3400
133	9999
135	9900
164	1200
166	1100
