Mass Spectrum: 1,2-Propanediol, 2-acetate
Formula: C5 H10 O3
CAS: 6214-01-3
Molecular weight: 118
Origin: NIST Mass Spectrometry Data Center
m/z	RELATIVE INTENSITY
26	20
27	100
28	100
29	250
30	30
31	611
38	20
39	160
40	30
41	290
42	260
43	9999
44	310
45	781
46	20
55	20
57	340
58	601
59	80
60	40
61	190
70	30
72	70
74	460
75	1611
76	20
87	2062
88	571
100	20
103	30
