Mass Spectrum: 2-Chloro-4-nitro-N,N-dipropylaniline
Formula: C12 H17 Cl N2 O2
CAS: 6216-91-7
Molecular weight: 256
Origin: NIST Mass Spectrometry Data Center, 1994
m/z	RELATIVE INTENSITY
8	3
9	18
10	19
12	8
13	11
14	7
15	159
17	3
18	82
20	24
21	30
25	32
27	3706
28	613
29	750
30	926
31	5
32	12
35	36
36	53
37	4
38	4
39	1308
40	4
41	4842
42	4
43	5974
44	379
46	152
48	27
49	65
50	398
51	668
52	319
53	125
54	172
55	93
56	91
57	4
58	12
60	20
61	63
62	227
63	785
64	248
65	355
66	91
67	18
68	33
69	23
70	28
71	31
72	62
73	217
74	349
75	1631
76	1113
77	665
78	386
79	109
80	65
81	9
82	8
84	83
85	64
86	72
87	89
88	98
89	351
90	480
91	290
92	225
93	157
94	25
97	125
98	76
99	314
100	87
101	225
102	711
103	413
104	614
105	175
106	96
107	38
109	89
110	440
111	302
112	284
113	125
114	78
115	129
116	136
117	507
118	173
119	164
120	217
121	14
122	26
123	52
124	138
125	91
126	172
127	213
128	108
129	89
130	206
131	155
132	117
133	99
134	42
135	12
136	12
137	374
138	579
139	2596
140	453
141	901
142	133
143	43
144	46
145	76
146	45
147	39
148	22
149	48
150	61
151	81
152	92
153	307
154	359
155	743
156	216
157	274
158	35
159	29
160	18
161	23
162	24
163	15
164	37
165	46
166	97
167	210
168	1109
169	296
170	424
171	78
172	35
173	19
175	34
177	32
178	36
179	76
180	15
181	1103
182	174
183	529
184	19
185	6983
186	698
187	2364
188	187
189	14
190	3
191	35
193	6
195	44
197	874
198	135
199	591
200	71
202	19
207	50
208	22
209	40
210	6
211	519
212	75
213	208
214	37
215	27
221	15
223	37
225	101
227	9999
228	1324
229	3397
230	391
231	40
237	15
240	81
241	44
256	900
257	141
258	335
