Mass Spectrum: Doconexent
Formula: C22 H32 O2
CAS: 6217-54-5
Molecular weight: 328
Origin: NIST Mass Spectrometry Data Center
m/z	RELATIVE INTENSITY
15	10
26	20
27	440
28	60
29	671
30	30
31	30
36	10
37	10
38	30
39	1131
40	180
41	4814
42	340
43	1081
44	50
45	290
46	10
47	10
50	70
51	350
52	240
53	1441
54	641
55	3383
56	300
57	540
58	140
59	100
60	430
61	70
62	20
63	110
64	40
65	1461
66	1201
67	5675
68	631
69	1031
70	230
71	651
72	40
73	210
74	270
75	80
77	3904
78	1972
79	9999
80	3083
81	2072
82	540
83	440
84	160
85	220
86	30
87	80
88	40
89	70
91	8478
92	3363
93	4654
94	1261
95	1611
96	370
97	310
98	100
99	70
100	30
101	70
102	70
103	490
104	751
105	4344
106	1541
107	1371
108	2162
109	621
110	180
111	120
112	40
113	120
114	50
115	681
116	330
117	2612
118	751
119	3353
120	871
121	741
122	430
123	200
124	80
125	50
126	70
127	140
128	340
129	791
130	400
131	1732
132	731
133	1561
134	530
135	460
136	160
137	90
138	90
139	50
140	40
141	170
142	90
143	450
144	180
145	961
146	340
147	671
148	350
149	170
150	140
151	110
152	711
153	140
154	50
155	110
156	50
157	300
158	110
159	631
160	180
161	320
162	140
163	110
164	110
165	90
166	140
167	70
168	30
169	100
170	30
171	220
172	80
173	330
174	100
175	190
176	80
177	110
178	100
179	100
180	70
181	60
182	20
183	80
184	30
185	150
186	60
187	150
188	70
189	60
190	30
191	70
192	250
193	80
194	30
195	30
196	10
197	50
198	10
199	130
200	40
201	80
202	40
203	50
204	30
205	60
206	70
207	30
208	20
209	20
210	10
211	20
212	10
213	70
214	30
215	120
216	20
217	50
218	30
219	60
220	40
221	30
222	20
223	30
224	20
225	20
226	10
227	30
228	10
229	10
230	10
231	30
232	20
233	30
234	10
235	10
236	20
237	10
239	10
241	50
242	10
243	20
244	10
245	20
246	20
247	20
248	10
249	10
250	10
253	10
255	20
256	10
257	20
258	10
259	50
260	20
261	10
262	10
263	10
264	10
265	10
269	10
271	10
272	10
273	10
274	10
275	10
276	10
278	20
280	20
281	10
284	10
285	20
286	10
287	10
299	30
300	10
304	20
