Mass Spectrum: 2,2,4,4-Tetramethyloctane
Formula: C12 H26
CAS: 62183-79-3
Molecular weight: 170
Origin: NIST Mass Spectrometry Data Center, 1990.
m/z	RELATIVE INTENSITY
27	300
28	50
29	649
32	18
39	404
41	2022
42	171
43	1058
44	39
51	29
53	173
55	889
56	1525
57	9999
58	425
65	32
67	83
69	265
70	485
71	290
77	27
79	31
81	28
83	172
84	27
85	98
97	97
98	485
99	1771
100	132
112	262
113	600
114	52
