Mass Spectrum: Octane, 3-ethyl-2,7-dimethyl-
Formula: C12 H26
CAS: 62183-55-5
Molecular weight: 170
Origin: D.HENNEBERG, MAX-PLANCK INSTITUTE, MULHEIM, WEST GERMANY
m/z	RELATIVE INTENSITY
22	6
23	3
24	8
25	18
26	98
27	1040
29	1358
30	43
31	5
33	6
35	19
36	3
37	42
38	23
39	565
41	2909
42	530
43	9999
44	211
50	1
51	18
52	9
53	143
54	63
55	1115
56	2056
57	7262
58	309
59	7
65	16
66	6
67	83
68	144
69	892
70	506
71	4928
72	268
73	1
77	65
79	7
81	12
82	54
83	200
84	446
85	2799
86	192
97	35
98	235
99	103
110	4
111	295
112	32
113	13
126	491
127	374
128	29
140	10
141	38
