Mass Spectrum: 3-Ethylthiolane
Formula: C6 H12 S
CAS: 62184-67-2
Molecular weight: 116
Origin: V.G.Zaikin, TIPS, Russian Acad. Sci.
m/z	RELATIVE INTENSITY
41	6706
42	2402
43	1201
44	8307
45	4003
46	2101
47	1901
53	1501
54	1601
55	6405
56	900
57	700
58	600
59	2101
60	6906
61	3102
62	500
67	3503
68	1401
69	5104
70	2201
71	700
73	1000
74	1401
75	500
81	700
82	2502
83	1000
84	250
85	1000
86	200
87	5404
88	2502
89	400
101	6105
102	600
103	400
115	600
116	9999
117	761
118	401
119	30
