Mass Spectrum: 2-(2-Methoxyethoxy)ethanol, TMS derivative
Formula: C8 H20 O3 Si
CAS: 62199-57-9
Molecular weight: 192
Origin: NIST Mass Spectrometry Data Center, 2007
m/z	RELATIVE INTENSITY
14	10
15	320
16	10
17	10
18	10
19	10
26	40
27	190
28	260
29	1561
30	80
31	1251
32	20
33	40
39	30
40	10
41	120
42	110
43	1071
44	310
45	2863
46	130
47	360
48	20
49	10
51	20
53	30
54	10
55	80
56	30
57	130
58	1341
59	9999
60	470
61	460
62	30
63	30
66	10
68	10
69	10
70	40
71	90
72	390
73	9048
74	901
75	2352
76	170
77	200
78	10
85	20
86	20
87	530
88	200
89	3713
90	320
91	160
92	10
99	20
101	1001
102	210
103	2642
104	260
105	110
106	10
115	70
116	3313
117	2562
118	370
119	340
120	30
121	10
131	10
132	10
133	480
134	50
135	20
145	520
146	60
147	380
148	40
149	70
150	10
160	10
177	661
178	90
179	30
