Mass Spectrum: Benzene, azido-
Formula: C6 H5 N3
CAS: 622-37-7
Molecular weight: 119
Origin: MINISTRY OF DEFENCE ERDE, WALTHAM ABBEY, ESSEX, UK
m/z	RELATIVE INTENSITY
14	100
26	400
27	900
28	1400
29	200
31	400
32	200
36	100
37	1600
38	3100
39	2400
40	600
41	1500
45	200
49	300
50	1200
51	1600
52	1200
61	500
62	900
63	3700
64	7800
65	1900
66	200
74	200
75	100
76	200
77	200
90	420
91	9999
92	700
93	200
119	3600
120	300
