Mass Spectrum: Benzene, 1-ethyl-4-methyl-
Formula: C9 H12
CAS: 622-96-8
Molecular weight: 120
Origin: Japan AIST/NIMC Database- Spectrum MS-NW-3453
m/z	RELATIVE INTENSITY
15	40
26	30
27	239
29	20
37	30
38	60
39	479
40	40
41	149
49	10
50	179
51	409
52	129
53	159
54	10
57	90
58	109
59	139
61	40
62	109
63	279
64	60
65	399
66	40
67	10
73	10
74	60
75	50
76	50
77	859
78	309
79	569
80	40
85	10
86	30
87	30
89	129
90	50
91	879
92	179
93	50
98	10
101	10
102	99
103	559
104	279
105	9999
106	899
107	40
115	209
116	50
117	229
118	70
119	329
120	2869
121	299
122	10
