Mass Spectrum: 1-Propanol, 3-(diethylamino)-
Formula: C7 H17 N O
CAS: 622-93-5
Molecular weight: 131
Origin: Japan AIST/NIMC Database- Spectrum MS-NW-3415
m/z	RELATIVE INTENSITY
15	139
18	40
26	109
27	599
28	569
29	879
30	1209
31	839
32	10
38	10
39	129
40	50
41	359
42	1129
43	169
44	829
45	149
52	20
53	10
54	129
55	70
56	679
57	299
58	2399
59	109
67	10
68	30
69	10
70	159
71	109
72	3529
73	279
74	10
82	10
84	159
85	70
86	9999
87	609
88	30
98	80
99	20
100	80
101	10
102	20
112	70
113	40
114	60
115	20
116	519
117	30
130	129
131	779
132	70
