Mass Spectrum: Benzene, 1,1'-(oxybis(2,1-ethanediyloxy))bis-
Formula: C16 H18 O3
CAS: 622-87-7
Molecular weight: 258
Origin: Japan AIST/NIMC Database- Spectrum MS-IW-1364
m/z	RELATIVE INTENSITY
15	10
27	60
28	30
29	30
31	10
38	30
39	259
40	30
41	30
42	10
43	179
44	20
45	139
50	60
51	409
52	30
53	20
55	50
62	10
63	80
64	50
65	659
66	159
67	10
70	80
71	90
73	80
74	20
75	20
76	70
77	4119
78	329
79	219
80	10
86	20
89	10
91	789
92	129
93	1789
94	939
95	179
96	10
103	579
104	50
105	20
106	10
107	419
108	40
115	40
119	209
120	2019
121	8299
122	729
123	40
129	109
133	60
136	10
138	1139
139	109
140	10
141	50
147	40
151	169
152	30
164	2589
165	3309
166	359
167	30
168	10
169	10
170	10
258	9999
259	1799
260	209
261	20
