Mass Spectrum: Benzenamine, N,N'-methanetetraylbis-
Formula: C13 H10 N2
CAS: 622-16-2
Molecular weight: 194
Origin: D.HENNEBERG, MAX-PLANCK INSTITUTE, MULHEIM, WEST GERMANY
m/z	RELATIVE INTENSITY
27	324
28	403
29	17
32	68
34	12
36	20
37	117
38	310
39	757
40	196
41	122
43	19
44	102
45	17
49	37
50	622
51	2665
52	310
53	38
54	10
56	17
57	13
61	55
62	129
63	493
64	893
65	562
66	293
67	18
73	29
74	166
75	182
76	458
77	3862
78	283
79	20
87	13
88	41
89	31
90	229
91	2317
92	192
93	18
97	291
99	11
101	11
102	32
103	518
104	413
105	112
115	34
116	20
117	144
118	336
119	449
120	34
127	13
128	31
129	45
139	22
140	41
141	39
142	19
143	41
144	8
151	18
152	29
153	18
154	39
155	10
160	18
164	12
165	14
166	151
167	129
168	92
169	13
178	10
179	16
191	23
192	145
193	438
194	9999
195	1469
196	113
197	8
