Mass Spectrum: Benzene, 1-butynyl-
Formula: C10 H10
CAS: 622-76-4
Molecular weight: 130
Origin: NIST Mass Spectrometry Data Center, 1990.
m/z	RELATIVE INTENSITY
15	253
18	37
25	25
26	213
27	627
28	64
37	186
38	377
39	1297
40	101
41	80
43	40
44	21
49	160
50	1222
51	1973
52	441
53	141
55	27
57	106
61	364
62	981
63	2106
64	999
65	693
66	41
72	20
73	160
74	944
75	796
76	674
77	978
78	299
79	36
84	31
85	168
86	407
87	522
88	369
89	1245
90	119
91	167
97	54
98	226
99	103
100	49
101	206
102	897
103	269
104	39
109	32
110	42
111	25
113	355
115	9999
116	934
117	48
126	344
127	1457
128	2947
129	5150
130	5994
131	579
132	35
