Mass Spectrum: Pyridine, 2-propyl-
Formula: C8 H11 N
CAS: 622-39-9
Molecular weight: 121
Origin: Japan AIST/NIMC Database- Spectrum MS-NW-3124
m/z	RELATIVE INTENSITY
15	20
26	99
27	389
28	90
29	80
37	50
38	129
39	739
40	109
41	189
42	40
43	10
46	10
49	20
50	229
51	599
52	529
53	239
54	70
58	90
59	20
61	30
62	60
63	179
64	109
65	789
66	489
67	109
68	20
74	10
75	20
76	40
77	179
78	729
79	869
80	249
81	10
89	20
90	20
91	99
92	759
93	9999
94	739
95	20
103	10
104	90
105	20
106	2719
107	269
108	10
117	119
118	169
119	40
120	1239
121	299
122	20
