Mass Spectrum: 4-Chlorobenzyl bromide
Formula: C7 H6 Br Cl
CAS: 622-95-7
Molecular weight: 204
Origin: NIST Mass Spectrometry Data Center
m/z	RELATIVE INTENSITY
13	20
15	20
17	10
18	20
25	20
26	250
27	210
28	60
35	60
36	50
37	330
38	500
39	941
40	80
43	210
44	510
47	50
48	40
49	230
50	811
51	671
52	90
60	110
61	450
62	941
63	1902
64	370
65	150
72	80
73	520
74	190
75	270
76	40
77	30
79	270
80	60
81	280
82	40
84	410
85	500
86	210
87	200
89	2923
90	791
91	110
95	10
97	80
99	851
100	50
101	250
102	70
103	90
104	40
123	50
125	9999
126	921
127	3303
128	270
143	20
204	490
205	60
206	651
207	70
208	140
