Mass Spectrum: Benzene, (2-chloroethenyl)-
Formula: C8 H7 Cl
CAS: 622-25-3
Molecular weight: 138
Origin: NIST Mass Spectrometry Data Center, 1994
m/z	RELATIVE INTENSITY
12	8
13	28
14	25
15	98
25	63
26	477
27	515
28	19
32	13
35	123
36	123
37	473
38	754
39	1027
40	59
41	11
43	19
44	19
46	11
47	58
48	89
49	489
50	2603
51	4261
52	551
53	83
55	9
60	123
61	442
62	664
63	1133
64	100
65	39
68	104
69	325
70	103
73	455
74	1154
75	1322
76	1114
77	4125
78	771
79	43
84	68
85	114
86	150
87	220
88	46
89	79
96	15
97	89
98	171
99	97
100	15
101	522
102	1958
103	9999
104	841
105	36
108	14
109	12
110	19
112	189
113	12
114	51
123	15
136	48
138	5866
139	596
140	1985
141	159
