Mass Spectrum: Phenol, 4-ethoxy-
Formula: C8 H10 O2
CAS: 622-62-8
Molecular weight: 138
Origin: NIST Mass Spectrometry Data Center, 1990.
m/z	RELATIVE INTENSITY
26	296
27	796
28	187
29	442
37	55
38	167
39	678
40	51
41	45
42	87
43	90
50	268
51	420
52	417
53	1662
54	1088
55	756
56	58
61	108
62	249
63	511
64	234
65	580
66	121
67	67
69	117
74	63
77	66
79	110
81	2994
82	1764
83	101
92	46
93	118
95	99
109	1946
110	9999
111	642
112	64
138	3337
139	295
