Mass Spectrum: Benzene, (2-chloroethyl)-
Formula: C8 H9 Cl
CAS: 622-24-2
Molecular weight: 140
Origin: NIST Mass Spectrometry Data Center, 1994
m/z	RELATIVE INTENSITY
13	19
14	44
15	90
26	357
27	807
35	82
36	57
37	184
38	365
39	1079
40	81
41	113
43	9
47	31
49	796
50	1000
51	1825
52	376
53	99
60	23
61	130
62	286
63	645
64	23
65	1222
66	81
73	89
74	347
75	232
76	222
77	1068
78	614
79	273
80	20
84	8
85	26
86	40
87	41
89	303
91	9999
92	767
93	24
97	11
98	24
99	14
101	38
102	170
103	578
104	335
105	290
106	34
140	1881
141	199
142	583
143	51
