Mass Spectrum: 4-Morpholineethanol
Formula: C6 H13 N O2
CAS: 622-40-2
Molecular weight: 131
Origin: Japan AIST/NIMC Database- Spectrum MS-NW-1232
m/z	RELATIVE INTENSITY
14	20
15	579
18	10
26	90
27	519
28	789
29	459
30	479
31	199
32	10
39	40
40	50
41	419
42	3539
43	349
44	249
45	379
52	20
54	169
55	139
56	2259
57	329
58	199
59	10
68	40
69	20
70	499
71	70
72	199
73	259
74	40
82	20
83	10
84	30
85	60
86	119
87	20
98	60
99	20
100	9999
101	599
102	60
112	20
113	20
114	10
130	80
131	369
132	30
