Mass Spectrum: Methanamine, N-(phenylmethylene)-
Formula: C8 H9 N
CAS: 622-29-7
Molecular weight: 119
Origin: RADIAN CORP
m/z	RELATIVE INTENSITY
32	150
37	340
38	510
39	1150
40	330
41	1000
42	4610
43	220
49	210
50	1120
51	2190
52	550
59	260
60	10
61	170
62	390
63	870
64	250
65	640
66	100
73	110
74	140
75	190
76	510
77	3130
78	1570
79	150
85	10
86	160
87	110
89	580
90	320
91	1930
92	250
102	40
103	200
104	80
116	160
117	290
118	9999
119	5260
120	690
