Mass Spectrum: Benzene, (azidomethyl)-
Formula: C7 H7 N3
CAS: 622-79-7
Molecular weight: 133
Origin: ALPHA Chemicals / NIST MS Data Center.
m/z	RELATIVE INTENSITY
13	24
14	133
15	41
16	15
17	26
18	44
25	52
26	355
27	694
28	2258
29	47
32	56
36	44
37	444
38	842
39	1838
40	116
41	176
42	96
43	83
44	34
46	76
48	55
49	434
50	2918
51	4761
52	1999
53	139
54	24
60	39
61	258
62	470
63	933
64	268
65	1409
66	77
72	29
73	215
74	772
75	642
76	1150
77	7588
78	3197
79	246
80	17
84	10
85	49
86	88
87	46
88	10
89	388
90	10
91	9999
92	737
93	32
99	34
100	18
104	7246
105	2405
106	191
107	18
133	2722
134	247
135	13
