Mass Spectrum: Benzene, (isothiocyanatomethyl)-
Formula: C8 H7 N S
CAS: 622-78-6
Molecular weight: 149
Origin: Japan AIST/NIMC Database- Spectrum MS-IW-1565
m/z	RELATIVE INTENSITY
26	20
27	60
32	10
37	40
38	109
39	569
40	40
41	129
43	10
44	50
45	90
46	10
49	20
50	239
51	429
52	99
53	10
58	30
59	10
60	20
61	60
62	139
63	419
64	129
65	1359
66	80
69	20
70	30
71	30
72	70
73	30
74	70
75	60
76	60
77	169
78	50
79	10
85	10
86	30
87	20
88	20
89	409
90	209
91	9999
92	839
93	30
94	10
96	10
103	30
104	80
105	50
106	10
116	70
117	70
120	10
121	109
122	10
132	40
133	90
134	10
148	30
149	1859
150	189
151	90
152	10
