Mass Spectrum: Benzaldehyde, oxime, (E)-
Formula: C7 H7 N O
CAS: 622-31-1
Molecular weight: 121
Origin: E.M.EMERY COLGATE-PALMOLIVE CO., PISCATAWAY, N.J., USA
m/z	RELATIVE INTENSITY
28	190
29	160
30	310
31	70
36	110
37	970
38	1310
39	2410
40	680
41	140
43	140
44	240
48	70
49	570
50	4360
51	6660
52	1300
53	190
54	120
55	290
60	100
61	340
62	630
63	1280
64	560
65	1710
66	2550
67	620
68	90
73	250
74	920
75	1180
76	3680
77	6890
78	7000
79	500
85	60
86	90
87	80
88	80
89	820
90	350
91	290
92	660
93	820
94	3260
95	270
99	140
100	70
102	530
103	8620
104	2630
105	1290
106	260
119	150
120	1710
121	9999
122	880
123	50
