Mass Spectrum: Hydroxylamine, O-(phenylmethyl)-
Formula: C7 H9 N O
CAS: 622-33-3
Molecular weight: 123
Origin: Japan AIST/NIMC Database- Spectrum MS-NW-2091
m/z	RELATIVE INTENSITY
16	70
17	20
18	50
26	20
27	90
28	70
29	70
30	20
32	60
39	439
40	20
41	99
49	20
50	259
51	559
52	129
53	30
61	20
62	60
63	179
64	50
65	1229
66	80
73	10
74	60
75	40
76	40
77	759
78	139
79	139
80	10
89	139
90	80
91	9999
92	759
93	60
103	10
104	10
105	329
106	249
107	99
108	129
109	10
123	80
