Mass Spectrum: Benzene, propoxy-
Formula: C9 H12 O
CAS: 622-85-5
Molecular weight: 136
m/z	RELATIVE INTENSITY
15	20
26	20
27	380
28	30
29	50
30	10
31	10
32	10
37	20
38	90
39	581
40	140
41	480
42	30
43	410
44	10
49	10
50	130
51	460
52	40
53	30
54	10
55	110
56	10
57	10
60	10
61	10
62	30
63	120
64	50
65	430
66	591
67	40
68	20
73	10
74	40
75	30
76	40
77	721
78	80
79	80
80	10
89	10
90	10
91	50
92	10
93	70
94	9999
95	681
96	40
103	10
105	10
106	10
107	190
108	30
109	10
115	10
116	10
117	10
119	10
120	10
121	20
133	10
134	20
135	20
136	2502
137	250
138	20
