Mass Spectrum: Methanimidamide, N,N'-diphenyl-
Formula: C13 H12 N2
CAS: 622-15-1
Molecular weight: 196
Origin: Japan AIST/NIMC Database- Spectrum MS-NW-2920
m/z	RELATIVE INTENSITY
26	10
27	80
28	99
37	20
38	60
39	269
40	50
41	40
42	10
50	169
51	839
52	119
53	20
54	30
62	20
63	80
64	70
65	399
66	629
67	60
74	40
75	40
76	80
77	2149
78	199
83	20
84	20
90	10
91	50
92	339
93	9999
94	679
95	20
98	99
103	20
104	949
105	80
115	10
118	20
119	40
121	20
166	10
167	50
168	20
169	20
193	10
194	40
195	1099
196	3899
197	569
198	40
