Mass Spectrum: Ethanol, 2-(phenylmethoxy)-
Formula: C9 H12 O2
CAS: 622-08-2
Molecular weight: 152
Origin: Japan AIST/NIMC Database- Spectrum MS-NW-6069
m/z	RELATIVE INTENSITY
14	10
15	70
17	10
18	40
19	20
26	30
27	229
28	159
29	199
30	30
31	369
32	20
33	20
37	20
38	70
39	539
40	40
41	149
42	20
43	119
44	60
45	499
46	20
49	10
50	149
51	409
52	119
53	40
58	10
59	20
61	60
62	70
63	239
64	90
65	1049
66	60
73	10
74	30
75	60
76	40
77	449
78	129
79	619
80	50
86	10
87	10
89	289
90	189
91	9999
92	2449
93	159
94	10
103	10
104	50
105	239
106	149
107	2339
108	239
109	20
119	10
121	30
122	10
123	10
133	20
134	10
149	10
151	149
152	1439
153	149
154	20
