Mass Spectrum: 2(1H)Pyrimidinone,4-amino-1,N-dimethyl-
Formula: C6 H9 N3 O
CAS: 6220-49-1
Molecular weight: 139
Origin: A.Plaziak ET AL. Org.Mass Spectrom.,26,849 (1991)
m/z	RELATIVE INTENSITY
51	230
52	781
53	500
54	901
55	2032
56	2002
57	190
66	540
67	230
68	661
69	430
70	270
79	190
80	430
81	1411
82	1641
83	1371
95	1451
96	390
97	3373
98	230
109	2002
110	1411
111	190
124	581
138	661
139	9999
140	540
