Mass Spectrum: 1-Dodecanol, TMS derivative
Formula: C15 H34 O Si
CAS: 6221-88-1
Molecular weight: 258
Origin: NIST Mass Spectrometry Data Center
m/z	RELATIVE INTENSITY
15	10
26	10
27	130
28	40
29	350
30	10
31	10
39	130
40	30
41	861
42	160
43	951
44	80
45	300
46	20
47	180
48	10
49	10
51	10
53	70
54	80
55	861
56	190
57	520
58	150
59	380
60	70
61	490
62	30
63	20
65	10
66	10
67	180
68	110
69	1131
70	210
71	260
72	130
73	2632
74	300
75	5175
76	390
77	270
78	20
79	40
80	10
81	140
82	120
83	1291
84	170
85	350
86	40
87	190
88	90
89	1241
90	120
91	360
92	30
93	20
95	90
96	60
97	1341
98	160
99	270
100	40
101	711
102	90
103	2172
104	220
105	90
106	10
107	10
109	50
110	30
111	611
112	90
113	120
114	20
115	450
116	60
117	50
118	10
123	20
124	10
125	100
126	20
127	60
128	10
129	240
130	30
131	60
132	10
139	20
140	50
141	30
143	100
144	10
145	30
155	10
157	110
158	20
159	20
168	60
169	10
171	130
172	20
173	10
185	90
186	10
187	10
199	10
215	10
227	50
228	10
241	30
243	9999
244	2292
245	601
246	70
247	10
257	10
258	20
