Mass Spectrum: 1-Hexadecanol, TMS derivative
Formula: C19 H42 O Si
CAS: 6221-90-5
Molecular weight: 314
Origin: O A MAMER, MCGILL UNIVERSITY, MONTREAL, k
m/z	RELATIVE INTENSITY
17	41
26	52
27	269
39	169
40	42
41	1473
42	304
43	2122
44	89
45	276
47	180
53	84
54	149
55	1356
56	312
57	1304
58	148
59	415
60	61
61	666
62	47
67	279
68	191
69	1194
70	227
71	605
72	124
73	2657
74	281
75	5227
76	394
77	277
79	51
81	212
82	193
83	1327
84	176
85	397
87	135
88	80
89	1054
90	110
91	421
92	40
95	150
96	94
97	1061
98	139
99	191
101	459
102	65
103	1819
104	182
105	81
109	68
111	489
112	80
113	99
115	309
116	46
117	46
125	165
127	51
129	201
131	53
139	54
143	80
157	53
171	53
185	53
196	39
199	55
213	79
227	72
241	44
283	100
299	9999
300	2646
301	691
302	109
314	42
