Mass Spectrum: Butyric acid, tetradecyl ester
Formula: C18 H36 O2
CAS: 6221-98-3
Molecular weight: 284
Origin: V.G.Zaikin, Petrochem. Synth. Inst., Moscow
m/z	RELATIVE INTENSITY
26	110
27	1481
28	490
29	2052
30	90
31	110
36	50
38	90
39	761
40	180
41	4624
42	1661
43	9158
44	420
45	130
51	50
53	280
54	711
55	4614
56	3193
57	4594
58	290
60	490
61	130
66	70
67	751
68	1271
69	3833
70	3153
71	8998
72	450
73	220
75	40
79	50
81	450
82	1431
83	3914
84	2082
85	1251
86	210
87	120
88	1121
89	9999
90	490
91	50
95	110
96	611
97	2783
98	1311
99	350
101	120
102	10
109	40
110	290
111	1471
112	781
113	150
115	80
124	140
125	550
126	611
127	80
129	60
138	60
139	270
140	290
144	390
145	30
153	110
154	160
167	50
168	681
169	80
196	791
197	160
241	190
