Mass Spectrum: Butyric acid, hexadecyl ester
Formula: C20 H40 O2
CAS: 6221-99-4
Molecular weight: 312
Origin: V.G.Zaikin, Petrochem. Synth. Inst., Moscow
m/z	RELATIVE INTENSITY
26	140
27	1121
28	390
29	1782
31	90
39	681
40	160
41	4224
42	1291
43	8458
44	310
45	60
51	40
53	190
54	691
55	4494
56	2622
57	4614
58	290
60	440
61	130
66	60
67	761
68	1111
69	3483
70	2492
71	7637
72	390
73	190
81	390
82	1511
83	3663
84	1782
85	1451
86	180
87	130
88	1191
89	9999
90	480
91	50
95	180
96	691
97	2863
98	1031
99	350
101	90
109	80
110	240
111	1321
112	681
113	150
124	130
125	711
126	510
127	90
129	50
138	90
139	290
140	310
141	70
144	350
145	40
151	40
152	110
153	190
154	40
167	90
168	190
169	30
182	80
196	450
197	90
224	530
225	110
269	120
270	20
