Mass Spectrum: Cyclohexyl propionate
Formula: C9 H16 O2
CAS: 6222-35-1
Molecular weight: 156
Origin: Japan AIST/NIMC Database- Spectrum MS-NW-3644
m/z	RELATIVE INTENSITY
14	10
15	90
17	10
18	30
26	149
27	1329
28	349
29	4049
30	109
31	70
37	10
38	40
39	819
40	129
41	1899
42	279
43	279
44	179
45	50
50	40
51	90
52	50
53	259
54	1529
55	2559
56	319
57	9999
58	399
59	30
63	10
65	60
66	80
67	4419
68	259
69	40
70	40
71	60
72	499
73	119
74	249
75	2259
76	90
77	70
78	20
79	109
80	40
81	1029
82	6039
83	2619
84	189
85	90
86	20
91	10
97	20
98	30
99	379
100	109
101	10
109	30
113	219
114	20
127	189
128	20
