Mass Spectrum: Pentafluoropropionic acid, tetradecyl ester
Formula: C17 H29 F5 O2
CAS: 6222-06-6
Molecular weight: 360
Origin: NIST Mass Spectrometry Data Center
m/z	RELATIVE INTENSITY
15	10
26	40
27	621
28	200
29	1752
30	50
33	20
37	10
39	911
40	250
41	6626
42	1772
43	8858
44	260
47	30
50	30
51	50
52	30
53	571
54	1091
55	9969
56	4344
57	9999
58	450
59	30
61	20
63	10
65	110
66	140
67	1631
68	1982
69	8748
70	4704
71	5155
72	280
77	80
78	40
79	200
80	70
81	941
82	3894
83	8348
84	3623
85	3173
86	210
87	10
89	10
91	30
93	40
94	20
95	420
96	1702
97	7647
98	2442
99	721
100	230
101	10
103	10
107	10
108	10
109	160
110	801
111	4334
112	1722
113	410
114	30
117	20
119	2662
120	60
122	10
123	50
124	430
125	1892
126	1001
127	260
128	70
137	20
138	230
139	561
140	561
141	150
142	10
145	10
147	360
148	10
149	100
152	100
153	230
154	240
155	60
156	10
163	10
165	40
166	50
167	100
168	781
169	110
170	10
177	40
188	10
191	10
193	10
194	20
196	791
197	120
198	10
202	10
205	20
223	20
241	230
242	40
243	10
342	60
343	10
