Mass Spectrum: 4-Heptenal
Formula: C7 H12 O
CAS: 62238-34-0
Molecular weight: 112
Origin: D.HENNEBERG, MAX-PLANCK INSTITUTE, MULHEIM, WEST GERMANY
m/z	RELATIVE INTENSITY
25	22
26	229
27	2316
28	788
29	2520
30	79
31	76
37	81
38	168
39	2661
40	673
41	3664
42	1205
43	501
44	153
45	38
49	16
50	180
51	306
52	159
53	1588
54	378
55	3978
56	852
57	463
58	75
61	10
62	29
63	68
64	15
65	172
66	496
67	4340
68	9999
69	1014
70	195
71	39
74	13
75	12
77	169
78	41
79	429
80	39
81	120
82	26
83	333
84	559
85	30
91	52
92	15
93	33
94	692
95	68
96	5
97	152
98	4
110	2
111	6
112	146
113	6
