Mass Spectrum: 2-Propanone, methyl-2-propenylhydrazone
Formula: C7 H14 N2
CAS: 62237-76-7
Molecular weight: 126
Origin: ATLAS OF MASS SPECTRA OF ORGANIC COMPOUNDS, V. A. KOPTYUG, ED.
m/z	RELATIVE INTENSITY
29	830
30	940
39	2540
40	620
41	4610
42	5930
43	1650
44	3520
54	320
55	2300
56	9999
57	570
58	510
68	830
69	310
70	1040
71	240
83	3100
84	500
85	5530
86	340
99	2010
111	360
125	310
126	4460
127	460
