Mass Spectrum: Decane, 2,3,4-trimethyl-
Formula: C13 H28
CAS: 62238-15-7
Molecular weight: 184
Origin: D.HENNEBERG, MAX-PLANCK INSTITUTE, MULHEIM, WEST GERMANY
m/z	RELATIVE INTENSITY
22	31
26	171
27	984
28	44
29	1536
33	50
36	21
38	39
39	597
40	20
41	2817
42	835
43	9999
46	35
49	21
53	192
54	85
55	1742
56	875
57	9411
58	480
65	49
67	109
68	2
69	622
70	5324
71	9838
72	570
79	36
81	76
83	460
84	323
85	3048
86	178
88	21
97	110
98	123
99	703
110	25
111	431
112	343
113	142
140	386
141	859
142	138
170	8
