Mass Spectrum: Decane, 2,3,5-trimethyl-
Formula: C13 H28
CAS: 62238-11-3
Molecular weight: 184
Origin: D.HENNEBERG, MAX-PLANCK INSTITUTE, MULHEIM, WEST GERMANY
m/z	RELATIVE INTENSITY
22	23
25	18
26	112
27	532
29	1138
30	8
36	45
37	14
38	43
39	407
40	22
41	2336
42	629
43	6733
51	3
53	97
54	21
55	1169
56	728
57	9999
58	451
66	13
67	105
68	83
69	591
70	1271
71	5920
72	295
77	6
81	2
83	155
84	625
85	3947
86	247
92	3
97	295
98	454
99	795
100	33
111	18
112	74
113	150
140	421
141	1319
142	100
169	21
