Mass Spectrum: 9-Fluorenone-4-carboxylic acid
Formula: C14 H8 O3
CAS: 6223-83-2
Molecular weight: 224
Origin: NIST Mass Spectrometry Data Center, 1994
m/z	RELATIVE INTENSITY
4	19
14	70
28	77
39	126
45	89
50	187
51	166
61	80
62	197
63	304
69	198
70	293
73	62
74	335
75	766
77	139
84	459
85	54
86	154
87	202
88	102
89	109
98	290
99	235
100	79
101	105
111	62
112	188
113	134
114	91
122	80
124	58
125	182
126	71
139	958
140	266
149	206
150	1421
151	1797
152	451
153	67
167	114
168	768
169	127
178	318
179	1851
180	374
195	151
196	649
197	99
206	991
207	2190
208	333
224	9999
225	1547
226	110
227	4
