Mass Spectrum: Decane, 2,2,8-trimethyl-
Formula: C13 H28
CAS: 62238-01-1
Molecular weight: 184
Origin: D.HENNEBERG, MAX-PLANCK INSTITUTE, MULHEIM, WEST GERMANY
m/z	RELATIVE INTENSITY
25	3
26	16
27	268
29	927
30	42
33	5
37	5
38	8
39	206
40	33
41	1519
42	159
43	1459
51	77
53	62
54	31
55	494
56	4469
57	9999
58	389
59	6
67	31
68	14
69	179
70	169
71	1191
72	57
79	8
80	3
83	483
84	23
85	579
86	29
95	1
96	29
97	83
98	16
99	212
100	13
113	113
114	3
126	190
127	214
128	12
168	2
169	103
170	14
