Mass Spectrum: Cyclopropane, 1-hexyl-2-methyl-
Formula: C10 H20
CAS: 62238-09-9
Molecular weight: 140
Origin: D.HENNEBERG, MAX-PLANCK INSTITUTE, MULHEIM, WEST GERMANY
m/z	RELATIVE INTENSITY
25	26
26	117
27	2008
28	249
29	2903
30	93
32	26
33	2
34	1
37	28
38	47
39	1749
40	348
41	7690
42	3893
43	5668
44	97
49	2
50	59
51	116
52	54
53	620
54	914
55	8128
56	9999
57	2901
58	75
63	17
65	80
66	63
67	704
68	592
69	5192
70	5094
71	634
72	15
77	52
78	7
79	48
80	4
81	135
82	369
83	1448
84	1297
85	308
86	7
91	8
95	16
96	219
97	1283
98	789
99	50
110	60
111	649
112	412
113	20
125	23
140	508
141	33
