Mass Spectrum: Phosphine, tris(3-methylphenyl)-
Formula: C21 H21 P
CAS: 6224-63-1
Molecular weight: 304
Origin: Japan AIST/NIMC Database- Spectrum MS-IW-3859
m/z	RELATIVE INTENSITY
27	30
38	10
39	219
40	20
41	70
45	10
50	20
51	99
52	20
53	40
57	50
62	20
63	119
64	30
65	309
66	20
68	10
69	50
70	20
71	20
75	10
76	20
77	249
78	899
79	90
80	10
81	30
83	10
87	10
89	109
90	30
91	239
92	109
93	20
94	10
95	99
96	20
97	10
102	20
103	10
105	40
107	109
108	10
109	10
115	109
116	20
120	50
121	199
122	1359
123	109
126	10
127	20
128	70
129	40
133	90
134	10
135	10
139	30
141	40
142	10
143	10
144	10
145	20
146	20
147	50
151	30
152	259
153	60
154	10
155	10
157	30
163	10
164	20
165	599
166	179
167	80
168	30
169	20
170	90
171	50
172	10
173	20
176	10
177	10
178	149
179	239
180	139
181	299
182	159
183	559
184	80
185	10
194	70
195	90
196	419
197	919
198	179
199	20
207	50
208	20
209	60
210	99
211	1379
212	389
213	449
214	70
215	10
239	10
257	10
270	10
271	10
272	10
273	20
287	20
288	10
289	109
290	20
303	1459
304	9999
305	2279
306	249
307	10
