Mass Spectrum: 2-Methylthianaphthene-1,1 dioxide
Formula: C9 H8 O2 S
CAS: 6224-55-1
Molecular weight: 180
Origin: B.F. PLUMMER, TRINITY UNIV., SAN ANTONIO, TEXAS,f
m/z	RELATIVE INTENSITY
50	950
51	1278
52	226
53	101
55	135
57	429
58	282
59	158
61	248
62	972
63	2171
64	407
65	1414
66	180
69	475
71	101
73	147
74	678
75	712
76	384
77	803
78	316
82	113
85	147
86	316
87	475
88	395
89	1617
90	237
91	610
93	113
102	169
103	373
104	463
108	520
109	5316
110	565
111	294
113	282
114	384
115	3325
116	361
121	328
131	2138
132	1040
133	124
134	203
135	554
136	588
137	9999
138	1334
139	520
147	248
179	135
180	3235
181	367
182	169
