Mass Spectrum: Iron, (.eta.4-1,3-butadiene)carbonyl[(2,3,4,5-.eta.)-diethyl 2,4-hexadienedioate]-, stereoisomer
Formula: C15 H20 Fe O5
CAS: 62278-90-4
Molecular weight: 336
Origin: D.HENNEBERG, MAX-PLANCK INSTITUTE, MULHEIM, WEST GERMANY
m/z	RELATIVE INTENSITY
26	1044
27	3416
28	6819
29	3807
30	101
31	488
32	150
33	6
34	8
35	8
36	12
37	108
38	139
39	2348
40	148
41	844
42	136
43	427
44	331
45	391
46	105
47	4
48	18
49	127
50	659
51	1454
52	2189
53	1930
54	1438
55	525
56	4795
57	1558
58	46
59	7
61	7
63	20
64	31
65	34
66	38
67	38
68	137
69	575
70	92
71	1337
72	61
73	2231
74	108
76	12
77	71
78	38
79	1794
80	2988
82	1147
83	1205
84	282
85	30
86	70
87	41
88	12
89	16
90	90
91	27
92	39
93	41
94	94
95	234
96	182
97	3355
98	320
99	745
100	704
101	2222
102	190
103	88
104	26
105	109
106	290
107	907
108	2500
109	2735
110	4849
111	540
112	88
113	56
114	31
115	52
116	12
117	280
118	20
119	48
120	58
121	125
122	82
123	536
124	371
125	1630
126	467
127	398
128	114
130	136
131	83
132	28
133	84
134	158
135	973
136	904
137	1221
138	2976
139	308
140	110
141	141
142	71
144	28
145	54
147	116
148	82
149	114
150	117
151	475
152	967
153	2197
154	2789
155	349
156	83
157	23
158	34
159	12
160	17
161	17
162	142
163	97
164	1539
165	796
166	192
167	65
168	16
169	146
170	127
171	47
172	25
173	12
174	21
175	10
176	16
177	20
178	139
179	208
180	1477
181	1112
182	9999
183	1012
184	123
185	14
187	7
189	18
190	19
191	21
192	29
193	19
194	6
195	45
196	25
197	107
198	230
199	43
200	23
201	123
202	86
203	8
204	16
206	299
207	257
208	5265
209	3632
210	1149
211	193
212	28
213	6
214	5
215	4
216	11
218	13
219	9
220	10
221	11
222	7
223	61
224	134
225	599
226	1539
227	180
228	22
232	3
233	10
234	13
235	87
236	108
237	54
238	29
239	303
240	28
241	3
244	6
245	8
246	4
247	10
248	10
249	17
251	65
252	534
253	358
254	7367
255	957
256	140
257	8
261	40
262	15
263	477
264	79
265	5
267	4
277	16
279	219
280	37
283	16
289	42
290	6
291	624
292	86
293	33
294	5
303	4
306	281
307	79
308	4909
309	863
310	117
311	6
334	41
335	6
336	576
337	118
