Mass Spectrum: Cyclopropanecarboxamide
Formula: C4 H7 N O
CAS: 6228-73-5
Molecular weight: 85
Origin: NIST Mass Spectrometry Data Center, 1994
m/z	RELATIVE INTENSITY
12	90
13	146
14	592
15	664
16	941
17	210
18	116
25	238
26	1196
27	2029
28	2656
29	411
30	445
32	227
36	125
37	1142
38	1991
39	9004
40	1656
41	7250
42	4093
43	766
44	9999
45	219
46	50
50	70
51	131
52	258
53	241
54	501
55	513
56	457
57	58
59	90
64	40
65	32
66	95
67	113
68	800
69	2507
70	195
84	6113
85	793
86	35
