Mass Spectrum: Benzonitrile, 4-bromo-
Formula: C7 H4 Br N
CAS: 623-00-7
Molecular weight: 181
Origin: Japan AIST/NIMC Database- Spectrum MS-NW-6832
m/z	RELATIVE INTENSITY
12	10
24	10
25	40
26	109
27	239
28	99
29	10
31	70
36	80
37	439
38	439
39	199
40	10
43	20
45	40
46	10
48	80
49	369
50	1939
51	1599
52	289
53	10
55	10
57	10
60	70
61	169
62	219
63	139
64	99
65	10
72	50
73	259
74	819
75	2339
76	1189
77	99
78	50
79	90
80	50
81	80
82	40
84	20
85	40
86	40
87	40
88	20
90	319
91	319
92	30
93	10
98	40
99	299
100	279
101	219
102	9999
103	829
104	40
105	10
106	40
107	10
116	20
117	40
118	20
119	30
128	20
129	20
130	20
131	20
132	10
137	20
142	10
153	20
154	10
155	30
156	10
157	10
180	20
181	8989
182	739
183	8629
184	699
185	30
