Mass Spectrum: Carbonic acid, ethyl-, methyl ester
Formula: C4 H8 O3
CAS: 623-53-0
Molecular weight: 104
Origin: Japan AIST/NIMC Database- Spectrum MS-IW-2906
m/z	RELATIVE INTENSITY
13	10
14	99
15	1929
16	50
18	10
25	20
26	339
27	2189
28	1639
29	7889
30	379
31	5869
32	179
33	739
34	10
39	10
40	10
41	159
42	90
43	589
44	279
45	9999
46	429
47	189
55	10
56	20
57	20
58	30
59	3069
60	229
61	149
62	99
63	859
64	10
65	10
73	40
74	20
75	109
76	169
77	3999
78	90
79	30
89	50
103	10
104	30
105	10
