Mass Spectrum: 2-Pentenal, 2-methyl-
Formula: C6 H10 O
CAS: 623-36-9
Molecular weight: 98
m/z	RELATIVE INTENSITY
15	130
25	10
26	230
27	2472
28	460
29	2722
30	60
31	210
32	30
35	20
36	170
37	160
38	370
39	3063
40	400
41	9999
42	1091
43	1792
44	100
45	210
49	50
50	280
51	400
52	160
53	390
54	320
55	2752
56	641
57	310
58	310
59	30
60	20
61	70
62	120
63	150
64	20
65	260
66	70
67	611
68	110
69	4704
70	460
71	320
72	20
73	80
74	290
75	10
77	140
78	20
79	661
80	90
81	100
82	40
83	1962
84	130
85	60
86	10
87	40
95	40
96	20
97	861
98	7637
99	621
100	50
