Mass Spectrum: 2-Propenal, 3-(2-furanyl)-
Formula: C7 H6 O2
CAS: 623-30-3
Molecular weight: 122
Origin: NIST Mass Spectrometry Data Center, 1998.
m/z	RELATIVE INTENSITY
14	20
15	10
25	60
26	340
27	480
28	10
29	1320
30	20
31	80
32	40
36	80
37	880
38	1840
39	7219
40	1940
41	180
42	230
43	40
44	10
46	30
47	490
48	30
49	260
50	1030
51	1020
52	240
53	620
54	210
55	390
56	10
60	130
61	770
62	1490
63	3100
64	870
65	9999
66	8719
67	510
68	2530
69	120
73	90
74	250
75	100
76	50
77	120
78	50
79	120
80	10
81	300
82	40
91	10
92	290
93	910
94	8509
95	610
96	40
105	20
119	10
121	2610
122	9339
123	740
124	70
