Mass Spectrum: 1,4-Benzenedicarbonitrile
Formula: C8 H4 N2
CAS: 623-26-7
Molecular weight: 128
Origin: Japan AIST/NIMC Database- Spectrum MS-NW-1447
m/z	RELATIVE INTENSITY
12	10
25	10
26	159
27	70
28	40
36	40
37	349
38	169
39	139
48	30
49	149
50	1019
51	409
52	189
53	50
60	20
61	109
62	109
63	189
64	639
65	20
72	20
73	90
74	269
75	859
76	619
77	299
78	20
85	10
86	30
87	30
88	169
89	20
98	20
99	159
100	339
101	2069
102	299
103	10
113	10
127	50
128	9999
129	939
130	40
