Mass Spectrum: Ethyl diazoacetate
Formula: C4 H6 N2 O2
CAS: 623-73-4
Molecular weight: 114
Origin: NIST Mass Spectrometry Data Center, 1990.
m/z	RELATIVE INTENSITY
15	639
16	10
17	9
24	27
25	121
26	769
27	3110
28	2459
29	9999
30	891
31	239
37	32
38	49
39	201
40	246
41	2415
42	1469
43	788
44	246
45	392
46	38
54	55
55	52
56	56
57	340
58	300
69	3512
70	124
71	35
85	23
86	144
99	76
114	2597
115	128
