Mass Spectrum: Sulfurous acid, dipropyl ester
Formula: C6 H14 O3 S
CAS: 623-98-3
Molecular weight: 166
Origin: Japan AIST/NIMC Database- Spectrum MS-NW-5126
m/z	RELATIVE INTENSITY
14	10
15	60
26	60
27	969
28	179
29	399
30	50
31	479
32	20
38	20
39	249
40	60
41	1329
42	579
43	9999
44	309
45	179
48	60
49	10
50	30
55	169
56	30
57	60
58	30
59	369
60	40
61	179
64	60
65	20
66	30
69	10
73	749
74	40
76	20
78	50
83	379
85	30
87	70
94	109
95	109
96	10
107	90
108	10
109	10
124	50
125	349
126	20
127	20
136	10
137	60
151	10
