Mass Spectrum: Benzonitrile, 4-chloro-
Formula: C7 H4 Cl N
CAS: 623-03-0
Molecular weight: 137
Origin: MASS SPECTROMETRY CENTER, UNIV. OF UTAH; ALDRICH 11562-2
m/z	RELATIVE INTENSITY
26	129
27	227
28	122
29	17
36	46
37	344
38	286
39	143
43	48
45	258
46	104
48	33
49	285
50	1289
51	1131
52	193
55	135
56	13
60	158
61	176
62	203
63	136
64	118
69	545
70	185
72	93
73	384
74	536
75	1317
76	703
77	118
84	73
85	91
86	142
87	42
88	27
99	218
100	281
101	340
102	3300
103	314
109	14
110	299
111	106
112	98
136	177
137	9999
138	1039
139	3930
140	351
141	12
