Mass Spectrum: Carbonocyanidic acid, ethyl ester
Formula: C4 H5 N O2
CAS: 623-49-4
Molecular weight: 99
Origin: Japan AIST/NIMC Database- Spectrum MS-IW-4040
m/z	RELATIVE INTENSITY
12	20
13	20
14	129
15	419
16	20
25	20
26	669
27	2139
28	8479
29	7509
30	259
31	40
38	10
39	10
40	40
41	109
42	199
43	879
44	249
45	819
46	30
53	10
54	9999
55	469
56	70
70	109
72	649
73	20
84	5669
85	209
86	20
98	729
99	40
100	10
