Mass Spectrum: 1,2-Propanediol, 3-methoxy-
Formula: C4 H10 O3
CAS: 623-39-2
Molecular weight: 106
Origin: Japan AIST/NIMC Database- Spectrum MS-NW-2950
m/z	RELATIVE INTENSITY
14	99
15	2119
16	30
17	50
18	219
19	40
26	99
27	489
28	459
29	1379
30	139
31	2239
32	109
33	1079
34	50
38	20
39	60
40	20
41	80
42	269
43	4299
44	3289
45	9999
46	399
47	509
55	109
56	149
57	319
58	249
59	139
60	679
61	2149
62	50
63	199
71	109
72	30
73	60
74	419
75	3569
76	849
77	40
86	20
87	109
88	459
89	60
