Mass Spectrum: Benzene, 1-methyl-4-(methylthio)-
Formula: C8 H10 S
CAS: 623-13-2
Molecular weight: 138
Origin: NIST Mass Spectrometry Data Center
m/z	RELATIVE INTENSITY
14	10
15	100
26	20
27	90
37	30
38	90
39	561
40	40
41	70
45	1111
46	110
47	130
48	20
49	20
50	250
51	410
52	120
53	140
54	10
56	10
57	40
58	70
59	50
60	30
61	100
62	250
63	651
64	130
65	731
66	60
67	30
68	30
69	631
70	150
71	160
72	30
73	30
74	100
75	70
76	50
77	1121
78	550
79	1171
80	80
81	60
82	140
83	60
84	50
85	50
86	80
87	70
88	20
89	520
90	190
91	6266
92	1151
93	300
94	40
95	150
96	80
97	250
98	30
99	10
102	20
103	120
104	70
105	621
106	70
107	20
108	260
109	40
110	20
111	20
117	10
119	10
121	1211
122	751
123	3693
124	370
125	180
126	10
134	40
135	100
137	1962
138	9999
139	1311
140	621
141	50
