Mass Spectrum: 2-Propanol, 1,3-dimethoxy-
Formula: C5 H12 O3
CAS: 623-69-8
Molecular weight: 120
m/z	RELATIVE INTENSITY
14	50
15	951
16	30
17	190
18	791
19	60
26	30
27	220
28	320
29	931
30	80
31	761
32	80
33	330
36	60
38	30
39	90
40	20
41	200
42	160
43	2682
44	661
45	9999
46	340
47	270
48	10
49	20
51	10
53	10
54	10
55	50
56	50
57	240
58	250
59	360
60	230
61	110
62	40
63	20
64	20
68	10
69	10
70	50
71	1411
72	440
73	110
74	651
75	4064
76	180
77	220
78	10
79	130
81	50
85	20
86	20
87	100
88	731
89	140
90	20
91	30
93	10
99	20
100	10
101	170
102	601
103	110
104	10
105	10
115	20
116	20
117	190
118	30
119	30
