Mass Spectrum: Benzene, 1,4-bis(bromomethyl)-
Formula: C8 H8 Br2
CAS: 623-24-5
Molecular weight: 262
Origin: Japan AIST/NIMC Database- Spectrum MS-NW-1841
m/z	RELATIVE INTENSITY
15	10
25	10
26	159
27	409
36	10
37	129
38	389
39	1089
40	80
41	50
44	10
49	119
50	1269
51	2939
52	1089
53	179
54	20
60	10
61	119
62	379
63	859
64	169
65	239
66	30
73	60
74	399
75	359
76	449
77	1909
78	1549
79	149
80	70
81	149
82	80
85	30
86	50
87	80
88	20
89	179
90	40
91	209
92	189
93	20
95	20
97	10
98	50
99	20
101	60
102	569
103	1669
104	9999
105	939
106	40
117	10
119	10
139	40
141	20
169	10
171	10
182	259
183	4619
184	639
185	4669
186	419
187	20
261	90
262	199
263	179
264	379
265	109
266	189
267	10
