Mass Spectrum: 1,2,3-Propanetriol, 1,3-dinitrate
Formula: C3 H6 N2 O7
CAS: 623-87-0
Molecular weight: 182
Origin: MINISTRY OF TECH. E.R.D.E., WALTHAM ABBEY, UK
m/z	RELATIVE INTENSITY
12	30
13	40
14	80
15	320
16	60
17	210
18	740
19	70
20	30
25	20
26	190
27	510
28	1330
29	2140
30	5080
31	2790
32	820
39	180
41	220
42	290
43	2790
44	630
45	640
46	9999
47	50
55	170
57	160
58	640
60	630
61	300
73	290
76	720
