Mass Spectrum: Carbamic acid, ethyl-, ethyl ester
Formula: C5 H11 N O2
CAS: 623-78-9
Molecular weight: 117
Origin: Japan AIST/NIMC Database- Spectrum MS-NW-5811
m/z	RELATIVE INTENSITY
12	10
13	20
14	90
15	579
16	30
17	10
18	30
25	30
26	309
27	2279
28	1079
29	8069
30	9999
31	789
32	20
38	20
39	40
40	119
41	179
42	509
43	439
44	2969
45	1159
46	259
47	60
50	10
51	10
54	10
55	30
56	629
57	30
58	849
59	50
60	10
61	60
62	239
66	10
70	90
71	349
72	3589
73	319
74	1089
75	40
84	10
86	40
87	20
88	2799
89	1059
90	129
91	10
100	20
101	10
102	4109
103	219
104	30
105	10
115	10
116	80
117	1059
118	90
119	10
