Mass Spectrum: 2-Furanmethanol, propanoate
Formula: C8 H10 O3
CAS: 623-19-8
Molecular weight: 154
m/z	RELATIVE INTENSITY
14	60
15	100
17	60
18	240
25	40
26	340
27	1912
28	1131
29	3043
30	180
31	150
32	90
36	30
37	80
38	200
39	681
40	80
41	450
42	370
43	190
44	220
45	540
46	70
47	40
49	30
50	240
51	510
52	2642
53	2352
54	160
55	340
56	170
57	3823
58	150
59	50
63	30
66	30
67	50
68	80
69	310
70	270
71	50
73	470
74	751
75	220
77	20
79	90
80	1762
81	9999
82	591
83	140
84	50
85	40
87	30
94	30
95	300
96	120
97	971
98	5445
99	320
100	40
107	20
109	20
110	30
111	30
113	40
126	20
127	20
140	30
142	30
154	3863
155	350
156	40
