Mass Spectrum: Carbonodithioic acid, O,S-diethyl ester
Formula: C5 H10 O S2
CAS: 623-79-0
Molecular weight: 150
m/z	RELATIVE INTENSITY
26	562
27	2753
28	3202
29	9999
30	337
32	112
33	56
34	393
35	506
58	112
59	281
60	449
61	1348
62	1461
63	56
64	112
75	843
76	1123
77	955
78	449
79	225
89	955
93	169
94	449
105	393
106	674
107	112
122	1180
123	112
124	169
150	5337
151	393
152	562
