Mass Spectrum: 5-Nonanol
Formula: C9 H20 O
CAS: 623-93-8
Molecular weight: 144
Origin: NIST Mass Spectrometry Data Center, 1990.
m/z	RELATIVE INTENSITY
15	116
27	1456
28	406
29	1951
30	98
31	521
39	966
41	4089
42	497
43	1409
44	678
45	792
51	65
53	236
54	211
55	1432
56	612
57	1383
58	380
59	78
65	46
67	258
69	9999
70	876
71	137
81	39
82	54
83	176
84	141
85	149
86	538
87	4606
88	265
97	158
98	54
126	418
127	47
