Mass Spectrum: 3-Hexanol
Formula: C6 H14 O
CAS: 623-37-0
Molecular weight: 102
m/z	RELATIVE INTENSITY
14	10
15	100
17	10
18	60
19	110
26	80
27	1101
28	220
29	1051
30	90
31	3443
32	50
33	10
36	10
37	20
38	40
39	540
40	80
41	1982
42	300
43	2783
44	370
45	440
46	10
50	30
51	40
52	10
53	110
54	40
55	7887
56	520
57	771
58	921
59	9999
60	350
61	30
63	10
65	10
67	20
69	150
70	10
71	70
72	601
73	5175
74	240
75	20
77	10
83	30
84	130
85	120
101	80
102	10
