Mass Spectrum: 1-Acetyl-3-methylurea
Formula: C4 H8 N2 O2
CAS: 623-59-6
Molecular weight: 116
Origin: Japan AIST/NIMC Database- Spectrum MS-NW-2993
m/z	RELATIVE INTENSITY
12	40
13	60
14	289
15	2499
16	99
17	20
25	20
26	60
27	489
28	2279
29	409
30	9099
31	2149
32	90
38	90
39	109
40	249
41	439
42	1289
43	9999
44	2559
45	139
46	20
53	10
54	50
55	159
56	719
57	2639
58	3949
59	2579
60	1049
61	30
69	10
70	389
71	10
72	20
73	309
74	789
75	119
85	80
86	60
87	50
88	90
98	20
99	10
101	179
116	3459
117	179
118	20
