Mass Spectrum: Ethane, 1,2-dichloro-1-ethoxy-
Formula: C4 H8 Cl2 O
CAS: 623-46-1
Molecular weight: 142
Origin: Japan AIST/NIMC Database- Spectrum MS-NW-2895
m/z	RELATIVE INTENSITY
12	20
13	70
14	329
15	889
16	20
17	20
18	70
19	10
24	10
25	50
26	709
27	3669
28	549
29	9999
30	209
31	1139
32	60
35	179
36	1539
37	60
38	509
39	80
40	10
41	269
42	1389
43	1899
44	509
45	1189
46	50
47	519
48	189
49	699
50	409
51	229
52	109
53	10
55	10
57	70
58	50
59	279
60	50
61	659
62	90
63	269
64	30
65	999
66	30
67	329
69	30
70	20
71	40
72	109
73	20
75	289
76	99
77	99
78	7069
79	3379
80	2299
81	1049
82	30
88	10
89	30
91	40
92	20
93	3969
94	149
95	1239
96	50
97	339
98	20
99	229
101	30
103	389
104	20
105	30
106	2409
107	2019
108	839
109	609
110	30
113	10
120	20
127	10
129	10
141	10
