Mass Spectrum: 3-Hexanone, 5-methyl-
Formula: C7 H14 O
CAS: 623-56-3
Molecular weight: 114
Origin: NIST Mass Spectrometry Data Center, 1990.
m/z	RELATIVE INTENSITY
14	14
15	88
16	64
26	171
27	1300
28	164
29	1790
30	43
31	63
37	36
38	146
39	1329
40	283
41	2666
42	792
43	1437
44	123
45	41
50	86
51	106
52	39
53	169
54	68
55	309
56	450
57	9999
58	404
59	40
67	30
69	128
70	29
71	108
72	740
73	51
74	19
81	43
83	21
85	2769
86	163
99	321
100	23
114	1276
115	109
