Mass Spectrum: 1,2-Propanediol, 3-(dimethylamino)-
Formula: C5 H13 N O2
CAS: 623-57-4
Molecular weight: 119
Origin: RADIAN CORP
m/z	RELATIVE INTENSITY
14	60
15	250
16	60
18	100
27	150
28	450
29	600
30	990
31	500
39	30
40	140
41	260
42	1900
43	780
44	1500
45	410
46	30
55	90
56	310
57	480
58	9999
59	460
70	190
71	70
72	220
73	330
77	20
84	80
86	90
87	60
88	900
89	20
119	80
