Mass Spectrum: 2-Chloroethyl carbonate
Formula: C5 H8 Cl2 O3
CAS: 623-97-2
Molecular weight: 186
Origin: Japan AIST/NIMC Database- Spectrum MS-NW-4218
m/z	RELATIVE INTENSITY
13	20
14	109
15	299
16	10
18	10
25	20
26	339
27	6569
28	579
29	449
30	299
31	2699
32	40
35	20
36	60
37	10
38	20
41	90
42	70
43	269
44	309
45	409
46	10
47	30
48	60
49	489
50	109
51	159
52	30
57	109
58	30
60	10
61	99
62	5339
63	9999
64	1899
65	3179
66	80
76	90
77	20
78	30
79	99
80	10
81	30
89	60
93	819
94	30
95	259
96	10
125	369
126	10
127	109
137	10
151	199
152	10
153	60
