Mass Spectrum: 2-Furanmethanol, acetate
Formula: C7 H8 O3
CAS: 623-17-6
Molecular weight: 140
Origin: Japan AIST/NIMC Database- Spectrum MS-NW- 538
m/z	RELATIVE INTENSITY
12	10
13	50
14	259
15	859
16	20
17	50
18	259
25	20
26	249
27	1639
28	339
29	569
30	20
31	50
32	30
36	10
37	159
38	339
39	1089
40	109
41	789
42	669
43	5889
44	169
45	229
49	50
50	369
51	759
52	4209
53	3369
54	159
55	179
56	20
57	10
60	159
61	189
62	10
65	10
66	20
67	30
68	90
69	529
70	369
71	70
73	20
79	119
80	2179
81	9999
82	569
83	60
84	20
87	10
91	20
94	10
95	299
96	80
97	1219
98	6629
99	389
100	30
140	4279
141	339
142	40
