Mass Spectrum: 3-Hexanol, 5-methyl-
Formula: C7 H16 O
CAS: 623-55-2
Molecular weight: 116
Origin: NIST Mass Spectrometry Data Center, 1990.
m/z	RELATIVE INTENSITY
14	94
15	357
16	95
17	92
18	228
19	85
26	312
27	2913
28	1051
29	2578
30	85
31	2937
32	197
39	2053
40	509
41	5863
42	723
43	5691
44	1007
45	3169
46	100
50	148
51	193
52	81
53	426
54	221
55	1675
56	1319
57	2537
58	1215
59	9999
60	310
67	224
69	8094
70	765
71	315
72	123
83	318
85	346
86	356
87	3084
88	180
98	435
99	105
