Mass Spectrum: Ethyl propiolate
Formula: C5 H6 O2
CAS: 623-47-2
Molecular weight: 98
Origin: NIST Mass Spectrometry Data Center, 1990.
m/z	RELATIVE INTENSITY
12	50
13	58
14	129
15	293
16	36
18	65
19	65
24	129
25	777
26	635
27	1379
28	748
29	1343
30	100
31	89
32	126
37	41
39	687
40	247
41	401
42	966
43	683
44	193
45	1171
46	45
53	9999
54	859
55	640
56	68
57	46
59	32
67	71
68	389
69	886
70	214
71	477
72	28
74	31
80	91
81	75
83	458
97	485
98	39
