Mass Spectrum: (R)-(+)-3-Methyladipic acid
Formula: C7 H12 O4
CAS: 623-82-5
Molecular weight: 160
Origin: NIST Mass Spectrometry Data Center, 1994
m/z	RELATIVE INTENSITY
14	117
15	503
16	68
17	5
18	84
19	112
26	487
27	4222
28	1946
29	3098
30	180
31	1178
32	232
37	114
39	4245
40	696
41	6011
42	2950
43	4960
44	114
45	6803
46	186
47	108
50	227
51	427
53	1188
55	9999
56	1547
57	1551
58	704
59	5316
60	4154
61	181
63	81
65	152
66	76
67	513
68	2057
69	3714
70	499
71	1086
72	809
73	2790
74	493
77	95
81	399
82	1513
83	7042
84	394
85	645
86	696
87	1258
88	259
96	1651
97	581
98	197
99	960
100	1706
101	5429
102	305
109	105
114	8374
115	623
116	97
124	262
125	388
127	217
133	104
142	205
143	174
