Mass Spectrum: Cyclobutane, 1,1-dimethyl-2-octyl-
Formula: C14 H28
CAS: 62338-30-1
Molecular weight: 196
Origin: D.HENNEBERG, MAX-PLANCK INSTITUTE, MULHEIM, WEST GERMANY
m/z	RELATIVE INTENSITY
25	35
26	219
27	1125
28	2451
29	1463
30	74
31	41
32	214
34	28
35	35
36	373
37	52
38	139
39	774
40	210
41	3591
42	749
43	1914
44	731
45	59
48	21
50	44
51	113
52	55
53	298
54	277
55	2443
56	9999
57	4385
58	215
60	24
63	30
64	45
65	78
66	61
67	447
68	338
69	2420
70	1163
71	390
72	30
73	76
75	25
77	93
78	125
79	122
80	42
81	260
82	297
83	800
84	508
85	256
89	23
91	124
92	49
93	52
94	38
95	150
96	181
97	521
98	241
99	52
103	23
104	20
105	75
106	26
107	37
108	24
109	62
110	85
111	308
112	214
113	40
115	32
117	31
119	31
120	21
121	27
123	35
124	28
125	121
126	61
127	27
128	29
129	32
131	27
133	29
135	20
138	33
139	31
140	250
141	44
145	21
147	27
152	24
153	68
154	31
155	20
165	30
167	25
168	317
169	70
181	36
191	21
196	90
