Mass Spectrum: Decane, 2,2,3-trimethyl-
Formula: C13 H28
CAS: 62338-09-4
Molecular weight: 184
Origin: NIST Mass Spectrometry Data Center, 1990.
m/z	RELATIVE INTENSITY
27	364
28	88
29	881
39	503
41	3213
42	604
43	2027
44	74
53	219
55	1663
56	8272
57	9999
58	406
65	36
67	156
68	54
69	607
70	367
71	1043
72	54
81	36
82	79
83	280
84	210
85	603
86	40
96	46
97	233
98	116
99	147
113	92
126	786
127	102
169	45
