Mass Spectrum: Cyclohexene, 1-decyl-
Formula: C16 H30
CAS: 62338-41-4
Molecular weight: 222
Origin: D.HENNEBERG, MAX-PLANCK INSTITUTE, MULHEIM, WEST GERMANY
m/z	RELATIVE INTENSITY
25	11
26	38
27	592
28	227
29	1062
30	20
31	3
32	20
35	2
37	8
38	4
39	535
40	107
41	2750
42	279
43	1282
44	12
46	5
47	16
48	12
49	5
50	17
51	68
52	69
53	647
54	732
55	2238
56	282
57	484
58	23
59	5
60	7
61	2
62	2
63	23
65	239
66	365
67	4314
68	1562
69	663
70	154
71	155
72	13
73	17
75	17
77	400
78	122
79	1094
80	561
81	9641
82	2918
83	692
84	99
85	92
86	9
89	75
90	6
91	279
92	118
93	391
94	223
95	2344
96	9999
97	2779
98	211
99	9
100	1
102	43
103	18
104	15
105	2
106	10
107	70
108	145
109	968
110	287
111	72
112	27
113	8
114	2
115	4
116	2
117	1
118	5
119	3
120	2
121	26
122	12
123	168
124	141
125	31
126	98
127	11
128	2
131	29
132	1
133	3
134	2
135	12
136	4
137	96
138	189
139	29
140	32
141	10
144	23
147	5
150	16
151	77
152	122
153	13
155	17
159	29
163	15
165	22
166	34
167	2
169	31
170	5
178	9
179	25
180	31
181	1
183	18
189	2
193	75
194	138
195	21
197	11
200	1
201	1
202	1
203	1
207	6
218	102
219	2
220	8
221	11
222	1140
223	195
224	21
