Mass Spectrum: Nifuroxime
Formula: C5 H4 N2 O4
CAS: 6236-05-1
Molecular weight: 156
Origin: Japan AIST/NIMC Database- Spectrum MS-NW-8094
m/z	RELATIVE INTENSITY
12	30
13	40
14	40
15	209
16	189
17	10
18	30
24	20
25	119
26	749
27	1369
28	639
29	669
30	2589
31	30
36	99
37	1389
38	3529
39	1119
40	219
41	199
42	159
43	519
44	1809
45	259
46	90
48	10
49	119
50	779
51	2839
52	1339
53	419
54	989
55	969
56	60
57	20
62	40
63	179
64	939
65	749
66	149
67	159
68	559
69	189
70	109
71	589
72	1749
73	50
77	20
78	30
79	3159
80	589
81	129
82	869
83	90
84	10
85	40
91	10
92	20
93	429
94	99
95	20
96	1339
97	99
98	239
99	849
100	40
106	20
108	90
109	60
110	80
111	10
122	20
126	4369
127	269
128	40
138	249
139	129
140	339
141	20
156	9999
157	839
158	109
