Mass Spectrum: Methanone, (2-fluorophenyl)-2-pyridinyl-
Formula: C12 H8 F N O
CAS: 6238-65-9
Molecular weight: 201
Origin: ASES Database, Dalian Institute, P.R. China
m/z	RELATIVE INTENSITY
50	900
51	2622
52	790
63	200
74	400
75	3333
76	390
77	190
78	1711
95	6766
123	9999
126	100
127	190
152	190
153	290
154	290
172	2712
173	9208
182	1681
200	2392
201	2282
