Mass Spectrum: Ethane, 1-chloro-2-iodo-
Formula: C2 H4 Cl I
CAS: 624-70-4
Molecular weight: 190
Origin: NIST Mass Spectrometry Data Center
m/z	RELATIVE INTENSITY
12	50
13	80
14	130
15	20
24	60
25	260
26	1722
27	9999
28	290
29	20
35	120
36	70
37	40
38	10
47	30
48	30
49	100
50	20
51	20
60	60
61	260
63	7477
64	250
65	2302
66	50
95	10
127	1702
128	340
129	40
139	60
140	50
141	250
142	10
151	10
152	40
153	70
155	661
156	10
162	60
164	20
190	2422
191	70
192	771
193	20
