Mass Spectrum: Ethane, (methylthio)-
Formula: C3 H8 S
CAS: 624-89-5
Molecular weight: 76
Origin: Japan AIST/NIMC Database- Spectrum MS-NW-2718
m/z	RELATIVE INTENSITY
13	10
14	50
15	199
25	30
26	349
27	2299
28	209
29	1509
30	30
32	50
33	50
34	60
35	1419
36	10
37	60
39	70
40	10
41	479
42	50
43	40
44	159
45	1689
46	929
47	3329
48	4709
49	479
50	209
51	10
56	20
57	139
58	349
59	539
60	269
61	9999
62	339
63	439
64	10
69	10
71	10
73	10
74	10
75	419
76	7119
77	309
78	319
79	10
