Mass Spectrum: Ethyl isocyanide
Formula: C3 H5 N
CAS: 624-79-3
Molecular weight: 55
Origin: R.G.GILLIS AUST SCI SERVICE, ASCOT VALE, VIC., AUSTRALIA
m/z	RELATIVE INTENSITY
15	500
26	2000
27	5200
28	9300
29	9999
30	200
38	500
39	800
40	2900
41	200
50	200
51	900
52	1500
53	300
54	3300
55	7800
56	400
