Mass Spectrum: 1-Propyne, 3-chloro-
Formula: C3 H3 Cl
CAS: 624-65-7
Molecular weight: 74
Origin: Japan AIST/NIMC Database- Spectrum MS-NW-4389
m/z	RELATIVE INTENSITY
12	70
13	50
14	30
24	70
25	139
26	119
27	30
35	229
36	649
37	1689
38	2269
39	9999
40	359
41	10
44	10
47	269
48	50
49	139
50	20
51	30
59	10
60	10
61	10
71	40
72	119
73	439
74	3189
75	409
76	1019
77	99
