Mass Spectrum: Methane, isocyanato-
Formula: C2 H3 N O
CAS: 624-83-9
Molecular weight: 57
Origin: NIST Mass Spectrometry Data Center, 1998.
m/z	RELATIVE INTENSITY
12	30
13	20
14	50
15	120
16	10
26	170
27	1490
28	3770
29	720
30	30
38	200
39	150
40	110
41	20
42	180
43	30
44	10
54	290
55	770
56	3730
57	9999
58	280
59	20
