Mass Spectrum: Formic acid hydrazide
Formula: C H4 N2 O
CAS: 624-84-0
Molecular weight: 60
Origin: Pu Leung, NIH, Bethseda, MD
m/z	RELATIVE INTENSITY
42	2133
43	3889
44	1981
59	343
60	9999
61	562
