Mass Spectrum: 1-Butanol, 2-methyl-, acetate
Formula: C7 H14 O2
CAS: 624-41-9
Molecular weight: 130
Origin: Japan AIST/NIMC Database- Spectrum MS-NW-9411
m/z	RELATIVE INTENSITY
14	20
15	289
18	10
26	30
27	429
28	129
29	819
30	20
31	109
38	10
39	349
40	50
41	1019
42	799
43	9999
44	249
45	219
50	10
51	20
53	60
54	30
55	1639
56	379
57	619
58	50
59	20
60	10
61	329
62	10
67	10
69	139
70	3429
71	289
72	529
73	1569
74	539
75	70
85	109
86	10
87	60
100	10
101	90
130	10
131	10
