Mass Spectrum: Methyl nitrite
Formula: C H3 N O2
CAS: 624-91-9
Molecular weight: 61
Origin: A.E.WILLIAMS ICI DYESTUFFS DIVISION, BLACKLEY, MANCHESTER, UK
m/z	RELATIVE INTENSITY
14	160
15	608
18	70
28	1123
29	3000
30	9999
31	1122
32	527
44	70
46	150
60	267
61	484
