Mass Spectrum: Propanoic acid, pentyl ester
Formula: C8 H16 O2
CAS: 624-54-4
Molecular weight: 144
Origin: R.I. ZALEWSKI, INST. COMMOD. SCI., AKAD. EKON., POZNAN, POLAND
m/z	RELATIVE INTENSITY
27	5300
28	1900
29	7500
30	300
31	400
39	200
40	300
41	2800
42	1500
43	3300
44	200
45	300
55	3200
57	9999
59	50
69	600
70	4700
71	800
73	100
74	100
75	1200
85	300
87	700
88	100
115	200
129	20
144	50
