Mass Spectrum: Hydrazine, ethyl-
Formula: C2 H8 N2
CAS: 624-80-6
Molecular weight: 60
Origin: ATLAS OF MASS SPECTRA OF ORGANIC COMPOUNDS, V. A. KOPTYUG, ED.
m/z	RELATIVE INTENSITY
26	310
27	1260
28	1190
29	1050
30	1050
31	3100
32	1140
39	100
43	2590
44	460
45	9999
46	220
57	80
58	140
59	560
60	4280
61	190
