Mass Spectrum: Benzene, 1,4-diiodo-
Formula: C6 H4 I2
CAS: 624-38-4
Molecular weight: 330
Origin: Japan AIST/NIMC Database- Spectrum MS-NW-2263
m/z	RELATIVE INTENSITY
26	20
27	10
36	30
37	199
38	189
39	30
42	10
43	10
44	20
48	10
49	179
50	2459
51	169
60	10
61	40
62	20
72	20
73	239
74	1119
75	949
76	4579
77	299
78	10
127	339
128	60
139	10
152	50
153	20
164	10
165	409
176	40
177	30
202	30
203	4159
204	269
330	9999
331	659
332	20
