Mass Spectrum: Hexadecanoic acid, 1,2-ethanediyl ester
Formula: C34 H66 O4
CAS: 624-03-3
Molecular weight: 538
Origin: R.T.HOLMAN,UNIVERSITY OF MINNESOTA
m/z	RELATIVE INTENSITY
26	60
27	410
28	200
29	1100
30	30
31	70
36	30
38	20
39	250
40	800
41	2100
42	590
43	4200
44	240
45	210
50	20
51	20
52	20
53	130
54	280
55	2700
56	710
57	2400
58	250
59	80
60	400
61	140
62	20
65	30
66	40
67	450
68	350
69	1500
70	480
71	1700
72	130
73	500
74	110
75	20
77	30
78	20
79	110
80	80
81	480
82	310
83	1100
84	2000
85	1000
86	2000
87	1600
88	110
89	30
91	40
92	20
93	80
94	80
95	510
96	250
97	900
98	2900
99	3900
100	350
101	110
102	30
103	10
104	160
105	70
106	20
107	80
108	50
109	270
110	110
111	420
112	1200
113	330
114	70
115	90
116	20
117	110
118	20
119	20
120	20
121	110
122	40
123	140
124	80
125	200
126	290
127	160
128	60
129	140
130	20
131	20
133	20
134	10
135	80
136	40
137	80
138	60
139	100
140	120
141	300
142	80
143	40
144	10
145	10
146	30
147	20
148	10
149	60
150	20
151	40
152	50
153	50
154	120
155	580
156	130
157	60
158	10
159	20
160	30
161	10
163	30
164	20
165	30
166	40
167	50
168	100
169	170
170	50
171	40
172	20
173	30
174	210
175	20
177	20
178	10
179	20
180	20
181	40
182	90
183	210
184	50
185	50
186	10
187	40
188	70
191	10
192	20
193	20
194	70
195	50
196	70
197	240
198	60
199	130
200	10
201	20
202	30
207	30
208	20
209	40
210	40
211	170
212	50
213	70
214	20
215	30
216	30
217	10
218	10
219	50
220	40
221	30
222	20
223	20
224	10
225	130
226	40
227	40
228	10
229	20
230	30
231	10
236	80
237	140
238	900
239	4100
240	720
241	90
242	20
243	20
244	30
250	10
251	10
252	30
253	150
254	120
255	40
256	180
257	100
258	40
259	20
264	10
265	20
266	10
267	70
268	30
269	30
270	30
271	30
272	30
273	10
279	10
280	80
281	380
282	2900
283	9999
284	2200
285	250
286	40
287	20
293	20
294	20
296	20
297	10
298	20
299	50
300	150
301	2000
302	390
303	50
304	10
308	20
309	20
310	30
312	20
313	20
321	20
322	20
323	10
324	110
325	30
327	160
328	40
329	10
336	20
337	20
338	30
339	10
342	340
343	80
344	20
352	60
353	20
355	10
356	10
365	10
366	30
370	60
371	20
379	10
380	20
384	60
385	10
394	10
398	20
408	20
409	10
412	20
422	20
426	20
436	20
440	20
448	10
450	20
454	20
464	20
468	20
469	30
470	20
476	20
477	20
478	20
482	20
494	10
496	10
508	20
520	30
521	20
537	30
538	94
539	40
540	10
