Mass Spectrum: Dimethyl fumarate
Formula: C6 H8 O4
CAS: 624-49-7
Molecular weight: 144
Origin: Japan AIST/NIMC Database- Spectrum MS-NW- 257
m/z	RELATIVE INTENSITY
13	10
14	70
15	3059
16	30
25	119
26	1469
27	439
28	40
29	649
30	149
31	249
37	20
38	30
39	469
40	20
41	339
42	159
43	20
44	10
45	80
52	30
53	1679
54	1249
55	339
56	30
57	70
58	10
59	3059
60	70
61	10
68	50
69	70
71	20
81	289
82	639
83	40
85	5779
86	279
87	40
99	199
100	439
101	40
112	10
113	9999
114	2009
115	159
116	20
144	469
145	169
146	10
