Mass Spectrum: Iodoacetonitrile
Formula: C2 H2 I N
CAS: 624-75-9
Molecular weight: 167
Origin: NIST Mass Spectrometry Data Center
m/z	RELATIVE INTENSITY
12	430
13	540
14	300
15	30
24	80
25	120
26	330
27	100
38	711
39	681
40	9999
41	240
64	60
127	5355
128	200
139	410
140	80
141	60
152	20
165	60
167	5715
168	140
