Mass Spectrum: Ethane, 1,2-diiodo-
Formula: C2 H4 I2
CAS: 624-73-7
Molecular weight: 282
Origin: Japan AIST/NIMC Database- Spectrum MS-NW-2979
m/z	RELATIVE INTENSITY
14	50
25	30
26	449
27	3779
28	229
127	829
128	179
129	70
139	30
140	20
141	90
152	20
153	40
154	60
155	9999
156	229
254	829
282	279
