Mass Spectrum: Ethanol, 2-iodo-
Formula: C2 H5 I O
CAS: 624-76-0
Molecular weight: 172
Origin: Japan AIST/NIMC Database- Spectrum MS-IW-1193
m/z	RELATIVE INTENSITY
13	10
14	109
15	579
16	20
17	20
18	80
19	10
25	20
26	179
27	2039
28	359
29	929
30	50
31	1569
32	30
41	40
42	379
43	1669
44	849
45	9999
46	349
47	30
63	20
64	10
73	30
80	10
82	10
89	30
127	1699
128	679
129	90
139	109
140	119
141	639
142	609
143	20
144	40
152	20
153	50
154	40
155	289
170	20
171	139
172	5329
173	119
174	10
