Mass Spectrum: Pentanoic acid, 4-oxo-, methyl ester
Formula: C6 H10 O3
CAS: 624-45-3
Molecular weight: 130
Origin: Japan AIST/NIMC Database- Spectrum MS-NW-4264
m/z	RELATIVE INTENSITY
13	10
14	99
15	1519
16	20
18	20
25	10
26	179
27	699
28	569
29	229
30	20
31	129
32	40
33	20
37	20
38	30
39	139
40	20
41	209
42	469
43	9999
44	239
45	209
50	20
51	20
52	10
53	50
54	20
55	1609
56	449
57	1049
58	80
59	1129
60	70
61	10
69	20
70	50
71	639
72	30
75	90
81	60
83	20
87	529
88	1089
89	80
97	10
98	619
99	2349
100	159
101	10
102	10
115	1869
116	109
117	10
130	219
131	20
