Mass Spectrum: Methyl valerate
Formula: C6 H12 O2
CAS: 624-24-8
Molecular weight: 116
Origin: NIST Mass Spectrometry Data Center, 1998.
m/z	RELATIVE INTENSITY
14	20
15	350
16	10
25	10
26	190
27	1220
28	430
29	1870
30	90
31	230
33	40
37	40
38	110
39	1270
40	160
41	3060
42	840
43	3330
44	240
45	380
46	10
49	20
50	110
51	130
52	50
53	240
54	90
55	2030
56	890
57	4290
58	210
59	2650
60	100
61	40
67	20
68	10
69	60
71	10
72	10
73	180
74	9999
75	370
76	50
81	10
82	10
83	90
84	50
85	3760
86	220
87	3440
88	310
89	30
101	240
102	10
115	30
116	40
117	40
