Mass Spectrum: 2-Propynal
Formula: C3 H2 O
CAS: 624-67-9
Molecular weight: 54
Origin: A.Pleshkova, Nesmeyanov Inst.Org.Elem.Cpds, Moscow
m/z	RELATIVE INTENSITY
24	400
25	1702
26	4204
27	110
28	2903
29	1401
30	30
36	701
37	901
38	400
39	400
52	901
53	9999
54	5605
55	190
56	10
