Mass Spectrum: Hexanoic acid, cyclohexyl ester
Formula: C12 H22 O2
CAS: 6243-10-3
Molecular weight: 198
Origin: V.G.Zaikin, TIPS RAS, Moscow, Russia
m/z	RELATIVE INTENSITY
25	40
26	651
27	4124
28	1091
29	3853
30	90
31	160
38	220
39	3173
40	671
41	6856
42	2813
43	7427
44	851
45	510
50	190
51	450
52	190
53	921
54	2712
55	6886
56	1311
57	851
58	210
59	160
60	3093
61	691
63	30
65	180
66	180
67	5885
68	480
69	651
70	490
71	3543
72	280
73	1311
74	210
75	90
77	190
78	90
79	380
80	150
81	1151
82	9999
83	5125
84	420
85	70
86	20
87	550
88	60
89	190
91	30
93	30
94	30
96	30
97	110
98	310
99	7687
100	550
101	120
113	20
114	270
115	120
116	1611
117	8978
118	621
119	20
127	180
142	180
155	120
