Mass Spectrum: 1,3,7,9-Tetrachlorodibenzo-p-dioxin
Formula: C12 H4 Cl4 O2
CAS: 62470-53-5
Molecular weight: 320
Origin: W. MILES, AGRIC. CAN., LAB. SERV. DIV., OTTAWA, ONT., CAN.
m/z	RELATIVE INTENSITY
97	1600
98	770
109	1230
111	610
113	850
122	590
123	640
132	460
144	520
160	1310
161	1680
162	830
172	370
194	3560
195	660
196	2280
221	270
222	230
229	580
230	290
231	540
250	330
257	4690
259	4470
261	1570
285	1030
287	890
289	260
320	7830
321	1110
322	9999
323	1380
324	4950
325	700
326	1050
