Mass Spectrum: 3-Vinyl-1,2-dithiacyclohex-5-ene
Formula: C6 H8 S2
CAS: 62488-53-3
Molecular weight: 144
Origin: ASES Database, Dalian Institute, P.R. China
m/z	RELATIVE INTENSITY
38	240
39	1851
41	240
45	3493
46	500
47	240
58	250
59	240
65	250
69	750
71	8397
72	9999
73	1371
77	500
79	1111
80	490
84	360
85	240
97	2001
98	240
103	1371
110	490
111	4764
144	5364
145	240
146	240
