Mass Spectrum: Bicyclo[2.2.1]heptane, 1,3,3-trimethyl-
Formula: C10 H18
CAS: 6248-88-0
Molecular weight: 138
m/z	RELATIVE INTENSITY
41	4904
43	2102
53	1501
55	3603
67	6206
68	1201
69	1401
70	1001
77	701
79	1101
80	2202
81	9999
82	5605
83	3103
91	350
93	200
94	250
95	4104
96	1201
109	2202
110	300
123	7507
138	350
