Mass Spectrum: Propane, 2-methyl-1-nitro-
Formula: C4 H9 N O2
CAS: 625-74-1
Molecular weight: 103
Origin: HCACAV,61(3)984(1978); P. DUBS AND H-P. SCHENK
m/z	RELATIVE INTENSITY
39	3600
40	600
41	9999
42	1100
43	1300
55	1400
56	2300
57	7600
103	100
