Mass Spectrum: 4-Penten-2-ol
Formula: C5 H10 O
CAS: 625-31-0
Molecular weight: 86
Origin: NIST Mass Spectrometry Data Center
m/z	RELATIVE INTENSITY
15	70
19	130
26	70
27	530
29	360
30	20
31	110
35	30
37	80
38	190
39	1191
40	230
41	1331
42	1191
43	2182
44	230
45	9999
46	220
47	20
49	10
50	70
51	90
52	30
53	180
54	20
57	60
58	50
59	60
60	10
61	20
62	30
63	40
65	60
66	20
67	180
68	80
69	140
70	20
71	430
72	20
85	10
86	10
