Mass Spectrum: Benzene, 1-chloro-3-iodo-
Formula: C6 H4 Cl I
CAS: 625-99-0
Molecular weight: 238
Origin: Chuck Anderson, Aldrich Chemical Co.
m/z	RELATIVE INTENSITY
25	12
26	37
27	32
35	36
36	72
37	462
38	388
39	97
47	35
48	40
49	465
50	3032
51	713
52	29
60	84
61	248
62	94
63	76
71	9
72	107
73	616
74	2227
75	5639
76	1243
77	68
83	5
84	302
85	515
86	108
87	162
88	4
108	25
109	17
111	6587
112	405
113	2025
114	119
119	337
120	114
127	781
128	25
139	9
151	4
152	8
153	5
163	4
164	14
165	7
175	3
176	52
177	13
200	4
203	25
222	5
238	9999
239	213
240	3269
241	165
242	3
