Mass Spectrum: Benzene, 1-iodo-3-methyl-
Formula: C7 H7 I
CAS: 625-95-6
Molecular weight: 218
Origin: Chuck Anderson, Aldrich Chemical Co.
m/z	RELATIVE INTENSITY
25	4
26	52
27	149
28	4
36	7
37	151
38	368
39	1490
40	137
41	282
42	10
43	26
44	7
48	7
49	90
50	896
51	760
52	197
53	51
60	22
61	278
62	704
63	1626
64	304
65	4095
66	196
67	3
73	52
74	226
75	141
76	85
77	7
84	23
85	89
86	139
87	91
89	1084
90	538
91	8071
92	587
93	18
109	286
127	489
128	27
152	16
164	9
165	20
176	11
177	3
191	4
218	9999
219	621
220	20
