Mass Spectrum: 3-Penten-2-one
Formula: C5 H8 O
CAS: 625-33-2
Molecular weight: 84
Origin: SHELL RESEARCH LIMITED THORNTON RESEARCH CENTRE
m/z	RELATIVE INTENSITY
27	421
29	344
37	325
38	593
39	2337
40	344
41	6206
42	804
43	4272
44	325
55	421
69	9999
70	785
84	3045
85	498
