Mass Spectrum: Urea, ethyl-
Formula: C3 H8 N2 O
CAS: 625-52-5
Molecular weight: 88
Origin: RADIAN CORP
m/z	RELATIVE INTENSITY
14	60
15	310
16	150
17	390
18	640
26	410
27	1410
28	3490
29	1930
30	9999
31	350
32	90
38	40
39	160
40	670
41	740
42	2320
43	3260
44	9490
45	1000
51	80
56	1000
60	400
71	410
72	50
73	7010
74	90
77	60
84	40
86	30
88	5830
89	130
