Mass Spectrum: Thiophene, 2,5-diiodo-
Formula: C4 H2 I2 S
CAS: 625-88-7
Molecular weight: 336
m/z	RELATIVE INTENSITY
36	200
37	901
38	1601
41	100
44	200
45	701
48	100
49	300
50	200
55	100
56	200
57	1001
58	100
59	100
68	100
69	200
80	300
81	1401
82	5605
83	400
84	300
127	2402
128	200
139	200
151	100
152	300
159	200
164	100
165	500
168	300
171	200
176	100
183	100
184	100
207	100
208	100
209	1101
210	100
211	100
336	9999
337	601
338	500
