Mass Spectrum: Sulphuric acid dibutyl ester
Formula: C8 H18 O4 S
CAS: 625-22-9
Molecular weight: 210
Origin: NIST Mass Spectrometry Data Center
m/z	RELATIVE INTENSITY
15	240
16	10
18	10
19	30
27	2382
28	1551
29	3914
30	240
31	470
37	10
39	1151
41	5555
42	500
43	841
44	160
45	160
48	30
49	10
50	30
51	30
52	10
53	110
55	1151
56	9999
57	8267
58	380
59	80
64	20
65	40
69	20
70	30
71	30
72	10
73	140
74	10
81	20
83	40
87	270
88	10
99	30
101	10
113	20
125	10
126	20
139	10
