Mass Spectrum: Butanenitrile, 3-methyl-
Formula: C5 H9 N
CAS: 625-28-5
Molecular weight: 83
Origin: Japan AIST/NIMC Database- Spectrum MS-NW-2699
m/z	RELATIVE INTENSITY
13	10
14	30
15	159
18	30
25	10
26	129
27	1599
28	129
29	259
36	10
37	139
38	229
39	1189
40	309
41	5039
42	369
43	9999
44	339
49	20
50	60
51	80
52	159
53	80
54	239
55	469
56	40
57	10
62	10
63	20
64	80
65	20
66	129
67	169
68	689
69	30
82	149
