Mass Spectrum: 1H-Pyrrole, 2,4-dimethyl-
Formula: C6 H9 N
CAS: 625-82-1
Molecular weight: 95
Origin: D. GAMES, M. HEWLINS, A. JACKSON, CHEM DEPT, UNIV COLL, CARDIFF, U.K.
m/z	RELATIVE INTENSITY
42	70
46	87
47	772
48	210
51	117
52	269
53	269
54	995
55	47
61	23
62	64
63	152
64	35
65	650
66	351
67	1340
68	88
77	152
78	450
79	23
80	1791
81	87
92	117
93	696
94	9999
95	6651
96	462
