Mass Spectrum: Propanoyl chloride, 3-chloro-
Formula: C3 H4 Cl2 O
CAS: 625-36-5
Molecular weight: 126
Origin: Japan AIST/NIMC Database- Spectrum MS-NW-2896
m/z	RELATIVE INTENSITY
12	40
13	70
14	169
15	40
16	10
24	60
25	309
26	1529
27	8829
28	959
29	119
31	10
32	10
35	279
36	839
37	109
38	269
39	60
40	10
41	40
42	339
43	40
44	40
45	70
46	10
47	80
48	60
49	489
50	20
51	139
52	20
53	90
54	20
55	2469
56	90
57	10
58	20
59	20
60	80
61	279
62	729
63	4609
64	329
65	1449
66	30
72	20
73	70
75	20
89	30
90	50
91	9999
92	349
93	3109
94	119
126	10
128	10
