Mass Spectrum: Propane, 1-methoxy-2-methyl-
Formula: C5 H12 O
CAS: 625-44-5
Molecular weight: 88
m/z	RELATIVE INTENSITY
2	20
12	20
13	50
14	180
15	1471
16	50
17	20
18	10
19	10
25	10
26	170
27	1281
28	260
29	1601
30	100
31	300
32	10
33	40
35	10
36	20
37	70
38	150
39	1041
40	150
41	1631
42	500
43	821
44	70
45	9999
46	270
47	881
48	20
49	10
50	30
51	30
52	10
53	50
54	10
55	260
56	420
57	190
58	20
59	60
60	10
69	10
70	10
71	50
72	10
73	140
74	10
85	10
86	10
87	80
88	631
89	30
90	10
