Mass Spectrum: Ethanol, 2-nitro-
Formula: C2 H5 N O3
CAS: 625-48-9
Molecular weight: 91
Origin: Japan AIST/NIMC Database- Spectrum MS-IW-1255
m/z	RELATIVE INTENSITY
12	10
13	30
14	149
15	769
16	60
17	30
18	109
19	20
25	20
26	259
27	4549
28	1489
29	2069
30	2129
31	2599
32	109
38	20
39	99
40	70
41	429
42	409
43	2819
44	2439
45	9999
46	729
47	40
48	40
51	10
55	40
56	10
57	139
58	109
59	439
60	40
61	999
62	169
63	10
68	10
69	10
73	239
74	149
75	149
76	10
89	10
92	90
