Mass Spectrum: S-Ethyl ethanethioate
Formula: C4 H8 O S
CAS: 625-60-5
Molecular weight: 104
Origin: Japan AIST/NIMC Database- Spectrum MS-IW-2868
m/z	RELATIVE INTENSITY
12	10
13	40
14	139
15	679
16	70
17	20
18	30
25	30
26	219
27	1139
28	479
29	1559
30	40
31	80
32	50
33	60
34	199
35	409
36	10
37	20
39	10
40	30
41	149
42	729
43	9999
44	509
45	3519
46	419
47	1079
48	50
49	50
55	20
56	20
57	169
58	359
59	469
60	2669
61	909
62	1359
63	80
64	60
66	219
68	20
69	10
70	10
71	20
75	20
76	179
77	10
78	10
79	20
85	10
89	80
91	10
92	10
93	10
94	169
95	10
96	10
104	4549
105	249
106	219
107	10
