Mass Spectrum: Nitric acid, ethyl ester
Formula: C2 H5 N O3
CAS: 625-58-1
Molecular weight: 91
Origin: Japan AIST/NIMC Database- Spectrum MS-IW-1349
m/z	RELATIVE INTENSITY
13	10
14	70
15	399
16	20
17	40
18	19
19	20
25	10
26	80
27	619
28	459
29	2079
30	1269
31	239
32	30
41	20
42	70
43	889
44	229
45	179
46	9999
47	60
48	50
60	30
61	10
62	30
64	10
70	10
76	3519
77	60
78	20
90	109
92	20
