Mass Spectrum: Diacetamide
Formula: C4 H7 N O2
CAS: 625-77-4
Molecular weight: 101
Origin: Japan AIST/NIMC Database- Spectrum MS-NW-2917
m/z	RELATIVE INTENSITY
12	20
13	40
14	279
15	1379
16	30
17	10
18	30
25	10
26	20
27	60
28	179
29	90
30	99
31	119
32	10
38	40
39	60
40	179
41	369
42	1119
43	9999
44	679
45	60
58	40
59	2879
60	619
61	20
70	20
73	1639
74	70
86	10
101	389
102	20
