Mass Spectrum: Acetic acid, methoxy-
Formula: C3 H6 O3
CAS: 625-45-6
Molecular weight: 90
Origin: Japan AIST/NIMC Database- Spectrum MS-IW-2800
m/z	RELATIVE INTENSITY
13	20
14	99
15	909
16	10
27	10
28	409
29	1999
30	139
31	939
32	20
33	50
41	50
42	499
43	129
44	139
45	9999
46	359
47	30
55	10
56	10
58	10
59	129
60	3179
61	109
62	10
72	10
74	20
