Mass Spectrum: Diisopropyl sulfide
Formula: C6 H14 S
CAS: 625-80-9
Molecular weight: 118
Origin: Japan AIST/NIMC Database- Spectrum MS-NW-3309
m/z	RELATIVE INTENSITY
14	10
15	139
18	20
26	70
27	1459
28	90
29	60
32	50
33	20
34	20
35	109
37	50
38	119
39	1159
40	159
41	3329
42	1209
43	9999
44	339
45	439
46	70
47	549
48	30
49	99
55	30
56	10
57	50
58	239
59	889
60	729
61	8929
62	299
63	409
64	10
69	20
71	40
73	20
74	299
75	1139
76	2279
77	419
78	129
79	20
89	20
103	5139
104	339
105	229
106	10
108	10
117	20
118	4159
119	309
120	209
121	10
