Mass Spectrum: 2,4-Pentanediol
Formula: C5 H12 O2
CAS: 625-69-4
Molecular weight: 104
Origin: Japan AIST/NIMC Database- Spectrum MS-NW- 799
m/z	RELATIVE INTENSITY
14	10
15	199
17	10
18	119
19	159
26	40
27	619
28	109
29	339
31	299
37	70
38	70
39	509
40	229
41	1379
42	4639
43	2149
44	369
45	9999
46	219
47	109
50	10
51	20
53	70
58	149
59	139
60	40
61	70
62	10
63	459
65	10
67	99
68	50
69	60
71	1869
72	60
73	10
85	10
86	299
87	10
89	389
90	10
