Mass Spectrum: Ethane, 1-chloro-2-nitro-
Formula: C2 H4 Cl N O2
CAS: 625-47-8
Molecular weight: 109
Origin: MINISTRY OF TECH. E.R.D.E., WALTHAM ABBEY, UK
m/z	RELATIVE INTENSITY
14	130
15	380
26	480
27	3810
28	890
29	830
30	1910
31	220
36	230
38	100
39	120
41	230
42	220
43	280
44	480
45	950
46	4190
47	200
48	170
49	540
51	220
55	200
57	170
60	130
61	530
62	920
63	9999
64	470
65	3180
71	110
74	100
93	50
95	20
109	10
