Mass Spectrum: 1-Propanamine, N,2-dimethyl-
Formula: C5 H13 N
CAS: 625-43-4
Molecular weight: 87
Origin: Japan AIST/NIMC Database- Spectrum MS-NW-3920
m/z	RELATIVE INTENSITY
15	149
26	20
27	239
28	299
29	169
30	369
31	20
32	10
37	10
38	30
39	269
40	40
41	409
42	429
43	229
44	9999
45	269
50	10
51	10
52	10
53	20
54	30
55	169
56	169
57	179
58	30
67	10
68	99
69	109
70	179
71	109
72	249
73	10
82	10
83	40
84	50
86	109
87	699
88	40
