Mass Spectrum: 1,3a-Ethano(1H)inden-4-ol, octahydro-2,2,4,7a-tetramethyl-
Formula: C15 H26 O
CAS: 62511-51-7
Molecular weight: 222
Origin: B. Derendyaev, Novosibirsk Institute of Organic Chemistry
m/z	RELATIVE INTENSITY
40	80
41	3869
42	499
43	9999
44	149
45	239
47	759
48	269
49	209
50	60
51	119
53	939
54	99
55	2429
56	229
57	609
58	459
59	289
65	359
66	129
67	2099
68	339
69	4389
70	359
71	1539
72	50
77	1169
78	229
79	2069
80	459
81	3929
82	1919
83	4699
84	1399
85	2879
86	50
87	289
91	1629
92	299
93	2539
94	819
95	3799
96	1729
97	1179
98	269
103	329
105	1699
106	559
107	2499
108	3059
109	9289
110	1079
111	569
112	50
113	1779
114	70
115	119
116	90
117	169
118	70
119	1049
120	469
121	2429
122	879
123	1049
124	319
125	919
126	129
131	119
133	1419
134	449
135	2459
136	1049
137	2289
138	499
139	159
140	109
145	179
147	1059
148	769
149	2079
150	339
151	839
152	249
153	729
161	4259
162	639
163	90
164	4049
165	709
166	279
175	439
176	219
177	60
179	1309
180	259
189	2509
190	279
204	2129
205	289
207	1269
222	4219
223	609
