Mass Spectrum: Ethanol, 2-methoxy-, carbonate (2:1)
Formula: C7 H14 O5
CAS: 626-84-6
Molecular weight: 178
m/z	RELATIVE INTENSITY
12	40
13	70
14	310
15	2572
16	130
19	160
24	10
25	50
26	330
27	941
28	1191
29	4034
30	420
31	3333
32	400
33	100
35	20
36	50
37	20
38	20
39	20
40	20
41	100
42	360
43	1471
44	711
45	9999
46	420
47	540
48	30
49	40
50	10
51	20
55	20
56	40
57	160
58	1832
59	811
60	90
61	20
62	60
63	60
64	20
65	20
71	10
72	10
73	60
74	30
75	30
76	380
77	50
78	10
79	10
85	10
86	20
87	20
88	280
89	40
90	10
94	10
103	20
104	10
114	10
121	20
147	40
