Mass Spectrum: 2-Butanamine, N-(1-methylpropyl)-
Formula: C8 H19 N
CAS: 626-23-3
Molecular weight: 129
m/z	RELATIVE INTENSITY
15	80
27	400
28	600
29	1000
30	300
31	10
41	1000
42	500
43	200
44	9999
45	300
55	400
56	300
57	800
58	2800
59	100
69	20
70	200
71	60
72	500
73	30
83	10
84	200
85	20
86	40
98	90
99	20
100	6999
101	500
112	20
114	900
115	70
128	100
129	100
