Mass Spectrum: Piperidine, 3-methyl-
Formula: C6 H13 N
CAS: 626-56-2
Molecular weight: 99
Origin: Japan AIST/NIMC Database- Spectrum MS-NW-3266
m/z	RELATIVE INTENSITY
15	309
25	10
26	169
27	1129
28	2029
29	1839
30	4659
31	80
32	40
33	20
34	20
36	10
37	90
38	229
39	1719
40	409
41	2419
42	3219
43	2389
44	9999
45	289
46	50
47	10
48	10
49	20
50	109
51	189
52	129
53	359
54	329
55	1039
56	4089
57	4899
58	429
59	10
61	30
62	60
63	109
64	50
65	359
66	519
67	369
68	359
69	509
70	2429
71	979
72	70
75	10
77	20
78	60
79	60
80	129
81	189
82	319
83	99
84	4749
85	299
86	10
96	99
97	60
98	5639
99	5679
100	419
101	20
