Mass Spectrum: 2-Hexanol
Formula: C6 H14 O
CAS: 626-93-7
Molecular weight: 102
Origin: Japan AIST/NIMC Database- Spectrum MS-NW-1207
m/z	RELATIVE INTENSITY
15	109
17	10
18	60
19	109
26	50
27	639
28	149
29	509
30	20
31	199
32	10
38	20
39	319
40	50
41	1199
42	339
43	699
44	689
45	9999
46	229
47	30
50	20
51	20
52	10
53	50
54	30
55	389
56	359
57	239
58	129
59	50
67	20
69	1449
70	80
71	30
83	20
84	409
85	50
86	20
87	529
88	30
100	20
101	40
