Mass Spectrum: Pentane, 1-bromo-4-methyl-
Formula: C6 H13 Br
CAS: 626-88-0
Molecular weight: 164
Origin: Japan AIST/NIMC Database- Spectrum MS-NW-3296
m/z	RELATIVE INTENSITY
14	10
15	99
26	80
27	1339
28	49
29	749
30	20
37	30
38	109
39	1109
40	229
41	4409
42	4239
43	9999
44	339
50	50
51	70
52	30
53	169
54	40
55	539
56	1239
57	859
58	40
59	10
62	10
63	20
65	30
66	10
67	90
68	30
69	3129
70	199
71	20
79	30
80	40
81	30
82	50
83	119
84	199
85	5929
86	399
87	10
93	60
95	60
105	10
106	10
107	259
108	10
109	239
119	10
120	30
121	60
122	30
123	60
148	10
149	299
150	20
151	289
152	20
164	199
165	20
166	189
167	10
