Mass Spectrum: Benzene, 1,3,5-tribromo-
Formula: C6 H3 Br3
CAS: 626-39-1
Molecular weight: 312
Origin: NIST Mass Spectrometry Data Center, 1998.
m/z	RELATIVE INTENSITY
24	10
25	40
26	20
36	160
37	730
38	420
39	30
48	100
49	600
50	990
51	60
60	130
61	270
62	130
63	50
72	180
73	1650
74	6189
75	4850
76	370
77	560
78	500
79	330
80	80
81	330
82	70
91	70
92	10
93	80
94	10
95	10
103	10
104	130
105	30
106	130
107	20
115	40
116	300
117	520
118	300
127	20
128	240
129	90
130	240
131	70
140	10
141	10
142	10
143	10
144	10
151	10
152	130
153	880
154	1470
155	910
156	1470
157	600
158	550
159	170
160	30
162	10
172	10
173	10
183	10
184	10
185	20
187	10
194	10
195	20
196	10
197	30
198	10
199	10
207	10
208	10
209	10
210	10
211	10
219	10
221	30
223	10
233	2550
234	250
235	4840
236	370
237	2400
238	160
239	10
310	10
312	3570
313	250
314	9999
315	680
316	9679
317	650
318	3190
319	210
320	10
