Mass Spectrum: 4-Chloropyridine
Formula: C5 H4 Cl N
CAS: 626-61-9
Molecular weight: 113
Origin: Japan AIST/NIMC Database- Spectrum MS-NW-9260
m/z	RELATIVE INTENSITY
25	30
26	109
27	40
39	80
40	10
43	70
47	20
48	40
49	299
50	1109
51	2459
52	259
53	30
56	109
57	30
60	149
61	40
62	90
63	10
64	20
72	20
73	259
74	30
75	189
76	399
77	149
78	6529
79	389
84	30
85	149
86	429
87	99
88	139
89	10
112	159
113	9999
114	809
115	3219
116	239
