Mass Spectrum: Pentanamide
Formula: C5 H11 N O
CAS: 626-97-1
Molecular weight: 101
Origin: Japan AIST/NIMC Database- Spectrum MS-NW-1271
m/z	RELATIVE INTENSITY
14	20
15	99
16	50
17	30
18	40
26	149
27	1079
28	449
29	1899
30	119
31	60
32	20
36	10
37	20
38	60
39	559
40	80
41	1549
42	389
43	919
44	3889
45	179
46	60
50	50
51	50
52	20
53	70
54	109
55	509
56	139
57	1099
58	60
59	9999
60	289
61	20
69	20
72	1849
73	269
74	20
82	10
83	30
84	10
85	229
86	339
87	10
100	70
101	70
102	20
