Mass Spectrum: Piperidine, 1-methyl-
Formula: C6 H13 N
CAS: 626-67-5
Molecular weight: 99
Origin: Japan AIST/NIMC Database- Spectrum MS-NW-3134
m/z	RELATIVE INTENSITY
14	10
15	409
17	10
18	40
26	90
27	559
28	279
29	279
30	189
37	20
38	50
39	509
40	90
41	729
42	2909
43	4639
44	909
45	40
47	20
48	10
50	30
51	60
52	50
53	129
54	159
55	599
56	249
57	859
58	1299
59	40
63	10
65	20
66	10
67	70
68	159
69	90
70	1609
71	949
72	40
78	10
79	10
80	50
81	40
82	119
83	60
84	769
85	40
94	50
96	199
97	70
98	9999
99	4319
100	269
