Mass Spectrum: 2-Pentanol, acetate
Formula: C7 H14 O2
CAS: 626-38-0
Molecular weight: 130
Origin: NIST Mass Spectrometry Data Center
m/z	RELATIVE INTENSITY
14	70
15	601
16	20
18	30
19	10
26	100
27	971
28	210
29	761
30	20
31	60
32	10
37	20
38	70
39	791
40	140
41	981
42	991
43	9999
44	310
45	440
46	10
50	20
51	40
52	20
53	100
54	40
55	1251
56	60
57	30
58	120
59	40
60	10
61	320
62	10
63	10
65	20
67	30
68	10
69	90
70	1712
71	460
72	30
73	20
86	240
87	2853
88	130
89	10
101	10
102	190
103	20
115	330
116	20
130	10
