Mass Spectrum: Acetic acid, nitro-, ethyl ester
Formula: C4 H7 N O4
CAS: 626-35-7
Molecular weight: 133
Origin: Japan AIST/NIMC Database- Spectrum MS-IW-1261
m/z	RELATIVE INTENSITY
13	20
14	189
15	309
16	30
17	20
18	70
25	10
26	269
27	2069
28	1679
29	5849
30	2019
31	1179
32	30
39	20
40	10
41	459
42	3819
43	2099
44	1109
45	2709
46	749
47	10
48	10
54	169
55	10
56	10
57	50
58	30
59	4359
60	249
61	329
62	60
69	50
70	30
71	80
72	90
73	40
74	1459
75	40
76	30
77	10
84	80
85	10
86	30
87	4359
88	9999
89	409
90	70
98	10
100	10
105	10
106	339
107	10
117	10
118	149
134	90
