Mass Spectrum: Piperidine, 4-methyl-
Formula: C6 H13 N
CAS: 626-58-4
Molecular weight: 99
Origin: NIST Mass Spectrometry Data Center, 1990.
m/z	RELATIVE INTENSITY
14	99
15	539
16	45
17	3
18	146
25	42
26	333
27	2383
28	3974
29	3067
30	4212
31	85
37	80
38	304
39	2092
40	468
41	2671
42	3852
43	2993
44	4081
45	121
50	169
51	314
52	203
53	532
54	473
55	2167
56	9021
57	4746
58	215
62	56
63	50
64	37
65	116
66	118
67	383
68	392
69	300
70	763
71	469
79	61
80	169
81	152
82	350
83	61
84	2551
85	138
93	46
94	74
96	86
98	9999
99	5753
100	399
