Mass Spectrum: Benzenamine, 3-iodo-
Formula: C6 H6 I N
CAS: 626-01-7
Molecular weight: 219
Origin: Japan AIST/NIMC Database- Spectrum MS-NW- 690
m/z	RELATIVE INTENSITY
15	20
26	30
27	40
28	50
36	30
37	189
38	449
39	1119
40	119
41	269
42	70
44	40
45	50
46	20
49	40
50	199
51	119
52	409
53	70
54	70
55	10
60	30
61	159
62	309
63	679
64	599
65	3889
66	449
67	20
69	10
70	10
73	20
74	179
75	80
76	50
77	20
87	50
88	30
89	40
90	119
91	729
92	6559
93	499
94	20
109	719
110	40
127	359
128	90
143	10
165	20
191	60
218	50
219	9999
220	699
221	20
