Mass Spectrum: Benzene, 1,3-diiodo-
Formula: C6 H4 I2
CAS: 626-00-6
Molecular weight: 330
Origin: NIST Mass Spectrometry Data Center, 2010
m/z	RELATIVE INTENSITY
26	10
27	10
36	20
37	150
38	140
39	30
48	20
49	250
50	2372
51	160
60	20
61	60
62	30
63	10
72	30
73	380
74	1641
75	1061
76	4194
77	270
78	10
101	10
127	1131
128	70
139	20
151	10
152	70
153	20
163	10
165	601
175	10
176	80
177	40
200	10
203	3783
204	260
205	10
254	20
330	9999
331	741
332	20
