Mass Spectrum: Phenol, 3-iodo-
Formula: C6 H5 I O
CAS: 626-02-8
Molecular weight: 220
Origin: Japan AIST/NIMC Database- Spectrum MS-NW-8706
m/z	RELATIVE INTENSITY
14	10
15	10
17	10
18	20
25	10
26	60
27	70
28	60
29	60
31	10
36	20
37	229
38	579
39	2029
40	70
41	20
42	30
43	30
44	10
48	10
49	60
50	269
51	109
52	10
53	419
54	30
55	30
60	30
61	199
62	389
63	989
64	689
65	3959
66	309
67	30
73	50
74	149
75	90
76	50
77	20
90	10
91	20
92	369
93	5229
94	369
95	20
105	10
110	439
115	10
127	319
128	119
143	20
191	119
219	20
220	9999
221	659
222	40
