Mass Spectrum: Cyclohexane, iodo-
Formula: C6 H11 I
CAS: 626-62-0
Molecular weight: 210
m/z	RELATIVE INTENSITY
15	30
26	60
27	581
28	130
29	480
36	190
38	110
39	1051
40	150
41	2993
42	240
43	280
44	70
50	130
51	240
52	110
53	410
54	1251
55	6246
56	320
57	60
63	40
65	110
66	50
67	1762
68	80
69	30
70	10
71	10
77	150
78	90
79	210
80	160
81	300
82	540
83	9999
84	701
85	30
127	210
128	120
155	20
167	20
210	1722
211	110
