Mass Spectrum: 6-Methyluracil
Formula: C5 H6 N2 O2
CAS: 626-48-2
Molecular weight: 126
Origin: NIST Mass Spectrometry Data Center, 1998.
m/z	RELATIVE INTENSITY
25	60
26	350
27	540
37	460
38	320
39	900
41	1040
42	9999
43	640
44	680
50	150
51	840
53	230
55	330
56	160
67	230
68	6709
69	300
70	330
82	170
83	2880
84	240
126	8469
127	660
