Mass Spectrum: Butane, 1-methoxy-3-methyl-
Formula: C6 H14 O
CAS: 626-91-5
Molecular weight: 102
Origin: NIST Mass Spectrometry Data Center
m/z	RELATIVE INTENSITY
14	10
15	150
26	50
27	611
28	210
29	931
30	40
31	280
33	280
37	20
38	60
39	881
40	130
41	1712
42	1441
43	1071
45	9999
46	230
47	120
50	50
51	70
52	20
53	170
54	80
55	2442
56	611
57	470
58	100
59	410
60	100
61	10
63	10
65	10
67	20
68	10
69	180
70	4194
71	360
72	10
73	10
74	20
85	40
87	20
101	30
102	10
