Mass Spectrum: 4-Pyridinol
Formula: C5 H5 N O
CAS: 626-64-2
Molecular weight: 95
Origin: Insect Chem. Ecol. Lab., USDA, Beltsville, MD 20705
m/z	RELATIVE INTENSITY
41	1222
42	379
43	92
44	41
45	5
47	105
48	6
50	277
51	331
52	226
53	334
54	107
55	438
56	26
57	6
62	7
63	19
64	45
65	49
66	350
67	1574
68	1495
69	168
70	19
77	35
78	76
79	7
80	27
81	17
94	294
95	9999
96	908
97	59
