Mass Spectrum: Cyclopropane, pentachloro-
Formula: C3 H Cl5
CAS: 6262-51-7
Molecular weight: 212
Origin: D.HENNEBERG, MAX-PLANCK INSTITUTE, MULHEIM, WEST GERMANY
m/z	RELATIVE INTENSITY
24	74
25	185
26	39
27	61
28	361
29	323
30	24
31	132
32	9
33	13
34	3
35	413
36	963
37	1276
38	187
39	24
40	27
41	32
42	27
43	85
44	82
45	2243
46	56
47	1004
48	229
49	322
50	84
51	9
52	7
53	493
54	303
55	48
56	8
57	39
58	127
59	265
60	585
61	66
62	153
63	76
64	26
65	38
67	16
68	17
69	13
70	31
71	1050
72	1259
73	366
74	328
75	16
76	21
77	38
78	31
79	45
80	23
81	28
82	1099
83	3110
84	734
85	1919
86	135
87	305
92	42
93	11
94	219
95	340
96	152
97	222
98	31
99	44
100	10
101	6
103	4
104	3
105	7
106	355
107	1214
108	250
109	745
110	81
111	146
112	18
113	23
114	16
115	18
117	1527
118	42
119	1525
120	31
121	473
122	11
123	81
125	24
126	4
127	11
129	62
130	441
131	80
132	427
133	40
134	133
135	8
136	17
137	3
139	7
141	654
142	76
143	652
144	77
145	192
146	24
147	26
153	3
154	3
155	4
156	3
157	10
158	6
159	11
160	6
161	4
164	48
165	3
166	58
167	4
168	30
169	4
170	10
171	4
172	7
173	4
177	7770
178	563
179	9999
180	532
181	4715
182	234
183	973
184	53
185	84
186	6
