Mass Spectrum: 1-Butoxy-2-ethylhexane
Formula: C12 H26 O
CAS: 62625-25-6
Molecular weight: 186
Origin: B. Derendyaev, Novosibirsk Institute of Organic Chemistry
m/z	RELATIVE INTENSITY
26	329
27	1809
29	3519
30	149
31	269
33	70
36	129
37	50
38	80
39	929
40	219
41	4919
42	559
43	2509
45	269
46	20
47	10
50	40
51	60
52	80
53	249
54	199
55	1739
56	2289
57	9999
58	439
59	70
60	10
63	10
64	20
65	40
66	20
67	159
68	149
69	689
70	1419
71	1019
72	179
73	70
74	10
75	189
76	10
77	40
78	20
79	50
80	10
81	50
82	289
83	1129
84	579
85	139
86	10
87	1049
88	60
89	319
90	20
91	30
92	10
93	10
95	40
97	20
98	509
99	40
100	30
101	80
110	20
111	50
112	819
113	129
114	10
115	20
123	10
127	10
128	40
129	10
141	20
157	10
186	10
