Mass Spectrum: Cyclopropene, tetrachloro-
Formula: C3 Cl4
CAS: 6262-42-6
Molecular weight: 176
Origin: Japan AIST/NIMC Database- Spectrum MS-IW-3649
m/z	RELATIVE INTENSITY
12	40
24	60
35	259
37	90
47	699
49	229
53	499
54	319
55	50
59	179
60	10
61	60
70	30
71	1699
72	60
73	549
74	10
82	289
83	20
84	189
85	10
86	30
94	319
95	20
96	209
97	10
98	30
106	2519
107	80
108	1629
109	50
110	269
129	20
131	20
141	9999
142	319
143	9769
144	319
145	3129
146	99
147	349
148	10
176	619
177	20
178	799
179	20
180	399
181	10
182	80
