Mass Spectrum: 2,4,6-Cycloheptatrien-1-one, 2-amino-
Formula: C7 H7 N O
CAS: 6264-93-3
Molecular weight: 121
Origin: CARL DJERASSI DEPT OF CHEM STANFORD UNIV STANFORD CALIF 94305
m/z	RELATIVE INTENSITY
41	808
42	202
44	202
45	404
46	303
47	1010
50	404
51	505
52	505
53	202
54	404
60	404
62	202
63	505
64	202
65	1717
66	2626
67	404
76	101
77	202
78	202
92	606
93	3434
94	404
121	9999
122	808
