Mass Spectrum: 4,7-Methano-1H-isoindole-1,3(2H)-dione, 3a,4,7,7a-tetrahydro-, (3a.alpha.,4.alpha.,7.alpha.,7a.alpha.)-
Formula: C9 H9 N O2
CAS: 6265-30-1
Molecular weight: 163
Origin: Tox21 Consortium/NIST Mass Spectrometry Data Center, 2012
m/z	RELATIVE INTENSITY
15	10
25	10
26	170
27	190
28	70
29	20
31	10
37	60
38	200
39	971
40	400
41	90
42	30
43	100
44	100
45	210
46	90
49	20
50	200
51	390
52	170
53	150
54	150
55	70
56	20
59	10
60	30
61	50
62	140
63	380
64	110
65	1181
66	9999
67	561
68	30
69	10
70	70
73	10
74	30
75	20
76	20
77	140
78	60
79	50
80	140
81	20
82	10
85	10
86	10
87	10
89	120
90	120
91	1672
92	430
93	50
94	10
96	10
97	30
98	991
99	50
100	10
104	10
105	20
106	40
107	20
108	10
116	20
117	20
118	80
119	60
120	30
134	130
135	30
136	30
146	10
148	10
162	10
163	250
164	30
