Mass Spectrum: meso-3,4-Dicyclohexyl-2,5-dimethylhexane
Formula: C20 H38
CAS: 62678-52-8
Molecular weight: 278
Origin: CHBEAM 115 3364(1982); CHRISTOPH RUCHARDT ET AL
m/z	RELATIVE INTENSITY
41	3000
43	1800
57	5100
67	1300
69	2800
71	800
80	1700
81	1300
82	1500
83	9999
97	5300
110	600
112	900
124	700
126	600
138	7500
139	6000
140	600
153	300
235	600
278	100
