Mass Spectrum: Acridine, 9,10-dihydro-9,9-dimethyl-
Formula: C15 H15 N
CAS: 6267-02-3
Molecular weight: 209
m/z	RELATIVE INTENSITY
14	20
15	280
16	10
25	10
26	40
27	240
28	40
29	50
30	10
31	10
36	10
37	20
38	70
39	340
40	40
41	80
42	20
43	100
44	70
45	10
48	10
49	10
50	140
51	270
52	90
53	30
54	10
55	30
56	20
57	30
58	20
59	10
61	20
62	80
63	220
64	80
65	90
66	20
67	10
68	10
69	60
70	60
74	80
75	130
76	130
77	170
78	40
79	10
80	10
82	110
86	30
87	50
88	70
89	150
90	130
92	10
93	10
97	100
99	20
100	20
101	50
102	90
103	90
104	170
105	80
108	10
109	10
110	10
111	20
112	10
113	50
114	40
115	90
116	40
117	30
118	10
119	10
121	10
122	10
123	10
124	10
125	20
126	50
127	60
128	60
129	20
130	20
131	10
134	10
135	20
136	10
137	20
138	30
139	130
140	100
141	30
142	10
143	10
144	10
149	20
150	40
151	80
152	130
153	50
154	40
155	10
159	10
161	10
162	20
163	80
164	90
165	270
166	150
167	210
168	50
169	20
170	10
173	10
174	10
175	20
176	40
177	100
178	150
179	290
180	130
181	40
182	20
187	10
188	20
189	40
190	190
191	450
192	661
193	1421
194	9999
195	1551
196	130
197	10
200	10
202	10
203	10
204	50
205	20
206	30
207	30
208	210
209	881
210	160
211	20
