Mass Spectrum: 4-Nitrobenzoic acid, hexyl ester
Formula: C13 H17 N O4
CAS: 6268-24-2
Molecular weight: 251
Origin: V.Zaikin,Topchiev Inst.Petrochem.Synth.,Moscow
m/z	RELATIVE INTENSITY
27	1912
28	581
29	2522
30	811
31	90
36	120
37	220
38	480
39	2132
40	410
41	4544
42	3463
43	5085
44	430
45	260
46	170
49	120
50	2793
51	791
52	140
53	731
54	430
55	5155
56	9999
57	811
58	60
59	30
60	30
61	120
62	170
63	520
64	611
65	2212
66	220
67	240
68	170
69	3033
70	290
71	100
73	190
74	1041
75	2262
76	4954
77	661
78	210
79	70
80	30
81	270
82	170
83	2422
84	7206
85	530
87	20
88	50
89	50
90	50
91	120
92	2032
93	370
94	90
95	60
96	170
97	40
98	30
99	40
101	30
103	561
104	5195
105	571
106	80
107	50
109	210
110	50
115	50
117	30
119	70
120	961
121	1171
122	330
123	130
124	40
125	30
126	40
127	20
128	30
134	550
135	130
136	50
137	300
138	40
145	60
146	30
148	40
149	170
150	8728
151	1661
152	400
153	50
162	30
163	30
164	30
165	90
166	30
167	701
168	2762
169	1251
170	100
171	60
173	280
174	30
178	30
179	30
180	50
190	20
191	30
194	80
195	20
205	60
207	60
208	90
221	30
223	30
225	40
234	20
235	60
251	50
252	40
