Mass Spectrum: 2,5-Bis(2-fluorophenyl)-1,3,4-oxadiazole
Formula: C14 H8 F2 N2 O
CAS: 62681-98-5
Molecular weight: 258
Origin: NIST Mass Spectrometry Data Center, 1994
m/z	RELATIVE INTENSITY
31	101
33	48
37	124
38	217
39	451
44	49
46	64
49	70
50	779
51	446
52	72
56	163
57	1640
58	71
61	187
62	333
63	457
64	111
68	447
69	567
70	148
73	60
74	265
75	2837
76	348
80	133
81	961
82	299
83	80
85	74
86	115
87	148
88	64
89	70
90	65
92	59
93	160
94	969
95	5093
96	372
99	40
100	64
105	119
106	93
107	779
108	229
121	389
123	8946
124	707
125	56
129	109
151	47
175	60
181	174
182	136
183	458
184	68
199	86
201	9118
202	2594
203	321
258	9999
259	1549
260	148
