Mass Spectrum: Urea, propyl-
Formula: C4 H10 N2 O
CAS: 627-06-5
Molecular weight: 102
Origin: RADIAN CORP
m/z	RELATIVE INTENSITY
27	210
30	9999
41	840
43	190
44	4790
73	5690
77	40
87	2640
102	1730
