Mass Spectrum: 1-Propanol, 3-iodo-
Formula: C3 H7 I O
CAS: 627-32-7
Molecular weight: 186
Origin: NIST Mass Spectrometry Data Center, 1994
m/z	RELATIVE INTENSITY
4	11
13	18
14	36
15	149
17	21
18	20
25	61
26	513
27	1984
28	987
29	1973
30	18
31	9999
32	96
33	29
36	17
37	103
38	200
39	909
40	17
41	2315
42	155
43	280
44	22
53	28
55	94
57	726
59	7012
60	241
127	954
128	313
129	79
139	23
140	20
141	123
153	16
154	35
155	310
157	30
158	142
168	24
186	2553
187	94
