Mass Spectrum: Ethylvinyl sulfide
Formula: C4 H8 S
CAS: 627-50-9
Molecular weight: 88
Origin: NIST Mass Spectrometry Data Center, 1994
m/z	RELATIVE INTENSITY
8	27
12	50
13	127
14	253
15	414
18	65
24	59
25	392
26	2531
27	6298
28	654
29	2591
30	84
31	13
32	304
33	282
34	350
35	505
36	43
37	56
38	65
39	309
40	30
41	150
43	40
45	8069
46	687
47	1179
48	55
49	58
50	29
53	187
54	93
55	569
56	225
57	1546
58	4046
59	7166
60	9999
61	1365
62	532
63	39
68	28
69	47
71	97
73	2385
74	107
75	121
85	77
88	6009
89	355
90	286
