Mass Spectrum: 1-Hexanol, 5-methyl-
Formula: C7 H16 O
CAS: 627-98-5
Molecular weight: 116
m/z	RELATIVE INTENSITY
26	180
27	2302
28	1311
29	2422
30	90
31	2492
32	140
33	20
38	100
39	1802
40	350
41	5925
42	2702
43	9999
44	681
45	550
46	140
49	100
51	140
52	40
53	370
54	280
55	9338
56	7016
57	2122
58	110
59	130
61	20
63	20
65	60
66	20
67	200
68	320
69	5625
70	7957
71	1091
72	80
73	671
74	40
77	90
78	20
79	30
81	90
82	30
83	1672
84	200
85	300
86	20
97	130
98	480
99	30
