Mass Spectrum: Divinyl sulfide
Formula: C4 H6 S
CAS: 627-51-0
Molecular weight: 86
Origin: A.A.Kutin, Moscow, Russia
m/z	RELATIVE INTENSITY
25	1141
26	731
27	2032
34	200
41	561
43	420
45	3894
46	330
47	300
53	500
56	290
57	1051
58	2712
59	3964
60	1601
61	430
62	270
71	641
85	9999
86	6886
87	1001
88	500
