Mass Spectrum: Acetic acid, ethoxy-
Formula: C4 H8 O3
CAS: 627-03-2
Molecular weight: 104
Origin: Japan AIST/NIMC Database- Spectrum MS-NW-5478
m/z	RELATIVE INTENSITY
12	10
13	40
14	179
15	309
16	20
17	30
18	109
19	10
25	20
26	279
27	1539
28	539
29	3769
30	179
31	9999
32	139
33	20
36	20
39	10
41	329
42	689
43	689
44	159
45	1399
46	80
47	30
55	10
56	10
57	60
58	40
59	5269
60	2809
61	779
62	30
70	10
73	20
75	30
77	10
86	179
87	10
88	70
89	20
103	10
