Mass Spectrum: Nitric acid, propyl ester
Formula: C3 H7 N O3
CAS: 627-13-4
Molecular weight: 105
Origin: Japan AIST/NIMC Database- Spectrum MS-NW-8871
m/z	RELATIVE INTENSITY
14	50
15	179
16	10
18	10
25	20
26	309
27	2269
28	909
29	5229
30	1499
31	1829
32	30
37	20
38	40
39	289
40	60
41	1179
42	399
43	3219
44	149
45	30
46	9999
47	60
48	40
53	10
55	159
56	50
57	389
58	109
59	70
60	139
69	20
70	10
71	70
72	10
76	4499
77	70
78	30
