Mass Spectrum: Propane, 1-(1-methylethoxy)-
Formula: C6 H14 O
CAS: 627-08-7
Molecular weight: 102
Origin: D.HENNEBERG, MAX-PLANCK INSTITUTE, MULHEIM, WEST GERMANY
m/z	RELATIVE INTENSITY
24	4
26	86
27	1329
28	241
29	251
30	32
31	645
32	9
37	38
38	46
39	578
40	114
41	2049
42	650
43	9999
44	347
45	6482
46	147
47	13
55	266
56	21
57	89
58	62
59	760
60	27
61	7
69	38
71	10
72	10
73	1068
74	50
86	3
87	1700
88	92
101	6
102	51
