Mass Spectrum: Propanal, oxime
Formula: C3 H7 N O
CAS: 627-39-4
Molecular weight: 73
Origin: Organic Synthesis Lab, MSU, Moscow.TRC 1461
m/z	RELATIVE INTENSITY
31	2339
37	739
38	1379
39	3619
40	1909
41	4249
42	959
43	1269
44	7869
45	3509
46	2229
51	849
52	849
54	4149
55	1059
56	7979
57	429
58	639
72	3189
73	9999
74	599
