Mass Spectrum: Propane, 1-isocyano-
Formula: C4 H7 N
CAS: 627-36-1
Molecular weight: 69
Origin: W HEERMA
m/z	RELATIVE INTENSITY
12	38
13	38
14	153
15	314
25	65
26	648
27	3677
28	2538
29	4850
36	65
37	268
38	460
39	1572
40	932
41	9999
42	4133
43	817
51	192
52	387
53	54
54	3048
64	130
66	100
68	1231
69	778
70	54
