Mass Spectrum: 3-Buten-1-ol
Formula: C4 H8 O
CAS: 627-27-0
Molecular weight: 72
Origin: Japan AIST/NIMC Database- Spectrum MS-NW-2850
m/z	RELATIVE INTENSITY
12	10
13	10
14	50
15	199
17	10
18	40
25	40
26	289
27	1569
28	549
29	719
30	70
31	6659
32	109
33	20
36	30
37	199
38	339
39	2819
40	769
41	3509
42	9999
43	1609
44	699
45	80
49	50
50	169
51	169
52	60
53	339
54	299
55	249
56	30
57	629
58	20
69	50
70	30
71	209
72	729
73	30
