Mass Spectrum: Carbonochloridic acid, 2-chloroethyl ester
Formula: C3 H4 Cl2 O2
CAS: 627-11-2
Molecular weight: 142
Origin: Japan AIST/NIMC Database- Spectrum MS-NW-7376
m/z	RELATIVE INTENSITY
13	10
14	50
15	70
18	10
25	60
26	459
27	3909
28	259
29	509
30	309
31	269
32	10
35	339
36	159
37	119
38	60
39	10
41	40
42	119
43	159
44	469
45	99
47	109
48	129
49	849
50	189
51	319
52	40
53	70
54	20
56	10
57	40
58	10
60	50
61	229
62	9389
63	9999
64	3179
65	3299
66	70
67	10
69	10
76	30
77	399
78	30
79	169
80	10
81	109
82	10
83	40
84	10
92	10
93	5369
94	139
95	1749
96	40
97	10
106	70
107	159
108	30
109	60
113	50
115	30
125	50
127	20
