Mass Spectrum: 1-Propene, 3-methoxy-
Formula: C4 H8 O
CAS: 627-40-7
Molecular weight: 72
m/z	RELATIVE INTENSITY
14	100
15	1241
16	50
17	40
18	190
25	70
26	480
27	2102
28	961
29	4724
30	150
31	591
32	170
33	90
36	30
37	280
38	641
39	4504
40	601
41	9999
42	931
44	170
45	5245
46	140
53	230
55	320
56	340
57	2642
58	220
69	40
71	6045
72	9839
73	480
74	40
