Mass Spectrum: 1-Propanamine, N-nitro-
Formula: C3 H8 N2 O2
CAS: 627-07-6
Molecular weight: 104
Origin: O.S. Chizhov, Zelinskii Inst.Org.Chem., Acad.Sci., Moscow,USSR w, USSR
m/z	RELATIVE INTENSITY
28	9999
29	3700
30	6300
39	2930
41	4040
42	1670
43	1480
44	4620
45	2520
46	4400
57	1600
75	5200
104	130
