Mass Spectrum: Phosphine, diethyl-
Formula: C4 H11 P
CAS: 627-49-6
Molecular weight: 90
m/z	RELATIVE INTENSITY
26	400
27	2666
28	867
29	4933
31	5333
34	3533
41	1200
43	467
44	467
45	3333
46	400
47	1533
56	200
57	2200
58	2133
59	4533
60	2133
61	1333
62	9999
73	533
74	1800
75	2000
89	467
90	5533
91	333
