Mass Spectrum: Hexanedioic acid, monomethyl ester
Formula: C7 H12 O4
CAS: 627-91-8
Molecular weight: 160
Origin: Japan AIST/NIMC Database- Spectrum MS-NW-6401
m/z	RELATIVE INTENSITY
12	40
13	30
14	199
15	4099
16	80
17	70
18	389
19	20
25	30
26	629
27	3689
28	2289
29	3379
30	189
31	1609
32	169
33	169
35	10
36	60
37	70
38	159
39	2129
40	319
41	4759
42	2169
43	8279
44	699
45	1959
46	70
47	40
48	10
49	40
50	169
51	229
52	109
53	649
54	1699
55	9649
56	1299
57	1179
58	869
59	9159
60	1509
61	109
62	20
63	20
64	10
65	40
66	40
67	70
68	849
69	1989
70	119
71	349
72	839
73	839
74	9999
75	409
76	60
77	30
78	10
79	20
80	20
81	159
82	1289
83	3629
84	429
85	219
86	199
87	2889
88	309
89	30
91	10
92	10
93	10
94	10
95	30
96	20
97	90
98	40
99	319
100	4869
101	5759
102	359
103	40
105	20
108	20
109	30
110	509
111	3079
112	249
113	159
114	7129
115	639
116	70
117	10
127	30
128	779
129	3709
130	269
131	40
132	10
141	10
142	359
143	229
144	20
