Mass Spectrum: 1-Propanol, 3-chloro-
Formula: C3 H7 Cl O
CAS: 627-30-5
Molecular weight: 94
Origin: NIST Mass Spectrometry Data Center, 1990.
m/z	RELATIVE INTENSITY
14	168
15	372
16	99
25	182
26	1538
27	4074
28	7344
29	4892
30	2087
31	9378
36	255
37	348
38	649
39	1376
40	567
41	1939
42	272
43	743
44	203
45	288
49	630
51	246
55	171
57	6392
58	9999
59	356
61	135
62	194
63	285
64	169
65	201
76	1445
78	444
93	153
95	52
