Mass Spectrum: dl-Citrulline
Formula: C6 H13 N3 O3
CAS: 627-77-0
Molecular weight: 175
Origin: Japan AIST/NIMC Database- Spectrum MS-NW-1922
m/z	RELATIVE INTENSITY
12	109
13	20
14	99
15	469
16	979
17	1379
18	2619
19	10
25	30
26	409
27	1259
28	4599
29	1149
30	5709
31	279
32	149
33	20
34	10
36	50
37	119
38	289
39	1289
40	579
41	3389
42	2319
43	6639
44	3969
45	249
46	90
49	10
50	70
51	169
52	309
53	299
54	859
55	739
56	6389
57	1529
58	3139
59	199
60	90
61	30
63	20
64	60
65	80
66	159
67	379
68	1419
69	9999
70	3869
71	269
72	30
73	80
74	169
75	279
76	20
77	30
78	90
79	80
80	119
81	99
82	299
83	299
84	289
85	709
86	619
87	209
88	20
89	30
91	30
92	60
93	99
94	139
95	249
96	279
97	809
98	169
99	129
100	90
101	139
102	30
103	109
104	30
105	20
106	20
107	50
108	40
109	80
110	169
111	289
112	509
113	539
114	579
115	119
116	20
117	10
118	30
119	30
120	50
121	30
122	40
123	40
124	30
125	30
126	20
127	20
128	20
129	40
130	20
131	20
132	20
133	40
134	30
135	159
136	129
137	159
138	199
139	189
140	379
141	60
144	10
145	30
146	30
147	60
148	60
149	50
150	60
151	50
152	20
153	20
154	10
156	20
157	30
158	40
159	20
160	10
170	20
171	30
172	30
173	40
174	40
175	90
176	109
177	30
178	10
