Mass Spectrum: Butanoic acid, 4-chloro-
Formula: C4 H7 Cl O2
CAS: 627-00-9
Molecular weight: 122
Origin: NIST Mass Spectrometry Data Center
m/z	RELATIVE INTENSITY
14	10
15	20
25	10
26	130
27	601
28	230
29	280
30	10
31	80
34	10
35	30
36	60
37	110
38	200
39	1031
40	240
41	1872
42	1772
43	701
44	100
45	1651
46	30
47	30
48	30
49	470
50	70
51	170
52	20
53	30
54	10
55	290
56	50
57	120
58	330
60	9999
61	290
62	90
63	110
64	20
65	40
66	10
67	10
68	130
69	100
70	10
71	30
72	10
73	150
74	10
75	70
76	80
77	100
78	40
79	30
81	10
85	60
86	140
87	390
88	20
104	70
105	150
106	30
107	50
