Mass Spectrum: 2-Chloroethyl methyl ether
Formula: C3 H7 Cl O
CAS: 627-42-9
Molecular weight: 94
Origin: Chuck Anderson, Aldrich Chemical Co.
m/z	RELATIVE INTENSITY
13	10
14	58
15	644
16	14
17	17
25	14
26	154
27	691
28	161
29	937
30	58
31	242
32	3
33	21
35	20
36	13
37	9
38	5
39	8
40	4
41	27
42	103
43	591
45	9999
46	219
47	54
48	46
49	274
50	43
51	87
52	9
53	3
57	11
58	24
59	10
60	15
61	45
62	68
63	267
64	26
65	80
66	1
76	7
77	9
78	5
79	3
93	20
94	671
95	27
96	232
97	8
