Mass Spectrum: 2-Propyn-1-ol, acetate
Formula: C5 H6 O2
CAS: 627-09-8
Molecular weight: 98
Origin: NIST Mass Spectrometry Data Center, 1990.
m/z	RELATIVE INTENSITY
12	43
13	117
14	354
15	970
16	38
18	27
24	41
25	148
26	356
27	370
28	257
29	491
30	35
31	47
36	101
37	616
38	1195
39	3523
40	166
41	173
42	1248
43	9999
44	281
45	111
52	37
53	257
54	51
55	556
56	303
69	69
70	477
71	18
83	64
