Mass Spectrum: Propane, 1,3-diiodo-
Formula: C3 H6 I2
CAS: 627-31-6
Molecular weight: 296
Origin: RADIAN CORP
m/z	RELATIVE INTENSITY
15	280
25	50
26	390
27	1510
36	30
37	460
38	900
39	5720
40	740
41	9999
42	1540
43	30
127	3610
128	570
129	10
139	120
141	1370
153	60
155	120
169	9350
254	480
296	1820
