Mass Spectrum: N,N-Bis(2-hydroxyethyl)-2-naphthylamine
Formula: C14 H17 N O2
CAS: 6270-13-9
Molecular weight: 231
Origin: NIST Mass Spectrometry Data Center, 1994
m/z	RELATIVE INTENSITY
4	38
14	25
15	293
16	62
17	53
18	116
19	533
26	54
27	753
28	512
29	779
30	198
31	1220
32	75
38	43
39	171
40	44
41	117
42	312
43	320
44	218
45	1760
46	43
50	213
51	428
52	99
54	54
62	162
63	391
64	112
65	114
71	50
73	50
74	220
75	258
76	296
77	846
78	135
84	48
85	49
86	71
87	58
88	120
89	81
91	45
98	73
99	107
100	257
101	373
102	193
103	55
113	96
114	83
115	1026
116	158
126	937
127	3637
128	3176
129	1999
130	196
139	110
140	143
141	541
142	76
143	162
151	41
152	122
153	129
154	709
155	559
156	4073
157	768
158	87
166	52
167	187
168	158
169	47
170	243
171	51
179	36
180	85
182	130
194	39
198	251
200	9999
201	1488
202	146
211	21
213	54
227	40
229	73
231	1978
232	315
