Mass Spectrum: Phenol, 2-(phenylmethoxy)-
Formula: C13 H12 O2
CAS: 6272-38-4
Molecular weight: 200
Origin: NIST Mass Spectrometry Data Center, 1990.
m/z	RELATIVE INTENSITY
18	1
26	62
27	261
28	19
29	45
30	4
37	16
38	84
39	537
40	39
41	105
42	14
43	9
49	15
50	172
51	340
52	297
53	280
54	37
55	53
61	23
62	83
63	280
64	119
65	1130
66	81
74	18
75	18
76	20
77	89
78	15
79	44
80	100
81	276
82	19
86	6
87	14
89	219
91	9999
92	773
93	31
94	4
105	22
106	7
107	9
109	81
110	18
115	19
121	11
127	9
128	23
129	6
141	12
151	8
152	24
153	26
181	1
197	14
198	13
200	493
201	78
202	10
