Mass Spectrum: 4'-Methoxy-3'-nitroacetophenone
Formula: C9 H9 N O4
CAS: 6277-38-9
Molecular weight: 195
Origin: NIST Mass Spectrometry Data Center
m/z	RELATIVE INTENSITY
14	110
15	731
29	210
30	571
38	370
39	390
42	320
43	3043
46	130
50	1081
51	871
52	240
53	390
61	310
62	721
63	1501
64	330
65	320
66	120
73	170
74	651
75	871
76	1982
77	911
78	530
79	330
89	290
90	190
91	1061
92	200
93	160
94	200
104	2632
105	3443
106	1621
107	290
119	1531
120	330
121	160
122	270
133	1041
134	260
149	180
150	350
165	190
180	9999
181	951
195	3053
196	320
