Mass Spectrum: 1-Methyl-2-dimethyl-(isopropyl)-silyloxybenzene
Formula: C12 H20 O Si
CAS: 62790-80-1
Molecular weight: 208
Origin: Zaikin V.G., TIPS RAS, Moscow, Russia
m/z	RELATIVE INTENSITY
27	60
28	20
31	60
36	60
39	150
41	110
43	250
44	50
45	260
47	80
50	30
51	100
52	60
55	20
57	30
58	70
59	611
60	40
61	80
63	80
64	30
65	380
66	50
67	60
68	40
69	30
71	30
73	280
74	60
75	601
76	50
77	200
78	70
79	160
81	30
82	350
83	70
85	40
89	130
90	80
91	4544
92	350
94	30
95	40
101	30
102	40
103	90
105	190
107	30
109	30
115	110
119	30
121	90
127	30
128	180
129	300
130	120
131	30
133	60
135	2072
136	260
137	130
141	40
143	300
144	360
145	50
147	100
148	40
149	1051
150	160
151	150
161	60
163	370
164	80
165	9999
166	1471
167	400
168	30
177	30
193	190
194	30
208	2302
209	180
