Mass Spectrum: Dimethyl-(isopropyl)-silyloxybenzene
Formula: C11 H18 O Si
CAS: 62790-74-3
Molecular weight: 194
Origin: Zaikin V.G., TIPS RAS, Moscow, Russia
m/z	RELATIVE INTENSITY
39	30
43	60
45	100
47	30
51	90
59	100
61	40
65	40
73	60
75	350
76	40
77	310
78	30
91	230
95	180
121	180
123	60
135	200
136	30
137	170
149	40
151	9999
152	1101
153	350
163	30
179	90
194	1241
195	210
196	50
