Mass Spectrum: 1,1'-Biphenyl, 2,2',4,6-Tetrachloro-
Formula: C12 H6 Cl4
CAS: 62796-65-0
Molecular weight: 290
Origin: T.L.Hayes, Battelle Columbus Laboratories, Columbus, OH 43221
m/z	RELATIVE INTENSITY
30	13
31	11
32	110
33	5
35	205
36	404
37	443
38	439
39	507
40	28
41	39
42	21
43	96
44	44
45	18
47	152
48	61
49	426
50	1096
51	793
52	74
53	3
54	16
55	135
56	43
57	28
58	19
60	359
61	1300
62	1130
63	501
64	36
65	8
66	45
67	114
68	35
69	38
70	11
71	92
72	330
73	1310
74	2606
75	2280
76	282
77	54
78	10
79	551
80	222
81	43
82	27
83	111
84	629
85	1015
86	1034
87	608
88	81
89	20
91	46
92	2651
93	1091
95	77
96	289
97	1026
98	1964
99	1472
100	252
101	81
102	35
103	23
104	24
106	52
107	217
108	573
109	1523
110	4565
111	2959
112	434
113	170
114	146
115	163
116	86
117	25
118	50
119	71
120	276
121	423
122	968
123	1188
124	342
125	297
126	8
127	1356
128	1545
129	818
130	24
131	91
132	256
133	468
134	279
135	367
136	147
137	121
138	65
141	21
142	15
143	83
144	138
145	808
146	1082
147	879
148	515
149	1942
150	4722
151	619
152	45
153	4
154	4
155	29
156	55
157	206
158	310
159	282
160	349
161	105
162	92
163	12
166	3
167	50
168	63
169	170
170	225
171	169
172	144
173	78
174	32
175	18
177	3
179	12
180	18
181	169
182	144
183	370
184	2187
185	1874
186	923
187	604
188	91
190	3
191	9
192	14
193	139
194	266
195	126
196	181
197	55
198	36
219	225
220	9999
221	1677
222	7545
223	987
224	1257
225	158
254	242
255	3535
256	708
257	3333
258	515
259	1082
260	146
261	123
290	6100
291	829
292	7434
293	1004
294	3777
295	462
296	835
297	106
298	78
