Mass Spectrum: m-Cresol, TBDMS derivative
Formula: C13 H22 O Si
CAS: 62790-75-4
Molecular weight: 222
Origin: Zaikin V.G., TIPS RAS, Moscow, Russia
m/z	RELATIVE INTENSITY
28	40
59	50
65	30
73	60
75	140
79	30
91	571
92	40
105	90
109	80
135	230
136	30
137	40
149	250
150	50
151	110
163	80
164	50
165	9999
166	2012
167	561
168	50
207	150
222	1982
223	380
224	90
