Mass Spectrum: Triethyl methanetricarboxylate
Formula: C10 H16 O6
CAS: 6279-86-3
Molecular weight: 232
Origin: Japan AIST/NIMC Database- Spectrum MS-NW-6078
m/z	RELATIVE INTENSITY
15	439
16	30
17	10
18	70
24	10
25	30
26	319
27	2099
28	509
29	9999
30	259
31	2129
32	60
39	30
40	99
41	319
42	1049
43	1389
44	499
45	2749
46	359
47	449
48	20
53	10
54	10
55	509
56	60
57	50
58	359
59	99
60	219
61	119
62	10
63	10
65	10
66	10
68	219
69	2379
70	239
71	119
72	20
73	189
74	30
75	129
76	20
77	10
83	10
84	10
85	40
86	2619
87	4499
88	879
89	109
90	10
91	10
96	80
97	179
98	80
99	90
100	20
101	20
103	40
104	599
105	349
106	20
110	10
112	30
113	99
114	1569
115	4179
116	289
117	50
119	10
123	10
124	139
125	20
126	10
127	10
130	30
131	149
132	629
133	1139
134	90
135	20
139	10
140	40
141	449
142	269
143	199
144	30
145	10
147	10
148	10
149	10
156	10
157	10
158	10
159	289
160	2709
161	479
162	60
168	10
171	10
173	10
176	20
177	70
185	10
186	60
187	1489
188	169
189	30
204	50
205	649
206	70
207	10
232	70
233	20
