Mass Spectrum: Hexadecanoic acid, ethyl ester
Formula: C18 H36 O2
CAS: 628-97-7
Molecular weight: 284
Origin: Japan AIST/NIMC Database- Spectrum MS-NW-5396
m/z	RELATIVE INTENSITY
14	10
15	30
17	20
18	90
19	10
26	50
27	689
28	219
29	2279
30	60
31	90
32	40
39	329
40	70
41	2689
42	609
43	3629
44	139
45	609
46	20
47	10
51	20
52	10
53	159
54	219
55	2339
56	589
57	2179
58	139
59	129
60	999
61	1229
62	40
63	10
65	30
66	20
67	339
68	189
69	1329
70	1209
71	929
72	60
73	1569
74	199
75	60
77	30
78	10
79	90
80	40
81	279
82	129
83	899
84	419
85	489
86	50
87	259
88	9999
89	1369
90	99
91	40
92	10
93	60
94	30
95	269
96	90
97	649
98	449
99	119
100	20
101	5599
102	519
103	60
104	10
106	10
107	60
108	10
109	139
110	50
111	289
112	129
113	60
114	20
115	619
116	80
117	10
121	60
122	10
123	70
124	30
125	149
126	30
127	40
128	10
129	279
130	99
131	10
135	60
136	10
137	30
138	20
139	90
140	20
141	20
143	559
144	129
145	20
149	40
151	10
152	20
153	50
154	10
155	20
157	1209
158	159
159	20
163	20
164	10
165	10
166	10
167	30
168	10
169	10
171	139
172	40
177	20
181	20
182	10
183	20
185	249
186	50
187	10
191	10
194	20
195	20
196	10
199	299
200	60
201	10
205	10
209	10
210	10
211	10
213	249
214	50
219	20
220	10
221	10
223	10
225	10
227	119
228	40
229	10
236	10
237	30
238	20
239	729
240	139
241	679
242	119
243	20
255	199
256	60
257	20
267	10
269	20
270	10
283	20
284	849
285	189
286	20
