Mass Spectrum: Pentane, 1-iodo-
Formula: C5 H11 I
CAS: 628-17-1
Molecular weight: 198
Origin: Japan AIST/NIMC Database- Spectrum MS-NW-1478
m/z	RELATIVE INTENSITY
15	80
26	119
27	1879
28	249
29	2309
30	40
37	30
38	90
39	1059
40	199
41	3009
42	829
43	9999
44	339
50	30
51	40
52	10
53	129
54	20
55	989
56	50
57	10
62	10
63	10
65	10
67	20
69	70
70	50
71	7319
72	429
73	10
127	209
128	60
141	119
153	10
154	20
155	229
169	10
198	949
199	50
