Mass Spectrum: Acetonitrile, 2,2'-iminobis-
Formula: C4 H5 N3
CAS: 628-87-5
Molecular weight: 95
Origin: Japan AIST/NIMC Database- Spectrum MS-IW-3711
m/z	RELATIVE INTENSITY
12	70
13	90
14	209
15	309
24	50
25	90
26	459
27	2279
28	6949
29	509
30	329
32	10
33	60
34	20
37	10
38	879
39	1289
40	4989
41	5749
42	2289
43	589
44	20
45	60
48	10
50	30
51	80
52	129
53	1359
54	149
55	1519
56	70
61	60
64	50
65	80
66	389
67	5149
68	7229
69	5309
70	239
91	10
92	30
93	60
94	9999
95	5139
96	269
