Mass Spectrum: 1,5-Hexadiyne
Formula: C6 H6
CAS: 628-16-0
Molecular weight: 78
Origin: Japan AIST/NIMC Database- Spectrum MS-NW-4647
m/z	RELATIVE INTENSITY
12	40
13	20
14	10
15	20
24	30
25	109
26	429
27	709
28	219
29	20
31	20
32	20
35	10
36	159
37	1209
38	1969
39	9999
40	349
41	50
42	10
43	30
44	309
45	10
48	60
49	429
50	3629
51	5119
52	8019
53	379
54	10
55	20
56	20
57	40
60	60
61	169
62	239
63	1029
64	60
65	10
72	40
73	359
74	1169
75	509
76	1649
77	7599
78	9759
79	649
80	20
