Mass Spectrum: Octane, 2-chloro-
Formula: C8 H17 Cl
CAS: 628-61-5
Molecular weight: 148
Origin: NIST Mass Spectrometry Data Center, 1990.
m/z	RELATIVE INTENSITY
27	2542
28	212
29	2202
39	3160
40	878
41	8500
42	3569
43	5204
44	203
49	164
50	138
51	369
52	177
53	940
54	875
55	8756
56	6535
57	3299
58	144
62	151
63	1158
65	469
66	92
67	717
68	890
69	4903
70	9999
71	1417
75	112
76	183
77	278
79	136
81	175
82	1696
83	5992
84	3738
85	291
97	625
105	528
107	173
112	1368
113	117
