Mass Spectrum: Propane, 1-isothiocyanato-
Formula: C4 H7 N S
CAS: 628-30-8
Molecular weight: 101
Origin: Japan AIST/NIMC Database- Spectrum MS-NW-7773
m/z	RELATIVE INTENSITY
12	20
13	20
14	80
15	329
17	10
18	60
25	40
26	509
27	4409
28	689
29	649
30	109
31	40
32	279
33	30
34	30
35	10
36	30
37	149
38	289
39	1869
40	479
41	5449
42	2669
43	6579
44	499
45	1239
46	239
47	70
48	10
50	10
51	70
52	80
53	10
54	70
55	20
56	30
57	99
58	339
59	889
60	1029
61	70
62	60
63	20
64	20
68	60
69	30
70	289
71	319
72	4939
73	479
74	279
75	30
76	30
82	10
83	30
84	80
85	40
86	229
87	30
88	10
99	20
100	339
101	9999
102	609
103	489
104	30
