Mass Spectrum: 1,2-Hydrazinedicarboxaldehyde
Formula: C2 H4 N2 O2
CAS: 628-36-4
Molecular weight: 88
Origin: Japan AIST/NIMC Database- Spectrum MS-NW-6351
m/z	RELATIVE INTENSITY
12	40
13	50
14	40
15	99
16	659
17	439
18	409
26	40
27	299
28	719
29	5959
30	1079
31	8389
32	9999
33	60
41	50
42	279
43	769
44	699
45	699
46	30
56	10
59	70
60	4169
61	229
62	10
70	50
71	20
87	10
88	3329
89	129
90	10
