Mass Spectrum: Butane, 1-ethoxy-
Formula: C6 H14 O
CAS: 628-81-9
Molecular weight: 102
Origin: NIST Mass Spectrometry Data Center, 1990.
m/z	RELATIVE INTENSITY
14	113
15	506
16	35
18	38
19	25
26	556
27	3365
28	1355
29	5094
30	627
31	7423
32	89
33	43
37	39
38	145
39	1215
40	39
41	4389
42	544
43	1151
44	286
45	934
46	30
47	109
50	49
51	67
52	26
53	107
54	26
55	802
56	2297
57	2602
58	26
59	9999
60	310
61	62
71	25
73	1154
74	60
87	192
101	66
102	234
