Mass Spectrum: Butanenitrile, 4-chloro-
Formula: C4 H6 Cl N
CAS: 628-20-6
Molecular weight: 103
Origin: Japan AIST/NIMC Database- Spectrum MS-NW-4982
m/z	RELATIVE INTENSITY
12	20
13	20
14	50
15	99
25	30
26	339
27	2399
28	309
29	30
35	30
36	109
37	159
38	239
39	739
40	469
41	9999
42	349
43	10
44	10
47	20
48	30
49	829
50	40
51	289
52	209
53	40
54	1709
55	80
56	10
57	20
60	10
61	60
62	60
63	1229
64	129
65	389
66	309
67	469
68	219
69	10
73	10
74	10
75	70
76	20
77	20
88	30
101	20
102	40
103	10
104	10
