Mass Spectrum: Peroxide, diethyl
Formula: C4 H10 O2
CAS: 628-37-5
Molecular weight: 90
Origin: N.C.PAUL M.O.D., AVIATION SUPPLY, E.R.D.E., WALTHAM ABBEY U
m/z	RELATIVE INTENSITY
12	30
13	60
14	260
15	3150
16	80
17	130
18	440
19	300
24	10
25	40
26	260
27	1540
28	1350
29	9999
30	670
31	1750
32	90
33	20
34	10
39	20
40	20
41	160
42	220
43	1720
44	320
45	3400
46	180
47	410
48	130
55	20
56	20
57	20
59	20
61	240
62	4000
63	100
76	60
90	2560
91	120
92	10
