Mass Spectrum: 1,4-Cyclohexadiene
Formula: C6 H8
CAS: 628-41-1
Molecular weight: 80
Origin: NIST Mass Spectrometry Data Center, 1990.
m/z	RELATIVE INTENSITY
15	169
25	49
26	540
27	1459
28	110
37	390
38	721
39	2410
40	422
41	311
49	309
50	2042
51	2320
52	1574
53	709
54	289
61	94
62	145
63	450
64	96
65	727
73	165
74	421
75	154
76	94
77	7323
78	2104
79	9999
80	7362
81	400
