Mass Spectrum: Butane, 1,4-diiodo-
Formula: C4 H8 I2
CAS: 628-21-7
Molecular weight: 310
Origin: RADIAN CORP
m/z	RELATIVE INTENSITY
26	40
27	1100
28	20
29	700
37	20
38	40
39	710
40	60
41	470
42	20
43	10
50	100
51	80
52	30
53	360
54	140
55	4960
56	550
57	20
60	10
62	30
71	10
75	10
92	20
127	1640
128	440
129	50
139	10
140	20
141	600
153	50
154	230
155	1820
156	30
183	9999
184	440
254	280
310	60
