Mass Spectrum: 2-Nonanol
Formula: C9 H20 O
CAS: 628-99-9
Molecular weight: 144
Origin: Japan AIST/NIMC Database- Spectrum MS-NW-4041
m/z	RELATIVE INTENSITY
15	60
18	20
26	20
27	559
28	40
29	649
30	20
31	119
38	10
39	339
40	70
41	1259
42	539
43	1299
44	599
45	9999
46	249
47	30
50	10
51	20
52	10
53	80
54	70
55	1349
56	839
57	739
58	139
59	60
65	10
67	80
68	60
69	1689
70	629
71	359
72	20
73	10
81	20
82	90
83	349
84	379
85	80
87	10
96	30
97	259
98	439
99	40
100	80
111	239
112	20
126	189
127	20
129	209
130	20
143	30
