Mass Spectrum: 2-Buten-1-ol, acetate
Formula: C6 H10 O2
CAS: 628-08-0
Molecular weight: 114
Origin: NIST Mass Spectrometry Data Center
m/z	RELATIVE INTENSITY
12	10
13	30
14	150
15	781
16	10
18	10
25	10
26	210
27	1431
28	440
29	1301
30	30
31	80
37	60
38	180
39	2482
40	200
41	621
42	450
43	9999
44	310
45	80
49	10
50	140
51	190
52	100
53	711
54	1421
55	2162
56	100
57	911
58	100
61	330
69	90
70	60
71	2032
72	2122
73	100
74	10
85	110
86	120
99	70
114	571
115	30
