Mass Spectrum: Ethylene glycol, dinitrate
Formula: C2 H4 N2 O6
CAS: 628-96-6
Molecular weight: 152
Origin: MINISTRY OF TECH., E.R.D.E., WALTHAM ABBEY, UK
m/z	RELATIVE INTENSITY
14	60
15	200
27	20
28	520
29	1400
30	2210
31	310
42	80
43	110
44	200
46	9999
57	10
76	1120
