Mass Spectrum: 1-Heptyne
Formula: C7 H12
CAS: 628-71-7
Molecular weight: 96
Origin: Japan AIST/NIMC Database- Spectrum MS-IW-5640
m/z	RELATIVE INTENSITY
15	50
26	129
27	1839
28	379
29	4569
30	109
37	99
38	289
39	2979
40	1169
41	7059
42	799
43	399
44	10
45	99
49	30
50	339
51	589
52	339
53	1789
54	3539
55	5099
56	2609
57	2839
58	129
61	40
62	90
63	179
64	30
65	709
66	309
67	4399
68	3019
69	209
70	209
71	20
74	20
75	10
77	319
78	50
79	1059
80	129
81	9999
82	729
83	20
91	90
92	10
93	70
94	20
95	939
96	99
