Mass Spectrum: Thiocyanic acid, butyl ester
Formula: C5 H9 N S
CAS: 628-83-1
Molecular weight: 115
m/z	RELATIVE INTENSITY
26	481
27	3846
28	1442
29	8989
39	1683
40	2356
41	9999
42	481
43	673
45	769
46	529
55	1106
56	2211
57	6826
58	385
59	817
60	625
72	481
86	385
87	721
88	288
100	481
114	433
115	2404
116	240
