Mass Spectrum: 1,4-Butanediol, diacetate
Formula: C8 H14 O4
CAS: 628-67-1
Molecular weight: 174
Origin: NIST Mass Spectrometry Data Center, 1994
m/z	RELATIVE INTENSITY
12	6
13	25
14	159
15	1050
16	19
17	1
18	5
19	6
26	66
27	374
28	199
29	382
30	32
31	128
37	5
39	305
40	69
41	404
42	930
43	9999
44	263
45	64
50	6
51	9
52	5
54	1683
55	390
56	22
57	42
58	156
59	6
60	5
61	786
62	19
63	6
69	13
71	839
72	88
73	476
74	14
81	7
84	57
86	191
87	111
88	11
89	17
99	8
100	29
101	139
102	32
103	93
104	28
114	130
115	15
131	16
132	6
