Mass Spectrum: 1-Propanol, 3-chloro-, acetate
Formula: C5 H9 Cl O2
CAS: 628-09-1
Molecular weight: 136
m/z	RELATIVE INTENSITY
12	10
13	10
14	70
15	440
16	10
17	10
18	50
25	10
26	110
27	480
28	500
29	470
30	90
31	480
32	30
35	10
36	10
37	30
38	50
39	340
40	90
41	1181
42	420
43	9999
44	270
45	370
46	10
47	10
48	10
49	280
50	10
51	90
52	10
53	10
55	40
56	10
57	370
58	530
59	40
60	160
61	3643
62	110
63	90
64	20
65	40
66	10
67	10
70	10
71	10
72	120
73	1541
74	60
75	90
76	1271
77	120
78	420
79	40
85	10
86	10
87	290
88	30
89	20
90	10
91	10
92	20
93	480
94	30
95	160
96	10
100	10
101	200
102	20
103	10
104	10
105	10
106	20
107	10
108	10
135	10
136	10
137	30
138	10
139	10
