Mass Spectrum: 1,2-Ethanediol, monoformate
Formula: C3 H6 O3
CAS: 628-35-3
Molecular weight: 90
m/z	RELATIVE INTENSITY
14	160
15	991
17	220
18	951
19	270
27	681
28	280
29	1802
30	220
31	9999
32	1211
33	2072
41	60
42	290
43	1241
44	1571
45	671
46	170
47	90
60	4224
61	310
62	300
72	70
73	60
