Mass Spectrum: Ethanol, 2,2'-oxybis-, diacetate
Formula: C8 H14 O5
CAS: 628-68-2
Molecular weight: 190
Origin: NIST Mass Spectrometry Data Center, 2007
m/z	RELATIVE INTENSITY
14	60
15	571
16	20
18	10
19	20
26	60
27	210
28	340
29	350
30	50
31	160
39	10
41	40
42	440
43	9288
44	340
45	340
46	10
57	50
58	110
59	20
60	10
61	200
62	10
69	10
70	210
71	10
72	30
73	220
74	30
75	60
87	9999
88	540
89	50
100	10
103	10
117	300
118	20
130	10
147	10
