Mass Spectrum: 2-Octanol, 2-methyl-
Formula: C9 H20 O
CAS: 628-44-4
Molecular weight: 144
Origin: NIST Mass Spectrometry Data Center, 1990.
m/z	RELATIVE INTENSITY
15	115
27	666
28	441
29	806
30	115
31	723
32	68
39	569
41	1506
42	273
43	2004
44	93
45	416
53	142
55	747
56	659
57	438
58	93
59	9999
60	346
67	80
69	1612
70	167
71	352
84	50
85	142
111	70
129	916
130	84
