Mass Spectrum: Pentane, 1,5-dichloro-
Formula: C5 H10 Cl2
CAS: 628-76-2
Molecular weight: 140
Origin: Japan AIST/NIMC Database- Spectrum MS-NW-1060
m/z	RELATIVE INTENSITY
14	10
15	70
26	219
27	1989
28	189
29	1689
30	30
35	20
36	90
37	50
38	139
39	1529
40	299
41	3729
42	4349
43	249
44	10
45	30
47	10
48	20
49	659
50	60
51	199
52	20
53	519
54	179
55	9999
56	589
57	20
61	80
62	219
63	929
64	90
65	299
66	30
67	779
68	4809
69	2249
70	109
75	309
76	449
77	139
78	139
79	10
85	50
86	40
89	20
91	789
92	40
93	259
94	10
104	939
105	60
106	309
107	20
