Mass Spectrum: Isobutyl ether
Formula: C8 H18 O
CAS: 628-55-7
Molecular weight: 130
Origin: Japan AIST/NIMC Database- Spectrum MS-NW- 971
m/z	RELATIVE INTENSITY
15	30
18	10
26	20
27	399
28	80
29	1239
30	30
31	99
38	10
39	419
40	70
41	1929
42	219
43	359
44	40
45	199
47	50
51	10
53	30
54	10
55	199
56	469
57	9999
58	459
59	169
69	10
71	10
72	10
73	99
87	819
88	70
89	10
101	40
130	259
131	20
