Mass Spectrum: Pentane, 1-methoxy-
Formula: C6 H14 O
CAS: 628-80-8
Molecular weight: 102
Origin: NIST Mass Spectrometry Data Center
m/z	RELATIVE INTENSITY
14	10
15	130
26	80
27	691
28	220
29	1011
30	40
31	140
33	480
34	10
37	20
38	70
39	881
40	150
41	1621
42	2102
43	771
45	9999
46	280
47	190
49	10
50	40
51	70
52	20
53	150
54	80
55	2082
56	460
57	140
58	130
59	550
60	50
61	20
62	10
63	10
65	20
66	10
67	40
68	10
69	270
70	3783
71	350
72	20
73	60
74	190
75	10
84	10
87	30
101	40
102	190
103	20
