Mass Spectrum: Pentane, 1-nitro-
Formula: C5 H11 N O2
CAS: 628-05-7
Molecular weight: 117
Origin: Japan AIST/NIMC Database- Spectrum MS-NW-7424
m/z	RELATIVE INTENSITY
14	10
15	70
26	169
27	2119
28	379
29	2789
30	559
31	269
32	20
37	50
38	119
39	1489
40	289
41	5209
42	1929
43	9999
44	369
45	779
46	179
49	10
50	60
51	99
52	40
53	249
54	99
55	1939
56	299
57	189
58	40
59	259
60	179
61	60
62	979
63	40
65	20
67	99
68	40
69	1199
70	649
71	1989
72	129
74	10
75	40
76	70
77	10
82	10
83	10
84	10
85	20
88	329
89	20
100	20
