Mass Spectrum: Hexanamide
Formula: C6 H13 N O
CAS: 628-02-4
Molecular weight: 115
Origin: J.A.GILPIN DOW CHEMICAL CO., MIDLAND, MICHIGAN, USA
m/z	RELATIVE INTENSITY
15	40
27	700
28	200
29	600
30	60
31	40
41	900
42	500
43	2400
44	2700
45	100
55	600
56	100
57	200
58	20
59	9999
60	300
71	200
72	1800
73	400
74	20
86	900
87	50
99	100
100	30
114	40
115	50
116	70
