Mass Spectrum: 5-Chlorovaleronitrile
Formula: C5 H8 Cl N
CAS: 6280-87-1
Molecular weight: 117
Origin: NIST Mass Spectrometry Data Center, 1992
m/z	RELATIVE INTENSITY
12	16
13	40
14	87
15	204
16	1
24	11
25	75
26	820
27	2711
28	1420
29	332
30	24
35	61
36	82
37	251
38	489
39	2247
40	715
41	5980
42	367
43	14
44	1
47	41
49	830
50	240
51	652
52	498
53	1
54	9999
55	2560
56	114
57	3
59	3
60	27
61	123
62	160
63	337
64	140
65	148
66	189
67	95
68	506
69	22
72	6
73	34
75	236
76	59
77	157
78	26
79	47
80	411
81	178
82	1275
83	71
84	4
87	7
88	55
89	58
90	37
91	23
92	9
102	15
103	3
104	7
116	36
117	3
118	21
