Mass Spectrum: 4-Chloro-2-nitrobenzoic acid
Formula: C7 H4 Cl N O4
CAS: 6280-88-2
Molecular weight: 201
Origin: Japan AIST/NIMC Database- Spectrum MS-NW-3170
m/z	RELATIVE INTENSITY
16	60
17	20
18	70
25	30
26	60
27	129
28	539
29	80
30	3479
31	30
32	60
35	30
36	129
37	589
38	509
39	629
40	50
41	119
42	30
43	50
44	1119
45	619
46	179
47	60
48	40
49	369
50	1779
51	859
52	199
53	899
54	70
55	90
56	20
57	50
60	229
61	489
62	569
63	2309
64	539
65	99
66	90
67	80
68	109
69	90
71	30
72	109
73	2919
74	2629
75	4209
76	1059
77	159
78	80
79	99
80	30
82	20
83	30
84	449
85	399
86	189
87	319
88	70
89	109
90	209
91	299
92	209
93	30
95	20
97	80
98	279
99	8609
100	609
101	2759
102	159
103	40
104	30
105	20
107	109
108	119
109	269
110	1319
111	3769
112	779
113	1199
114	119
115	799
116	60
117	239
118	40
119	40
120	30
121	20
122	20
123	20
124	40
125	99
126	919
127	4599
128	639
129	1489
130	119
131	30
136	30
137	70
138	249
139	80
140	519
141	60
142	149
143	929
144	70
145	349
146	20
148	20
149	30
153	1409
154	189
155	2949
156	299
157	3569
158	269
159	889
160	60
170	20
171	919
172	90
173	389
174	30
175	20
183	169
184	679
185	319
186	239
187	99
201	9999
202	899
203	3139
204	269
205	50
