Mass Spectrum: N,N-Dipropylformamide
Formula: C7 H15 N O
CAS: 6282-00-4
Molecular weight: 129
Origin: NIST Mass Spectrometry Data Center, 1994
m/z	RELATIVE INTENSITY
4	11
14	26
15	273
18	87
26	191
27	2158
28	1400
29	1325
30	6736
31	154
32	33
37	24
39	1162
40	279
41	2877
42	1434
43	2554
44	1825
45	64
46	151
52	39
53	26
54	138
55	49
56	347
57	26
58	2752
59	692
60	43
68	97
69	19
70	293
71	19
72	3497
73	299
84	85
86	622
87	49
88	132
98	80
100	9999
101	664
102	40
114	412
115	31
129	2211
130	221
