Mass Spectrum: Formamide, N-octyl-
Formula: C9 H19 N O
CAS: 6282-06-0
Molecular weight: 157
m/z	RELATIVE INTENSITY
26	180
27	2833
28	2252
29	3283
30	9999
31	190
38	60
39	1481
40	280
41	4094
42	1571
43	2522
44	951
45	290
46	3914
47	60
50	30
51	80
52	50
53	310
54	300
55	2012
56	1441
57	811
58	9198
59	7847
60	571
61	30
65	40
66	20
67	170
68	180
69	1001
70	951
71	220
72	2252
73	1081
74	80
77	50
78	30
79	40
80	20
81	60
82	100
83	460
84	420
85	100
86	1111
87	571
88	40
91	20
96	30
97	90
98	50
99	50
100	2362
101	510
102	40
104	50
110	30
112	110
113	30
114	931
115	250
116	30
122	20
126	30
128	611
129	390
130	40
140	110
142	270
143	30
156	310
157	440
158	80
