Mass Spectrum: 1-Propanone, 1-(4-chlorophenyl)-
Formula: C9 H9 Cl O
CAS: 6285-05-8
Molecular weight: 168
Origin: B.C.SAWHNEY NEW YORK UNIVERSITY, NEW YORK, USA
m/z	RELATIVE INTENSITY
12	16
13	17
14	83
15	255
16	8
17	12
18	31
24	3
25	19
26	170
27	694
28	205
29	611
31	6
32	51
35	15
36	39
37	76
38	143
39	113
40	37
41	12
42	23
43	35
44	15
45	7
47	23
48	18
49	141
50	1279
51	603
52	32
53	61
54	4
55	138
56	34
57	165
58	2
59	8
60	35
61	154
62	111
63	174
64	12
65	25
66	23
69	8
72	29
73	198
74	652
75	2039
76	442
77	194
78	13
79	9
83	6
84	81
85	280
86	54
87	110
88	9
89	92
90	20
91	16
96	10
97	13
98	14
99	30
101	32
102	22
103	58
104	122
105	21
108	11
109	19
110	85
111	3310
112	59
113	1073
114	17
123	256
125	47
127	13
131	7
132	11
133	51
136	8
137	9
138	56
139	9999
140	18
141	3162
149	8
151	8
166	23
167	34
168	773
169	14
170	251
