Mass Spectrum: Hexane, 3,4-bis(1,1-dimethylethyl)-2,2,5,5-tetramethyl-
Formula: C18 H38
CAS: 62850-21-9
Molecular weight: 254
Origin: CHBEAM,111( )72(1978); C. RUCHARDT
m/z	RELATIVE INTENSITY
41	700
43	300
56	300
57	9999
58	400
69	200
70	100
71	600
85	200
97	200
112	100
127	100
141	100
