Mass Spectrum: .alpha.,.beta.-Dibromohydrocinnamic acid
Formula: C9 H8 Br2 O2
CAS: 6286-30-2
Molecular weight: 306
Origin: NIST Mass Spectrometry Data Center
m/z	RELATIVE INTENSITY
12	10
15	10
16	30
25	10
26	170
27	350
29	60
31	10
36	60
37	180
38	390
39	801
40	70
41	80
42	40
43	70
44	1121
45	651
46	90
47	10
48	10
49	210
50	2112
51	4364
52	711
53	220
54	30
55	90
59	50
60	90
61	240
62	540
63	1091
64	150
65	380
67	10
68	20
69	150
70	20
71	50
72	10
73	230
74	1281
75	1051
76	1321
77	5915
78	871
79	741
80	981
81	440
82	941
84	10
85	40
86	80
87	170
88	30
89	200
90	130
91	2302
92	410
93	50
94	140
95	20
97	40
98	190
99	60
100	20
101	340
102	3653
103	9999
104	1451
105	540
106	140
107	951
108	130
109	20
111	10
112	10
113	10
115	10
117	20
118	80
119	440
120	751
121	120
122	220
123	20
125	30
127	40
128	60
129	240
130	430
131	1832
132	180
133	20
135	40
136	30
137	10
138	50
139	20
141	20
143	30
144	10
145	20
147	9248
148	6055
149	601
150	60
151	20
153	30
155	10
156	10
157	160
158	20
159	60
163	10
169	60
170	40
171	60
172	10
181	30
182	2122
183	280
184	2082
185	250
186	10
191	10
202	90
204	30
225	10
226	100
227	440
228	150
229	410
230	40
262	10
