Mass Spectrum: 1-Pentadecanol acetate
Formula: C17 H34 O2
CAS: 629-58-3
Molecular weight: 270
Origin: NIST Mass Spectrometry Data Center
m/z	RELATIVE INTENSITY
15	40
26	20
27	310
28	90
29	881
30	20
31	20
39	440
40	110
41	3463
42	1101
43	9999
44	300
45	60
50	10
51	20
52	20
53	290
54	811
55	5665
56	3443
57	4574
58	370
59	80
61	4414
62	100
63	20
65	50
66	90
67	1021
68	1521
69	4594
70	3203
71	2052
72	120
73	500
74	30
75	10
77	30
78	10
79	110
80	50
81	581
82	2622
83	5525
84	2242
85	1181
86	90
87	70
88	30
91	20
93	20
94	20
95	280
96	1121
97	4694
98	1641
99	260
100	20
101	100
102	30
108	10
109	90
110	460
111	2482
112	901
113	130
114	10
115	30
116	470
117	30
122	10
123	40
124	260
125	1021
126	550
127	90
128	10
129	30
130	60
137	20
138	150
139	290
140	310
141	50
142	10
143	10
152	70
153	120
154	190
155	30
156	10
166	30
167	50
168	70
169	10
170	10
180	20
181	30
182	460
183	70
184	10
198	10
208	10
210	230
211	40
255	10
