Mass Spectrum: Octane, 1,1'-oxybis-
Formula: C16 H34 O
CAS: 629-82-3
Molecular weight: 242
Origin: Chuck Anderson, Aldrich Chemical Co.
m/z	RELATIVE INTENSITY
15	14
26	29
27	517
28	196
29	1459
30	51
31	103
32	5
37	7
38	14
39	477
41	4407
42	1816
43	6244
44	288
45	262
46	9
47	5
50	8
51	18
52	10
53	178
54	168
55	3101
56	2979
57	9999
58	438
59	28
65	25
66	33
67	354
68	1152
69	3224
70	2346
71	8448
72	446
73	68
74	3
77	14
79	30
80	6
81	121
82	836
83	2214
84	2611
85	244
86	13
87	43
88	1
95	31
96	6
97	209
98	20
99	10
101	5
111	724
112	938
113	755
114	58
115	5
129	37
131	103
132	8
143	59
144	5
185	14
199	11
243	13
