Mass Spectrum: Pentadecane, 1-bromo-
Formula: C15 H31 Br
CAS: 629-72-1
Molecular weight: 290
Origin: NIST Mass Spectrometry Data Center, 1990.
m/z	RELATIVE INTENSITY
14	88
27	1273
28	788
29	2835
32	57
39	1377
41	8567
42	1887
43	9521
44	384
53	605
54	855
55	7813
56	2544
57	9999
58	472
65	108
67	851
68	641
69	5134
70	1856
71	6139
72	368
79	167
80	110
81	341
82	490
83	2812
84	896
85	3446
86	271
93	73
95	144
96	189
97	1666
98	415
99	898
107	250
109	248
110	74
111	571
112	206
113	535
121	147
123	136
125	128
126	115
127	369
135	7030
137	6805
138	305
141	248
148	138
149	1297
150	219
151	1252
155	142
163	188
165	163
