Mass Spectrum: 1-Hexadecyne
Formula: C16 H30
CAS: 629-74-3
Molecular weight: 222
Origin: Japan AIST/NIMC Database- Spectrum MS-NW-5352
m/z	RELATIVE INTENSITY
15	40
26	60
27	1609
28	149
29	3209
30	80
36	10
37	10
38	50
39	1579
40	409
41	7089
42	1229
43	7789
44	269
45	10
50	50
51	179
52	149
53	1139
54	2809
55	6409
56	1809
57	4329
58	209
59	10
62	10
63	40
64	10
65	319
66	539
67	7109
68	3069
69	3579
70	1239
71	1329
72	80
73	10
75	10
76	10
77	329
78	99
79	949
80	579
81	9999
82	6049
83	2909
84	669
85	609
86	40
89	10
91	179
92	50
93	299
94	219
95	4669
96	3839
97	1969
98	369
99	60
103	10
104	10
105	30
106	10
107	80
108	70
109	1819
110	689
111	469
112	179
113	40
115	10
117	10
119	10
121	30
122	20
123	419
124	219
125	139
126	80
127	20
135	10
137	169
138	109
139	50
140	60
141	20
149	20
151	60
152	70
153	30
154	40
155	10
164	10
165	30
166	30
167	10
168	10
179	20
180	10
182	20
193	10
194	10
196	10
207	10
222	10
