Mass Spectrum: 1-Hexadecanol, acetate
Formula: C18 H36 O2
CAS: 629-70-9
Molecular weight: 284
Origin: NIST Mass Spectrometry Data Center
m/z	RELATIVE INTENSITY
15	40
26	20
27	290
28	100
29	911
30	30
38	10
39	400
40	110
41	3473
42	1081
43	9999
44	300
45	60
51	20
52	10
53	260
54	821
55	5525
56	3223
57	4824
58	350
59	80
61	4464
62	100
63	20
65	50
66	80
67	1011
68	1461
69	4484
70	2923
71	2172
72	130
73	470
74	20
75	10
77	30
78	10
79	100
80	50
81	611
82	2622
83	5475
84	2092
85	1281
86	100
87	60
88	20
91	10
93	20
94	20
95	300
96	1151
97	4834
98	1531
99	290
101	90
102	30
107	10
108	10
109	110
110	470
111	2622
112	891
113	150
114	20
115	20
116	440
117	30
122	10
123	60
124	260
125	1131
126	530
127	90
128	10
129	20
130	50
137	30
138	160
139	340
140	330
141	60
142	10
143	10
152	90
153	140
154	180
155	40
156	10
166	50
167	70
168	130
169	20
180	20
181	30
182	40
183	10
194	10
195	20
196	350
197	60
198	10
212	10
222	10
224	200
225	40
269	10
