Mass Spectrum: Hexadecanal
Formula: C16 H32 O
CAS: 629-80-1
Molecular weight: 240
Origin: V.G. Zaikin, R.S.Borisov, TIPS RAS, Moscow, Russia
m/z	RELATIVE INTENSITY
26	110
27	1151
28	1231
29	3083
30	60
31	30
37	10
38	30
39	881
40	190
41	6376
42	1481
43	9218
44	2793
45	1271
46	20
50	10
51	30
52	20
53	410
54	1571
55	6816
56	3113
57	9318
58	611
59	80
65	70
66	831
67	4894
68	6596
69	5295
70	2783
71	4584
72	791
73	90
77	50
78	10
79	300
80	350
81	4774
82	9999
83	6856
84	1852
85	2582
86	330
87	20
91	30
93	140
94	280
95	4834
96	6256
97	3934
98	1071
99	711
100	80
107	40
108	100
109	2422
110	2012
111	1591
112	651
113	260
114	30
121	20
122	70
123	1281
124	1121
125	591
126	390
127	160
128	10
135	10
136	30
137	721
138	671
139	170
140	260
141	100
151	210
152	370
153	100
154	200
155	50
165	210
166	400
167	70
168	190
169	30
179	100
180	130
181	10
193	40
194	480
195	50
196	550
197	90
212	20
222	180
223	10
240	10
