Mass Spectrum: 3-Tetradecanone
Formula: C14 H28 O
CAS: 629-23-2
Molecular weight: 212
m/z	RELATIVE INTENSITY
12	10
13	10
14	30
15	110
16	10
17	10
18	20
25	10
26	250
27	2853
28	961
29	6676
30	170
31	80
32	20
37	20
38	40
39	1021
40	230
41	4044
42	1081
43	5305
44	190
45	50
50	20
51	50
52	40
53	330
54	270
55	2472
56	801
57	9849
58	500
59	180
60	10
63	20
65	50
66	40
67	410
68	180
69	741
70	380
71	1842
72	9999
73	3063
74	150
75	10
77	40
78	10
79	70
80	30
81	390
82	180
83	581
84	320
85	3063
86	280
87	30
88	20
89	10
91	20
93	30
95	631
96	260
97	370
98	190
99	410
100	50
101	20
105	10
107	20
108	10
109	400
110	160
111	130
112	60
113	140
114	170
115	20
121	10
123	140
124	70
125	30
126	10
127	80
128	70
129	10
135	20
136	10
137	20
138	280
139	40
140	130
141	130
142	20
149	20
150	10
151	20
152	20
153	10
154	10
155	70
156	30
159	30
164	10
165	60
166	20
168	10
169	60
170	30
180	10
183	3313
184	450
185	50
193	10
194	50
195	10
196	10
197	10
198	10
211	10
212	270
213	70
