Mass Spectrum: Heptadecane
Formula: C17 H36
CAS: 629-78-7
Molecular weight: 240
Origin: Japan AIST/NIMC Database- Spectrum MS-NW-2741
m/z	RELATIVE INTENSITY
15	10
26	20
27	429
28	80
29	1209
30	20
39	259
40	50
41	2119
42	589
43	6469
44	209
51	10
53	90
54	119
55	1359
56	1169
57	9999
58	429
65	10
67	109
68	119
69	749
70	979
71	6409
72	349
77	10
79	20
81	50
82	129
83	539
84	699
85	4469
86	289
91	10
95	30
96	60
97	399
98	519
99	1109
100	80
105	20
106	10
109	10
110	30
111	189
112	379
113	719
114	60
119	30
120	10
123	10
124	10
125	80
126	279
127	539
128	50
133	20
134	10
139	20
140	219
141	429
142	50
145	20
147	10
153	10
154	159
155	359
156	40
168	119
169	309
170	40
182	80
183	269
184	40
196	50
197	159
198	20
210	20
211	90
212	10
240	399
241	80
