Mass Spectrum: Heptane, 1,1'-thiobis-
Formula: C14 H30 S
CAS: 629-65-2
Molecular weight: 230
Origin: Japan AIST/NIMC Database- Spectrum MS-NW-5102
m/z	RELATIVE INTENSITY
15	30
26	50
27	1119
28	219
29	2399
30	50
32	80
33	10
34	20
35	60
38	10
39	669
40	119
41	3939
42	1269
43	3539
44	129
45	319
46	209
47	609
48	90
49	60
50	30
51	30
52	20
53	259
54	359
55	7089
56	4379
57	4949
58	249
59	149
60	649
61	3169
62	159
63	179
64	10
65	40
66	20
67	319
68	999
69	2879
70	4539
71	349
72	30
73	129
74	80
75	299
76	70
77	50
78	10
79	30
80	10
81	149
82	60
83	599
84	129
85	50
86	20
87	749
88	119
89	519
90	50
91	40
92	10
93	10
95	40
96	119
97	2239
98	5839
99	509
100	20
101	179
102	40
103	139
104	20
105	10
111	20
112	20
115	30
117	119
118	20
119	10
125	10
129	40
130	509
131	9999
132	1619
133	859
134	109
135	30
143	10
145	1279
146	189
147	90
148	10
159	379
160	40
161	20
164	50
171	10
173	109
174	20
187	309
188	50
189	20
201	149
202	30
203	10
215	50
216	20
229	229
230	2449
231	429
232	159
233	20
