Mass Spectrum: Hexadecanamide
Formula: C16 H33 N O
CAS: 629-54-9
Molecular weight: 255
Origin: Japan AIST/NIMC Database- Spectrum MS-NW-5936
m/z	RELATIVE INTENSITY
17	30
18	10
27	219
28	60
29	559
30	30
31	10
36	10
39	129
40	40
41	1059
42	209
43	1469
44	609
45	20
46	20
51	10
53	60
54	60
55	739
56	189
57	729
58	40
59	9999
60	999
61	50
67	90
68	30
69	369
70	109
71	249
72	3409
73	469
74	30
77	10
79	30
80	10
81	60
82	40
83	219
84	119
85	99
86	549
87	70
93	20
94	10
95	50
96	60
97	199
98	269
99	40
100	169
101	159
102	10
107	20
109	20
110	70
111	90
112	30
113	10
114	449
115	249
116	20
121	10
122	10
123	10
124	40
125	50
126	10
127	10
128	519
129	70
135	10
138	20
139	20
140	20
142	99
143	20
149	10
152	20
153	10
154	10
156	109
157	30
166	10
167	10
170	149
171	20
180	20
181	10
182	10
184	99
185	20
194	30
195	10
196	10
198	60
199	20
208	20
212	299
213	60
214	10
226	149
227	30
238	40
239	10
240	20
254	40
255	699
256	149
257	20
