Mass Spectrum: 1,7-Heptanediol
Formula: C7 H16 O2
CAS: 629-30-1
Molecular weight: 132
Origin: Japan AIST/NIMC Database- Spectrum MS-NW-4191
m/z	RELATIVE INTENSITY
14	20
15	179
16	10
17	40
18	199
19	109
26	119
27	1559
28	519
29	2139
30	99
31	5179
32	109
33	50
34	10
37	20
38	60
39	1179
40	339
41	5929
42	3269
43	3049
44	1769
45	869
46	40
47	20
49	159
50	40
51	70
52	30
53	609
54	2329
55	7369
56	4979
57	2469
58	439
59	129
60	10
61	50
62	40
63	20
65	60
66	179
67	3669
68	9999
69	2079
70	499
71	2439
72	249
73	269
74	20
75	40
76	10
77	90
78	10
79	159
80	30
81	3289
82	309
83	379
84	2449
85	459
86	259
87	40
89	10
91	40
92	10
93	20
94	20
95	379
96	349
97	139
98	10
99	20
100	10
101	30
102	99
103	40
104	20
105	20
106	10
107	40
108	20
112	10
113	30
114	10
115	20
131	10
133	20
