Mass Spectrum: 1-Octadecyne
Formula: C18 H34
CAS: 629-89-0
Molecular weight: 250
Origin: NIST Mass Spectrometry Data Center, 1990.
m/z	RELATIVE INTENSITY
14	10
15	41
27	1737
28	280
29	3885
30	95
39	1818
40	886
41	9193
42	1713
43	8733
44	293
50	63
51	175
52	179
53	1444
54	2687
55	7625
56	1858
57	4282
58	181
63	42
65	471
66	773
67	7343
68	2955
69	3504
70	966
71	1181
72	71
77	434
79	1371
81	9999
82	6571
83	2470
84	421
85	482
91	175
92	54
93	392
94	372
95	4179
96	4352
97	1814
98	236
99	36
105	32
107	79
109	1550
110	730
111	346
112	82
123	432
124	280
125	77
126	43
137	145
138	111
151	62
152	51
166	53
