Mass Spectrum: 1-Octyne
Formula: C8 H14
CAS: 629-05-0
Molecular weight: 110
Origin: Japan AIST/NIMC Database- Spectrum MS-NW-2717
m/z	RELATIVE INTENSITY
14	10
15	90
26	199
27	2869
28	119
29	2929
30	50
37	90
38	279
39	3199
40	989
41	7139
42	2509
43	8709
44	289
45	10
49	20
50	289
51	569
52	359
53	1979
54	2699
55	4559
56	889
57	149
61	20
62	60
63	119
64	20
65	549
66	379
67	5059
68	2669
69	2559
70	1349
71	599
72	30
74	30
75	10
76	10
77	379
78	80
79	1129
80	329
81	9999
82	1589
83	90
84	20
85	10
91	90
92	10
93	129
94	20
95	2719
96	219
107	10
108	10
109	149
110	30
