Mass Spectrum: Octanedinitrile
Formula: C8 H12 N2
CAS: 629-40-3
Molecular weight: 136
Origin: Japan AIST/NIMC Database- Spectrum MS-NW-1078
m/z	RELATIVE INTENSITY
13	10
14	40
15	209
25	10
26	309
27	2039
28	329
29	1379
30	139
37	99
38	219
39	2109
40	579
41	8059
42	2519
43	329
44	20
50	119
51	239
52	409
53	689
54	4029
55	7519
56	419
57	20
62	10
63	40
64	129
65	139
66	269
67	669
68	1379
69	4239
70	239
71	10
75	10
76	20
77	50
78	30
79	319
80	229
81	349
82	1769
83	1679
84	80
91	30
92	10
93	60
94	129
95	70
96	9999
97	689
98	30
107	129
108	559
109	60
118	20
121	20
135	80
