Mass Spectrum: 1-Eicosanol
Formula: C20 H42 O
CAS: 629-96-9
Molecular weight: 298
Origin: Japan AIST/NIMC Database- Spectrum MS-NW-4453
m/z	RELATIVE INTENSITY
15	30
17	20
18	70
26	40
27	1009
28	299
29	3149
30	80
31	1169
32	20
33	10
38	10
39	709
40	179
41	6929
42	1809
43	9999
44	339
45	189
51	30
52	30
53	359
54	1049
55	8519
56	4079
57	8659
58	409
59	90
65	60
66	159
67	1439
68	3769
69	7299
70	3819
71	4099
72	259
73	209
74	10
77	40
78	10
79	109
80	80
81	919
82	4549
83	8369
84	2809
85	2579
86	169
87	40
91	20
92	10
93	30
94	30
95	529
96	1679
97	6909
98	1889
99	659
100	40
101	10
105	10
108	20
109	239
110	799
111	3819
112	1319
113	439
114	40
115	10
121	10
122	10
123	139
124	519
125	2029
126	1049
127	289
128	30
135	10
136	10
137	90
138	389
139	1099
140	699
141	219
142	30
151	30
152	269
153	709
154	549
155	149
156	20
165	20
166	219
167	499
168	449
169	109
170	20
179	10
180	149
181	339
182	349
183	70
194	139
195	229
196	319
197	90
208	99
209	179
210	229
211	99
212	20
222	70
223	129
224	169
225	40
236	30
237	80
238	90
239	30
250	40
251	50
252	619
253	129
254	10
278	60
279	20
280	1429
281	329
282	40
283	10
297	10
