Mass Spectrum: Cetene
Formula: C16 H32
CAS: 629-73-2
Molecular weight: 224
Origin: MASS SPECTRA OF ORGANIC COMPOUNDS, CSIRO, B.H. KENNETT ET AL
m/z	RELATIVE INTENSITY
26	100
27	1900
29	4500
30	100
39	1600
41	8700
42	2100
43	9999
51	100
53	600
54	1600
55	8500
56	5600
57	8300
58	400
65	100
66	100
67	1400
68	1500
69	5900
70	4500
71	3100
72	200
81	600
82	1700
83	5900
84	2900
85	1600
86	100
95	300
96	800
97	4600
98	1600
99	100
109	100
110	300
111	2100
112	1000
113	200
124	200
125	800
126	600
127	100
138	100
139	300
140	300
153	100
154	200
168	100
182	100
196	200
224	600
