Mass Spectrum: Octanamide
Formula: C8 H17 N O
CAS: 629-01-6
Molecular weight: 143
Origin: Japan AIST/NIMC Database- Spectrum MS-IW-6473
m/z	RELATIVE INTENSITY
15	10
16	10
17	30
18	109
26	30
27	489
28	169
29	659
30	50
31	30
38	10
39	429
40	80
41	1309
42	399
43	1599
44	1869
45	70
46	30
50	10
51	30
52	10
53	109
54	129
55	809
56	169
57	959
58	60
59	9999
60	679
61	40
65	10
66	10
67	70
68	40
69	219
70	60
71	80
72	3419
73	579
74	20
77	10
79	20
80	10
81	30
82	169
83	219
84	99
85	30
86	1039
87	70
96	99
97	129
98	60
100	549
101	80
109	10
110	30
111	10
114	459
115	40
124	10
125	20
126	10
127	50
128	40
142	40
143	619
144	129
145	10
