Mass Spectrum: n-Pentyl isothiocyanate
Formula: C6 H11 N S
CAS: 629-12-9
Molecular weight: 129
Origin: NIST Mass Spectrometry Data Center, 1994
m/z	RELATIVE INTENSITY
14	88
15	389
26	618
27	4682
28	1460
29	4736
30	522
31	88
32	327
33	59
34	44
37	136
38	368
39	3471
40	717
41	6547
42	3189
43	9999
44	772
45	1138
46	167
47	85
49	24
50	132
51	222
52	161
53	357
54	259
55	2587
56	238
57	389
58	463
59	843
60	706
61	79
62	110
63	44
64	39
65	40
67	168
68	587
69	549
70	665
71	710
72	4505
73	665
74	605
75	112
76	39
79	96
80	56
81	70
82	72
83	32
84	110
85	138
86	307
87	126
88	66
94	83
96	1251
97	144
98	71
99	32
100	1096
101	2992
102	229
103	166
111	31
112	31
114	1070
115	68
116	45
128	476
129	2102
130	196
131	105
