Mass Spectrum: Tetradecanenitrile
Formula: C14 H27 N
CAS: 629-63-0
Molecular weight: 209
Origin: Japan AIST/NIMC Database- Spectrum MS-NW-5268
m/z	RELATIVE INTENSITY
14	10
15	80
26	109
27	2299
28	269
29	4669
30	519
31	10
37	10
38	30
39	1529
40	309
41	8449
42	2049
43	9999
44	599
45	30
50	20
51	90
52	80
53	569
54	2699
55	5349
56	2479
57	7469
58	509
59	20
60	20
62	10
63	20
64	20
65	109
66	109
67	879
68	849
69	4089
70	3649
71	2399
72	239
73	20
75	10
76	10
77	119
78	30
79	559
80	269
81	759
82	4259
83	4519
84	1479
85	1099
86	149
87	10
89	10
90	10
91	189
92	40
93	509
94	309
95	509
96	6279
97	9369
98	1309
99	279
100	60
103	10
105	139
106	20
107	279
108	229
109	249
110	7039
111	3979
112	679
113	159
114	50
115	10
117	10
119	10
120	20
121	179
122	269
123	119
124	4599
125	1249
126	409
127	109
128	30
129	10
134	10
135	109
136	149
137	50
138	2519
139	569
140	309
141	50
142	10
149	50
150	60
151	10
152	2269
153	389
154	249
155	40
163	20
164	30
165	10
166	2399
167	389
168	229
169	30
178	20
179	10
180	1329
181	259
182	20
192	10
194	289
195	40
208	159
209	40
210	30
211	10
