Mass Spectrum: Tridecanenitrile
Formula: C13 H25 N
CAS: 629-60-7
Molecular weight: 195
Origin: Japan AIST/NIMC Database- Spectrum MS-NW-5233
m/z	RELATIVE INTENSITY
14	10
15	109
26	129
27	2669
28	579
29	4959
30	529
31	20
37	10
38	50
39	1899
40	369
41	9409
42	2219
43	9999
44	579
45	30
50	30
51	99
52	109
53	699
54	3369
55	5729
56	2549
57	6889
58	449
59	20
62	10
63	20
64	20
65	119
66	139
67	869
68	949
69	4599
70	3429
71	1919
72	209
73	20
74	10
77	109
78	30
79	549
80	269
81	749
82	4899
83	4919
84	1279
85	729
86	90
87	10
91	109
92	20
93	509
94	289
95	459
96	6479
97	9239
98	1089
99	229
100	50
105	40
106	10
107	259
108	189
109	209
110	6539
111	3639
112	539
113	119
114	30
119	10
120	30
121	159
122	219
123	99
124	4219
125	1009
126	299
127	50
134	10
135	90
136	109
137	30
138	2839
139	509
140	259
141	40
149	40
150	40
151	10
152	2709
153	399
154	209
155	30
164	20
165	10
166	1379
167	219
168	20
180	259
181	30
194	189
195	40
196	80
197	10
