Mass Spectrum: Heptane, 1,1'-oxybis-
Formula: C14 H30 O
CAS: 629-64-1
Molecular weight: 214
Origin: Japan AIST/NIMC Database- Spectrum MS-NW-5238
m/z	RELATIVE INTENSITY
15	20
18	10
26	20
27	539
28	209
29	1079
30	30
31	70
32	50
33	10
39	299
40	70
41	1889
42	789
43	2289
44	90
45	139
50	10
51	10
53	90
54	129
55	1559
56	1579
57	9999
58	449
59	20
60	10
61	10
65	10
66	10
67	80
68	499
69	1019
70	2239
71	309
72	20
73	50
77	10
79	10
81	60
82	30
83	269
84	30
85	50
86	10
87	20
89	10
91	30
93	10
95	10
96	60
97	989
98	1039
99	939
100	70
107	10
109	10
113	10
114	10
115	40
117	60
129	109
130	10
131	10
135	169
136	10
137	159
143	10
148	10
150	10
171	10
