Mass Spectrum: Butanoic acid, cyclopentyl ester
Formula: C9 H16 O2
CAS: 6290-13-7
Molecular weight: 156
Origin: V.Zaikin,Topchiev Inst.Petrochem.Synth.,Moscow
m/z	RELATIVE INTENSITY
25	10
26	150
27	991
28	150
29	370
30	10
31	40
35	20
36	120
37	30
38	70
39	1091
40	230
41	2923
42	400
43	4474
44	160
45	60
50	40
51	70
52	100
53	220
54	40
55	340
56	60
57	360
58	210
59	10
60	631
61	40
63	20
65	90
66	100
67	1351
68	2532
69	2732
70	500
71	9999
72	500
73	420
74	20
82	10
83	30
84	80
85	951
86	1401
87	370
88	1061
89	3073
90	140
91	30
93	10
95	80
97	10
99	230
100	60
110	20
112	190
113	881
114	80
115	10
127	20
128	150
156	20
