Mass Spectrum: Acetic acid, methoxy-, methyl ester
Formula: C4 H8 O3
CAS: 6290-49-9
Molecular weight: 104
Origin: Japan AIST/NIMC Database- Spectrum MS-NW-8954
m/z	RELATIVE INTENSITY
14	60
15	589
16	10
18	10
27	20
28	80
29	1359
30	99
31	319
32	50
33	20
41	30
42	609
43	569
44	169
45	9999
46	239
47	70
58	10
59	419
60	99
61	10
62	10
73	30
74	4229
75	949
76	50
88	10
105	10
