Mass Spectrum: 1-Propanamine, 3-ethoxy-
Formula: C5 H13 N O
CAS: 6291-85-6
Molecular weight: 103
Origin: Japan AIST/NIMC Database- Spectrum MS-NW-1031
m/z	RELATIVE INTENSITY
14	30
15	149
17	40
18	149
19	10
26	90
27	549
28	779
29	899
30	9999
31	1229
32	50
38	10
39	90
40	40
41	379
42	259
43	239
44	549
45	639
46	60
47	169
52	10
54	50
55	50
56	1709
57	1739
58	859
59	539
60	80
68	20
69	20
72	30
73	20
74	1219
75	50
86	1399
87	80
103	20
