Mass Spectrum: N-Hydroxymethyl-2-phenylacetamide
Formula: C9 H11 N O2
CAS: 6291-06-1
Molecular weight: 165
Origin: Leung Pu, NIH, Bethesda, Maryland, U.S.
m/z	RELATIVE INTENSITY
41	213
42	91
43	108
44	1585
45	50
46	171
49	17
50	332
51	627
52	202
53	78
59	466
60	14
61	118
62	319
63	941
64	278
65	2180
66	142
73	10
74	361
75	76
76	57
77	252
78	118
79	102
85	41
86	61
87	70
89	831
90	483
91	9999
92	9834
93	706
94	23
103	69
104	125
105	20
106	80
107	44
118	189
119	44
120	20
122	17
133	9
135	719
136	87
147	64
148	88
165	545
166	64
