Mass Spectrum: Cyclohexanol, 4-sec-butyl-
Formula: C10 H20 O
CAS: 6292-20-2
Molecular weight: 156
m/z	RELATIVE INTENSITY
15	50
17	50
18	130
26	30
27	601
28	280
29	1321
30	70
31	190
32	70
38	30
39	621
40	100
41	2002
42	240
43	1511
44	300
45	100
50	30
51	70
52	60
53	430
54	651
55	2672
56	851
57	3353
58	230
59	60
63	30
65	100
66	180
67	2602
68	460
69	691
70	691
71	510
72	60
73	20
77	120
78	40
79	561
80	1561
81	9999
82	2632
83	991
84	240
85	60
91	50
93	70
94	50
95	420
96	901
97	300
98	140
99	260
100	40
105	40
107	60
108	110
109	5145
110	751
111	70
112	70
121	50
123	480
124	70
127	50
137	60
138	1451
139	160
155	20
