Mass Spectrum: Hydrazinecarboxylic acid, methyl ester
Formula: C2 H6 N2 O2
CAS: 6294-89-9
Molecular weight: 90
Origin: Japan AIST/NIMC Database- Spectrum MS-IW- 902
m/z	RELATIVE INTENSITY
12	10
13	10
14	80
15	3409
16	289
17	789
18	409
27	30
28	2529
29	1499
30	1319
31	9999
32	1169
33	199
41	10
42	99
43	469
44	2219
45	6029
46	579
47	50
56	10
58	2399
59	4629
60	169
61	20
73	10
74	10
75	519
76	40
90	8699
91	609
92	50
