Mass Spectrum: Butyl glyoxylate
Formula: C6 H10 O3
CAS: 6295-06-3
Molecular weight: 130
Origin: NIST Mass Spectrometry Data Center, 1992
m/z	RELATIVE INTENSITY
12	19
13	43
14	69
15	259
16	7
17	16
18	158
19	45
26	434
27	2744
28	1392
29	9999
30	373
31	1223
33	12
36	8
37	59
38	177
39	1662
40	8
41	8127
42	480
43	491
44	234
45	164
46	15
49	14
50	54
51	64
52	23
53	127
54	14
55	810
56	591
57	5517
58	330
59	39
71	8
72	9
73	14
76	6
88	8
101	8
