Mass Spectrum: Acetonitrile, ethoxy-
Formula: C4 H7 N O
CAS: 62957-60-2
Molecular weight: 85
Origin: James Little,Eastman Chem.Co.,Kingsport,TN
m/z	RELATIVE INTENSITY
25	210
26	510
27	1261
28	871
39	681
40	1421
41	3583
42	1351
43	170
44	561
54	230
55	70
56	60
57	550
58	80
59	160
69	30
70	9999
71	440
72	30
81	10
83	10
85	430
86	50
