Mass Spectrum: 3-Amino-2-chloropyridine
Formula: C5 H5 Cl N2
CAS: 6298-19-7
Molecular weight: 128
Origin: Japan AIST/NIMC Database- Spectrum MS-NW-2983
m/z	RELATIVE INTENSITY
12	10
13	10
14	20
15	30
25	30
26	139
27	99
28	929
29	20
30	10
35	40
36	80
37	409
38	1179
39	2699
40	519
41	879
42	99
43	20
44	20
45	10
46	20
47	119
48	40
49	80
50	99
51	139
52	469
53	259
54	70
56	10
61	10
62	129
63	149
64	669
65	2849
66	2479
67	199
72	20
73	139
74	80
75	169
76	70
77	40
84	10
85	20
86	10
88	20
90	10
91	80
92	5449
93	1859
94	99
99	10
100	219
101	129
102	70
103	40
127	80
128	9999
129	649
130	3199
131	209
