Mass Spectrum: Carbaril
Formula: C12 H11 N O2
CAS: 63-25-2
Molecular weight: 201
Origin: MASS SPECTROMETRY CENTER, UNIV. OF UTAH EPA-PTSEL 1060
m/z	RELATIVE INTENSITY
15	131
27	190
39	511
41	17
50	311
51	383
56	46
57	84
58	1036
63	363
64	140
65	361
74	66
75	274
76	90
77	178
86	81
87	189
88	230
89	771
90	76
101	55
113	172
114	365
115	5662
116	3873
117	353
126	138
127	397
128	61
143	311
144	9999
145	1617
146	65
201	644
202	45
