Mass Spectrum: Lactose
Formula: C12 H22 O11
CAS: 63-42-3
Molecular weight: 342
Origin: RADIAN CORP
m/z	RELATIVE INTENSITY
15	50
17	140
18	760
19	130
26	90
27	400
28	620
29	2100
30	360
31	2000
32	270
33	20
36	110
37	70
38	170
39	760
40	180
41	1200
42	1410
43	3460
44	3240
45	1650
46	160
47	510
49	160
50	100
51	150
52	100
53	430
54	290
55	1670
56	1400
57	3990
58	930
59	430
60	7450
61	3190
62	170
63	30
65	30
66	40
67	140
68	380
69	1900
70	900
71	2830
72	860
73	9999
74	1160
75	170
76	40
77	240
78	20
79	60
80	90
81	320
82	100
83	220
84	250
85	1830
86	620
87	700
88	100
89	400
90	110
91	1200
92	50
93	20
94	10
95	440
96	570
97	2110
98	700
99	340
100	80
101	740
102	580
103	740
104	50
109	270
110	270
111	70
112	70
113	340
114	170
115	530
116	200
117	30
119	230
120	50
121	30
123	50
124	40
125	110
126	660
127	420
128	180
129	60
131	450
132	80
133	260
134	30
139	20
143	40
144	350
145	460
146	50
147	10
149	20
155	30
161	20
162	40
163	300
164	20
173	140
191	130
207	40
