Mass Spectrum: Methane, iodotrinitro-
Formula: C I N3 O6
CAS: 630-70-6
Molecular weight: 277
Origin: J.T.LARKINS U.S. DEPT. OF COMMERCE, WASHINGTON, D.C., USA
m/z	RELATIVE INTENSITY
16	3545
26	1209
42	492
46	1455
104	1045
127	9999
150	1906
185	102
231	738
