Mass Spectrum: Hydroxyprogesterone Caproate
Formula: C27 H40 O4
CAS: 630-56-8
Molecular weight: 428
Origin: Japan AIST/NIMC Database- Spectrum MS-IW-8086
m/z	RELATIVE INTENSITY
27	90
28	40
29	139
39	80
40	10
41	319
42	90
43	1799
44	60
45	20
51	10
53	80
54	10
55	479
56	50
57	60
60	199
61	20
63	10
65	50
66	10
67	189
68	20
69	109
70	40
71	1399
72	80
73	99
74	10
77	179
78	40
79	279
80	60
81	189
82	20
83	109
84	10
85	30
87	40
89	10
91	369
92	60
93	309
94	70
95	259
96	40
97	789
98	129
99	4329
100	289
101	20
103	40
104	20
105	309
106	70
107	289
108	70
109	499
110	60
111	60
112	10
113	20
115	80
116	30
117	129
118	40
119	219
120	80
121	259
122	139
123	279
124	309
125	50
127	40
128	70
129	109
130	50
131	179
132	50
133	229
134	90
135	159
136	139
137	99
138	20
141	50
142	40
143	139
144	50
145	399
146	99
147	319
148	129
149	149
150	40
151	20
152	10
153	20
154	10
155	80
156	40
157	109
158	50
159	169
160	50
161	159
162	60
163	90
164	20
165	40
166	10
167	30
168	10
169	90
170	60
171	189
172	60
173	249
174	109
175	159
176	60
177	50
178	20
179	20
180	10
181	40
182	10
183	60
184	30
185	80
186	40
187	109
188	50
189	149
190	40
191	50
192	10
193	20
194	10
195	50
196	20
197	50
198	20
199	60
200	30
201	70
202	40
203	30
204	10
205	20
206	10
207	30
208	10
209	60
210	20
211	139
212	40
213	70
214	30
215	50
216	20
217	30
218	10
219	10
221	10
222	10
223	30
224	20
225	60
226	40
227	159
228	50
229	419
230	80
231	30
232	10
233	20
234	10
235	20
236	10
237	40
238	10
239	30
240	10
241	40
242	119
243	90
244	299
245	90
246	20
247	10
248	10
249	10
250	20
251	169
252	60
253	60
254	30
255	50
256	20
257	10
258	10
259	20
261	30
262	10
263	10
265	10
266	10
267	90
268	50
269	2659
270	649
271	209
272	70
273	20
274	10
275	10
276	30
277	20
278	10
279	90
280	20
281	10
283	10
284	10
285	60
287	9999
288	2089
289	249
290	20
292	10
293	10
294	159
295	70
296	30
297	159
298	40
299	10
310	10
311	20
312	1049
313	489
314	119
315	70
316	10
329	30
330	1109
331	259
332	40
385	1249
386	339
387	50
427	80
428	129
429	30
