Mass Spectrum: Hexatriacontane
Formula: C36 H74
CAS: 630-06-8
Molecular weight: 506
Origin: Japan AIST/NIMC Database- Spectrum MS-NW- 619
m/z	RELATIVE INTENSITY
26	20
27	219
28	70
29	789
30	20
38	10
39	149
40	40
41	1649
42	439
43	5489
44	179
51	10
53	70
54	209
55	1909
56	1149
57	9999
58	429
65	10
66	30
67	279
68	309
69	1499
70	1009
71	7439
72	399
73	10
77	20
78	10
79	40
80	30
81	179
82	529
83	1509
84	729
85	5199
86	349
87	10
91	40
92	30
93	20
94	20
95	119
96	369
97	1469
98	589
99	2319
100	189
104	10
105	70
106	20
107	10
108	10
109	50
110	169
111	849
112	489
113	1679
114	149
115	10
117	10
119	20
121	10
122	10
123	40
124	119
125	489
126	419
127	1319
128	129
129	10
131	10
133	10
137	30
138	90
139	269
140	349
141	1059
142	109
143	10
150	10
151	20
152	70
153	179
154	309
155	849
156	99
166	50
167	119
168	269
169	709
170	99
180	40
181	99
182	229
183	609
184	90
186	20
194	40
195	70
196	209
197	539
198	80
208	30
209	50
210	179
211	469
212	70
214	20
222	20
223	40
224	159
225	399
226	70
236	20
237	40
238	139
239	349
240	60
242	30
244	10
250	10
251	20
252	129
253	319
254	60
264	10
265	20
266	109
267	269
268	60
278	10
279	20
280	90
281	239
282	50
292	10
293	10
294	90
295	219
296	50
307	10
308	80
309	209
310	50
321	10
322	70
323	199
324	50
336	60
337	179
338	50
350	60
351	159
352	50
364	50
365	149
366	40
378	50
379	149
380	40
392	40
393	139
394	40
406	40
407	139
408	40
420	40
421	119
422	40
434	30
435	119
436	40
448	20
449	99
450	30
462	10
463	60
464	20
476	10
477	50
478	20
506	99
507	40
