Mass Spectrum: Propanal, 2,2-dimethyl-
Formula: C5 H10 O
CAS: 630-19-3
Molecular weight: 86
Origin: Japan AIST/NIMC Database- Spectrum MS-NW-5375
m/z	RELATIVE INTENSITY
15	229
17	20
18	70
26	169
27	1639
28	319
29	5149
30	109
31	70
32	99
37	109
38	249
39	1939
40	259
41	8349
42	879
43	2659
44	40
45	70
50	119
51	129
53	209
55	549
56	279
57	9999
58	519
59	149
69	90
70	80
71	159
86	1809
87	309
