Mass Spectrum: 1,1,1,2-Tetrabromoethane
Formula: C2 H2 Br4
CAS: 630-16-0
Molecular weight: 342
Origin: Japan AIST/NIMC Database- Spectrum MS-IW- 942
m/z	RELATIVE INTENSITY
12	10
14	10
24	20
25	289
26	1559
27	40
79	569
80	209
81	549
82	209
91	99
92	20
93	149
94	20
95	40
103	60
104	489
105	2329
106	519
107	2189
108	50
132	10
133	10
158	80
160	149
162	70
170	20
172	50
174	20
182	20
183	409
184	1199
185	859
186	2309
187	489
188	1119
189	40
249	70
251	229
253	219
255	70
262	20
263	3409
264	139
265	9999
266	299
267	9839
268	239
269	3199
270	70
342	20
344	40
346	40
348	20
