Mass Spectrum: Ethane, 1,2-dibromo-1,1,2,2-tetrachloro-
Formula: C2 Br2 Cl4
CAS: 630-25-1
Molecular weight: 322
Origin: Japan AIST/NIMC Database- Spectrum MS-IW- 646
m/z	RELATIVE INTENSITY
12	10
24	50
35	139
37	40
47	649
49	209
59	519
60	10
61	169
79	289
80	299
81	289
82	609
83	80
84	209
85	10
86	30
91	90
93	90
94	1679
95	30
96	1099
97	20
98	169
103	80
104	70
105	229
106	90
107	20
114	10
116	20
117	70
119	70
121	20
126	119
127	60
128	189
129	2439
130	80
131	2319
132	50
133	749
134	10
135	80
138	249
140	339
142	80
158	10
160	30
161	4069
162	50
163	6549
164	7869
165	3139
166	9999
167	609
168	4779
169	99
170	1029
171	20
172	80
173	149
175	239
177	109
179	10
182	10
184	20
186	10
199	90
201	139
203	90
205	30
207	20
208	889
209	30
210	1729
211	40
212	1119
213	20
214	299
216	30
219	10
243	4109
244	90
245	9319
246	199
247	7699
248	159
249	3019
250	60
251	579
252	50
253	40
254	90
256	80
258	30
287	50
289	159
291	179
293	90
295	20
326	10
