Mass Spectrum: Propanenitrile, 2,2-dimethyl-
Formula: C5 H9 N
CAS: 630-18-2
Molecular weight: 83
Origin: Japan AIST/NIMC Database- Spectrum MS-NW-6396
m/z	RELATIVE INTENSITY
12	10
13	20
14	70
15	479
16	10
25	10
26	229
27	1039
28	339
29	309
30	10
31	10
32	10
36	20
37	219
38	279
39	1419
40	549
41	7999
42	9999
43	319
44	70
49	30
50	90
51	199
52	499
53	119
54	139
55	229
56	80
57	119
58	10
62	10
63	40
64	149
65	30
66	369
67	1549
68	4849
69	259
70	30
71	10
75	10
82	439
83	50
84	10
