Mass Spectrum: Hexacosane
Formula: C26 H54
CAS: 630-01-3
Molecular weight: 366
Origin: Japan AIST/NIMC Database- Spectrum MS-NW-6930
m/z	RELATIVE INTENSITY
27	199
28	50
29	839
30	10
39	129
40	30
41	1999
42	539
43	6049
44	209
53	80
54	209
55	2209
56	1229
57	9999
58	429
65	10
66	10
67	229
68	269
69	1509
70	1079
71	7249
72	399
73	10
77	10
79	20
80	10
81	109
82	339
83	1269
84	789
85	5349
86	349
87	10
95	50
96	199
97	1009
98	639
99	1989
100	159
109	20
110	109
111	559
112	559
113	1439
114	129
123	10
124	70
125	309
126	489
127	1169
128	119
138	50
139	149
140	449
141	969
142	109
152	30
153	99
154	409
155	869
156	99
166	30
167	60
168	359
169	779
170	99
180	20
181	40
182	329
183	679
184	90
194	10
195	30
196	299
197	629
198	90
208	10
209	20
210	259
211	579
212	90
223	10
224	229
225	549
226	90
227	10
237	10
238	209
239	529
240	90
241	10
252	189
253	489
254	90
255	10
266	169
267	469
268	90
269	10
280	139
281	449
282	90
283	10
294	119
295	419
296	99
297	10
308	99
309	379
310	90
311	10
322	60
323	229
324	60
336	30
337	139
338	50
351	10
365	30
366	1639
367	479
368	70
