Mass Spectrum: Pentatriacontane
Formula: C35 H72
CAS: 630-07-9
Molecular weight: 492
Origin: Japan AIST/NIMC Database- Spectrum MS-NW-6088
m/z	RELATIVE INTENSITY
26	10
27	249
28	80
29	959
30	20
39	169
40	40
41	2099
42	589
43	6929
44	229
51	20
53	80
54	249
55	2509
56	1269
57	9999
58	469
59	20
65	10
66	20
67	299
68	329
69	1799
70	1039
71	6619
72	379
73	10
74	60
75	20
77	10
79	30
80	20
81	189
82	439
83	1619
84	709
85	4639
86	319
87	40
91	10
93	20
94	10
95	109
96	309
97	1439
98	559
99	1909
100	149
101	10
105	10
109	50
110	149
111	749
112	499
113	1429
114	129
115	10
119	70
123	30
124	99
125	429
126	459
127	1119
128	119
129	10
131	90
137	20
138	80
139	239
140	419
141	919
142	99
143	20
151	10
152	60
153	159
154	369
155	759
156	99
162	10
166	50
167	109
168	339
169	669
170	90
180	40
181	80
182	299
183	589
184	90
185	10
193	10
194	30
195	70
196	259
197	519
198	80
199	10
205	10
208	20
209	50
210	239
211	469
212	80
219	10
222	20
223	40
224	219
225	429
226	70
227	10
231	20
236	20
237	30
238	189
239	399
240	70
241	10
243	10
250	20
251	20
252	179
253	359
254	70
255	10
264	10
265	20
266	169
267	369
268	80
269	10
278	10
279	20
280	139
281	309
282	80
283	30
292	10
293	20
294	129
295	289
296	70
297	10
307	10
308	119
309	279
310	60
311	10
321	10
322	109
323	249
324	70
325	10
336	99
337	249
338	60
339	10
343	10
350	90
351	239
352	70
353	10
364	80
365	219
366	60
367	10
378	70
379	219
380	60
381	10
382	40
383	10
392	70
393	199
394	60
395	10
406	60
407	189
408	60
409	10
420	50
421	169
422	60
423	10
424	10
434	40
435	159
436	60
437	10
448	20
449	99
450	40
462	10
463	70
464	30
477	10
490	10
491	10
492	419
493	159
494	20
