Mass Spectrum: 5,6-Dihydro-5-methyl-4H-1,3,5-dithiazine
Formula: C4 H9 N S2
CAS: 6302-94-9
Molecular weight: 135
Origin: Chuck Anderson, Aldrich Chemical Co.
m/z	RELATIVE INTENSITY
14	21
15	873
18	110
27	336
28	560
29	51
30	344
32	86
40	258
41	665
42	5928
43	1658
44	9999
45	2403
46	2083
47	500
48	48
57	6505
58	430
59	106
60	83
64	296
70	745
71	370
74	258
76	47
78	106
88	294
89	4935
90	450
91	304
92	96
135	9999
136	616
137	873
