Mass Spectrum: Trichloroacetic acid 2-propenyl ester
Formula: C5 H5 Cl3 O2
CAS: 6304-34-3
Molecular weight: 202
Origin: V.Zaikin,Topchiev Inst.Petrochem.Synth.,Moscow
m/z	RELATIVE INTENSITY
25	20
26	270
27	741
28	120
29	380
30	20
31	70
35	150
36	320
37	100
38	260
39	3013
40	510
41	9999
42	320
43	40
44	360
45	30
47	561
48	50
49	190
50	40
51	80
52	90
53	20
55	110
56	20
57	591
58	50
63	70
65	20
68	10
69	10
73	20
75	440
76	80
77	160
78	40
79	160
81	20
82	931
83	160
84	631
85	310
86	80
87	130
89	40
103	20
109	80
110	591
111	110
112	400
113	40
114	50
117	1872
118	20
119	1792
120	20
121	561
123	100
125	50
127	40
129	20
131	20
137	10
139	130
141	70
145	10
146	70
147	20
148	80
150	10
167	90
169	50
171	10
202	50
204	60
206	10
