Mass Spectrum: Benz(a)acridine, 9,10,12-trimethyl-
Formula: C20 H17 N
CAS: 63040-02-8
Molecular weight: 271
Origin: Organic Synthesis Lab, MSU, Moscow.TRC 213q
m/z	RELATIVE INTENSITY
75	80
77	80
81	70
87	70
88	110
89	70
92	10
100	200
101	200
102	80
112	110
113	310
114	510
126	500
127	1081
139	70
150	80
151	100
152	70
163	80
176	70
187	70
189	110
190	70
200	100
201	110
202	130
213	110
214	110
215	110
216	100
217	80
225	70
226	220
227	190
228	280
229	250
230	130
238	80
239	130
240	480
241	681
242	300
243	100
244	180
245	70
251	110
252	260
253	380
254	1311
255	1301
256	2082
257	550
258	100
265	150
266	180
267	200
268	350
269	360
270	2622
271	9999
272	1992
273	230
