Mass Spectrum: Benzo[h]quinoline, 2,3,4-trimethyl-
Formula: C16 H15 N
CAS: 63042-66-0
Molecular weight: 221
Origin: N.S.Prostakov
m/z	RELATIVE INTENSITY
51	130
63	400
69	270
75	400
76	400
77	190
89	550
91	200
102	250
103	150
115	150
126	160
127	220
128	100
139	240
140	120
149	130
150	140
151	270
152	450
153	150
163	250
164	200
165	500
166	250
167	100
176	300
177	300
178	801
179	801
180	400
181	350
189	250
190	310
191	300
192	200
193	190
194	190
203	150
204	450
205	400
206	801
207	200
217	90
218	150
219	250
220	1301
221	9999
222	1101
223	110
