Mass Spectrum: 4,5-Diamino-6-methyl-2-thiopyrimidine
Formula: C5 H8 N4 S
CAS: 6305-99-3
Molecular weight: 156
Origin: Leung Pu, NIH, Bethesda, Maryland, U.S.
m/z	RELATIVE INTENSITY
41	1869
42	836
43	2492
44	1349
45	1125
46	447
47	369
48	204
50	226
51	197
52	126
53	267
54	247
55	1527
56	391
57	473
58	118
59	193
60	244
64	418
65	333
66	591
67	2823
68	1784
69	1414
70	275
71	206
72	85
73	310
74	437
76	73
77	288
78	263
79	88
82	670
83	1546
84	492
85	237
89	69
91	528
92	223
93	543
94	293
96	182
97	156
98	85
105	81
110	4259
111	378
119	1277
120	89
155	78
156	9999
157	757
158	248
