Mass Spectrum: Silane, tetraethyl-
Formula: C8 H20 Si
CAS: 631-36-7
Molecular weight: 144
Origin: Japan AIST/NIMC Database- Spectrum MS-IW-7605
m/z	RELATIVE INTENSITY
26	10
27	70
29	189
30	30
31	469
32	10
33	10
39	10
41	10
42	30
43	429
44	109
45	299
46	20
47	10
53	70
54	30
55	219
56	139
57	579
58	659
59	3789
60	289
61	119
66	20
67	20
69	10
70	10
71	40
72	30
73	90
75	10
83	30
84	10
85	109
86	189
87	9999
88	1059
89	409
90	10
103	10
113	10
114	20
115	8429
116	999
117	329
118	20
144	369
145	50
146	10
