Mass Spectrum: Butane, 2-chloro-3-methyl-
Formula: C5 H11 Cl
CAS: 631-65-2
Molecular weight: 106
Origin: COMPAGNIE FRANCAISE DE RAFFINAGE, FRANCE.
m/z	RELATIVE INTENSITY
26	178
27	2358
28	266
29	919
30	22
31	21
36	35
37	249
38	71
39	1189
40	196
41	2928
42	8062
43	9999
44	351
49	83
50	101
51	159
52	44
53	284
54	71
55	2334
56	177
57	25
61	47
62	117
63	545
64	50
65	180
66	9
67	31
68	7
69	140
70	770
71	364
72	21
75	37
76	30
77	53
78	11
79	13
89	10
90	8
91	218
92	12
93	69
105	69
106	13
107	8
108	4
