Mass Spectrum: Acetyl cyanide
Formula: C3 H3 N O
CAS: 631-57-2
Molecular weight: 69
m/z	RELATIVE INTENSITY
12	340
13	400
14	951
15	2482
16	50
17	50
18	190
20	10
21	10
24	130
25	280
26	701
27	711
28	1882
29	360
30	20
31	10
32	10
36	80
37	110
38	490
39	390
40	781
41	530
42	891
43	9999
44	270
45	120
50	170
51	410
52	150
53	20
54	3433
55	90
56	10
57	10
69	3243
70	130
71	10
