Mass Spectrum: Ammonium acetate
Formula: C2 H7 N O2
CAS: 631-61-8
Molecular weight: 77
Origin: Japan AIST/NIMC Database- Spectrum MS-NW-9218
m/z	RELATIVE INTENSITY
12	70
13	269
14	649
15	2719
16	4889
17	7339
18	419
25	50
26	40
27	10
28	569
29	789
30	40
31	209
40	90
41	319
42	1159
43	9999
44	419
45	8949
46	109
47	40
59	10
60	6509
61	619
62	40
