Mass Spectrum: Ethanethioamide, N,N-dimethyl-
Formula: C4 H9 N S
CAS: 631-67-4
Molecular weight: 103
Origin: NIST Mass Spectrometry Data Center, 1994
m/z	RELATIVE INTENSITY
12	60
13	101
15	1964
16	42
25	97
26	537
27	847
28	223
29	112
30	2322
32	257
33	224
34	109
35	41
36	16
37	80
38	154
39	380
40	612
41	777
42	5120
43	488
44	6198
45	1714
46	448
47	1542
48	53
49	75
50	22
51	175
52	387
53	105
54	800
55	2072
56	3928
57	965
58	2329
59	7879
60	562
61	558
62	41
66	13
68	159
70	4365
71	300
72	432
73	701
75	41
85	15
86	31
88	2373
89	124
90	123
103	9999
104	561
105	456
106	22
