Mass Spectrum: Benzenamine, 2-(1,1-dimethylethyl)-
Formula: C10 H15 N
CAS: 6310-21-0
Molecular weight: 149
Origin: Chuck Anderson, Aldrich Chemical Co.
m/z	RELATIVE INTENSITY
15	39
18	16
26	12
27	221
28	214
29	176
30	70
38	75
39	607
40	80
41	422
42	112
50	89
51	286
52	183
53	217
54	94
55	54
56	37
57	49
58	192
59	241
61	53
62	66
63	260
64	140
65	943
66	486
67	248
74	48
75	89
76	77
77	659
78	167
79	180
80	56
89	251
90	176
91	983
92	192
93	1192
94	1116
95	75
101	23
102	84
103	90
104	66
105	59
106	3749
107	334
108	69
115	677
116	188
117	630
118	433
119	503
120	95
121	17
128	40
130	163
131	49
132	399
133	169
134	9999
135	948
136	44
148	26
149	4004
150	422
151	17
