Mass Spectrum: 3-Ethyl-4-octanol
Formula: C10 H22 O
CAS: 63126-48-7
Molecular weight: 158
Origin: NIST Mass Spectrometry Data Center, 1990.
m/z	RELATIVE INTENSITY
15	105
27	1376
28	774
29	2132
30	123
31	698
32	98
39	809
41	3851
42	476
43	2627
44	659
45	1101
53	264
55	1826
56	233
57	1678
58	324
59	2063
67	191
69	9999
70	1705
71	621
72	169
83	869
84	138
86	1564
87	3925
88	218
101	1159
