Mass Spectrum: Thianaphthene-2-carboxylic acid
Formula: C9 H6 O2 S
CAS: 6314-28-9
Molecular weight: 178
Origin: NIST Mass Spectrometry Data Center, 1994
m/z	RELATIVE INTENSITY
18	62
26	111
27	177
28	46
29	99
32	111
37	287
38	428
39	1019
40	59
43	43
44	182
45	1665
46	62
47	52
49	170
50	729
51	511
52	80
53	200
54	42
56	38
57	318
58	204
59	56
60	124
61	521
62	904
63	1875
64	179
65	148
66	38
67	444
68	38
69	1081
70	112
71	100
73	137
74	550
75	570
76	146
77	366
78	145
81	452
82	527
83	102
84	144
85	179
86	251
87	337
88	100
89	5346
90	749
91	162
92	99
93	684
94	107
95	159
98	98
102	105
105	136
106	316
107	81
108	242
109	37
117	55
121	497
122	100
132	418
133	2403
134	843
135	245
136	56
150	293
161	7263
162	869
163	355
178	9999
179	1073
180	492
181	45
