Mass Spectrum: Benzo(b)thiophene-2-carboxamide
Formula: C9 H7 N O S
CAS: 6314-42-7
Molecular weight: 177
Origin: NIST Mass Spectrometry Data Center, 1994
m/z	RELATIVE INTENSITY
17	60
18	71
37	217
38	308
39	918
44	967
50	546
51	346
53	157
57	189
58	207
61	341
62	676
63	1483
64	220
65	109
66	109
67	510
68	109
69	980
70	129
75	445
76	136
77	242
81	405
82	350
83	98
86	178
87	259
89	5106
90	756
93	498
106	175
108	233
121	302
132	421
133	2324
134	752
135	172
159	980
161	9999
162	1177
163	537
177	7482
178	928
179	432
