Mass Spectrum: 1-Octen-3-yl-n-propionate
Formula: C11 H20 O2
CAS: 63156-02-5
Molecular weight: 184
Origin: W.Jennings, T.Shibamoto
m/z	RELATIVE INTENSITY
27	70
29	1892
39	70
41	1141
42	190
43	891
53	70
54	3093
55	2192
56	480
57	9999
58	390
59	70
66	70
67	1191
68	1591
69	2993
70	190
71	390
72	1591
73	190
75	280
77	190
81	1591
82	791
83	70
85	390
86	280
95	390
99	1191
100	70
109	190
110	791
111	390
113	2192
114	390
127	480
128	2092
129	190
155	190
