Mass Spectrum: Chloroacetic acid, dodecyl ester
Formula: C14 H27 Cl O2
CAS: 6316-04-7
Molecular weight: 262
Origin: V.G.Zaikin,TIPS,Russian Acad.Sci.Moscow
m/z	RELATIVE INTENSITY
28	30
29	50
39	40
40	20
41	1902
42	1011
43	3143
44	180
49	701
50	50
51	160
52	40
53	150
54	691
55	6806
56	5405
57	5855
58	150
67	1201
68	2542
69	8398
70	7006
71	3503
72	60
77	2732
78	50
79	1031
80	40
81	981
82	4524
83	9999
84	6226
85	2382
86	60
93	130
94	260
95	2112
96	1992
97	7787
98	3954
99	891
100	50
101	60
105	60
107	250
109	180
110	711
111	4184
112	2112
113	490
119	80
121	60
122	30
123	250
124	330
125	1651
126	971
127	290
133	90
135	130
137	130
138	310
139	450
140	2292
141	390
142	60
166	90
167	50
168	1411
169	550
170	50
174	60
182	110
196	10
213	350
214	60
