Mass Spectrum: Pentanoic acid, 2-methyl-, anhydride
Formula: C12 H22 O3
CAS: 63169-61-9
Molecular weight: 214
Origin: NIST Mass Spectrometry Data Center
m/z	RELATIVE INTENSITY
15	10
26	20
27	390
28	180
29	540
30	20
31	10
38	10
39	390
40	80
41	1131
42	530
43	4234
44	160
45	60
50	10
51	20
52	10
53	110
54	30
55	701
56	390
57	40
59	20
65	10
67	20
68	10
69	150
70	120
71	6136
72	330
73	30
74	80
83	10
86	10
87	20
97	10
99	9999
100	681
101	50
115	10
117	30
143	10
