Mass Spectrum: Benzoic acid, undecyl ester
Formula: C18 H28 O2
CAS: 6316-30-9
Molecular weight: 276
Origin: V.G. Zaikin, R.S.Borisov, TIPS RAS, Moscow, Russia
m/z	RELATIVE INTENSITY
26	20
27	80
29	160
39	140
40	60
41	1051
42	270
43	821
44	30
50	40
51	300
52	20
53	120
54	220
55	1081
56	711
57	530
58	20
66	30
67	270
68	340
69	891
70	741
71	180
75	20
76	180
77	2843
78	260
79	781
80	70
81	120
82	490
83	921
84	641
85	110
91	30
94	20
95	50
96	250
97	751
98	280
99	20
103	30
105	5195
106	400
107	40
110	100
111	520
112	160
120	50
121	30
122	1401
123	9999
124	851
125	350
126	360
127	20
135	30
150	20
154	1281
155	130
163	60
178	60
276	200
277	50
