Mass Spectrum: 4-Dimethylaminobenzoin
Formula: C16 H17 N O2
CAS: 6317-85-7
Molecular weight: 255
Origin: J.E. WILKINSON S-CUBED, SAN DIEGO, CA.
m/z	RELATIVE INTENSITY
40	37
41	57
42	1791
43	67
44	134
45	4
49	7
50	917
51	2316
52	213
53	59
54	7
55	12
57	2
61	2
62	31
63	380
64	77
65	237
66	38
67	5
68	28
69	29
73	80
74	174
75	143
76	532
77	4362
78	1014
79	902
80	64
81	5
82	1
87	2
89	54
90	233
91	797
92	232
93	67
94	16
102	11
103	72
104	1043
105	1991
106	178
107	18
115	2
117	45
118	577
119	499
120	404
121	20
122	6
132	85
133	8
134	935
135	32
139	1
146	2
148	9999
149	949
150	83
