Mass Spectrum: Thiocyanic acid, methylene ester
Formula: C3 H2 N2 S2
CAS: 6317-18-6
Molecular weight: 130
Origin: NIST Mass Spectrometry Data Center, 1998.
m/z	RELATIVE INTENSITY
12	20
13	10
14	40
26	150
27	30
28	130
32	550
33	50
34	30
38	20
39	20
40	30
44	580
45	4510
46	2240
47	250
48	100
52	10
56	30
57	50
58	1470
59	120
60	80
61	10
64	80
66	10
70	220
71	140
72	9999
73	350
74	480
75	10
76	130
77	50
78	20
90	20
102	30
103	10
130	460
131	30
132	40
