Mass Spectrum: Thiophene, 3,4-dimethyl-
Formula: C6 H8 S
CAS: 632-15-5
Molecular weight: 112
Origin: Dr. Jiri Zamecnik, DCIEM, North York, Canada, GP Library
m/z	RELATIVE INTENSITY
38	240
39	1090
41	430
45	1750
47	110
50	180
51	340
53	350
55	110
58	160
59	200
65	190
67	450
69	480
70	140
71	490
77	690
78	300
79	250
84	80
85	170
97	6700
98	180
99	120
109	90
110	120
111	9999
112	8420
113	540
114	140
