Mass Spectrum: Sulfasomizole
Formula: C10 H11 N3 O2 S2
CAS: 632-00-8
Molecular weight: 269
Origin: Finnigan MAT: Toxicological Library (LIBR-TX)
m/z	RELATIVE INTENSITY
41	637
42	480
52	265
54	323
64	408
65	3840
66	672
72	616
80	410
91	192
92	7804
93	724
108	4416
109	301
114	101
124	210
125	92
140	680
156	9999
157	685
158	394
205	494
269	1875
270	888
271	195
