Mass Spectrum: Hydrazine, tetraphenyl-
Formula: C24 H20 N2
CAS: 632-52-0
Molecular weight: 336
Origin: A.ALM RES. INST. SWEDISH NAT. DEFENCE, SUNDBYBERG, SWEDEN
m/z	RELATIVE INTENSITY
39	800
50	400
51	1500
52	400
63	300
64	200
65	600
66	700
76	200
77	1500
78	1500
84	400
115	300
139	300
140	200
141	400
142	200
166	800
167	3900
168	7700
169	9999
170	1400
336	1700
337	400
