Mass Spectrum: 1,1,2,2-Ethanetetracarboxylic acid, tetraethyl ester
Formula: C14 H22 O8
CAS: 632-56-4
Molecular weight: 318
m/z	RELATIVE INTENSITY
14	110
15	250
18	170
19	190
26	270
27	2092
28	1321
29	6866
30	260
31	1972
32	240
41	100
42	150
43	520
44	290
45	1641
46	450
47	320
53	550
54	300
55	1021
56	110
57	50
58	100
59	50
69	200
71	611
72	160
73	340
75	110
81	410
82	380
83	80
86	60
87	140
98	160
99	7717
100	1111
101	390
102	50
103	120
104	140
113	70
115	170
117	1431
118	100
125	1021
126	801
127	9999
128	1441
129	280
131	70
142	5105
143	310
144	2032
145	150
152	110
153	220
154	2132
155	420
169	130
170	140
171	4274
172	430
173	5325
174	591
175	80
181	210
182	120
185	50
187	130
189	80
198	230
199	6506
200	2382
201	1531
202	180
214	70
217	340
226	1611
227	4434
228	651
229	110
243	70
245	2933
246	1001
247	150
272	2222
273	3203
274	460
