Mass Spectrum: Urea, trimethyl-
Formula: C4 H10 N2 O
CAS: 632-14-4
Molecular weight: 102
Origin: M.A.BALDWIN, UNIVERSITY COLLEGE, LONDON, UK
m/z	RELATIVE INTENSITY
28	770
29	180
30	1320
31	90
39	100
40	210
41	400
42	2060
43	2910
44	9999
45	1840
55	230
56	210
57	220
58	1060
59	190
69	200
70	100
71	280
72	1620
73	130
102	1130
103	80
