Mass Spectrum: Benzene, 1,1',1'',1'''-(1,2-ethanediylidene)tetrakis-
Formula: C26 H22
CAS: 632-50-8
Molecular weight: 334
Origin: Japan AIST/NIMC Database- Spectrum MS-IW-6954
m/z	RELATIVE INTENSITY
28	10
39	40
41	10
43	10
50	10
51	40
57	10
63	30
65	50
69	10
71	10
75	10
76	20
77	40
78	10
81	10
82	40
83	60
84	10
89	40
90	10
91	99
92	10
102	20
105	10
113	10
115	90
116	10
126	20
127	20
128	90
129	10
139	50
141	40
150	10
151	90
152	969
153	219
154	10
163	60
164	90
165	1529
166	649
167	9999
168	1889
169	159
176	10
177	10
178	40
179	20
181	40
182	10
239	20
240	10
241	10
252	20
253	20
254	10
255	20
256	20
334	50
335	10
