Mass Spectrum: 3-Methyl-4-hexyn-3-ol
Formula: C7 H12 O
CAS: 6320-68-9
Molecular weight: 112
Origin: NIST Mass Spectrometry Data Center, 1994
m/z	RELATIVE INTENSITY
13	4
14	48
15	477
17	30
18	29
19	16
25	21
26	230
27	1427
28	301
29	988
30	19
36	16
37	163
38	383
39	1845
40	332
41	1063
42	16
43	8107
44	171
49	33
50	255
51	380
52	132
53	462
54	77
55	468
56	32
57	341
58	16
60	9
61	48
62	121
63	244
64	56
65	252
66	124
67	648
68	75
69	100
71	15
72	31
73	16
75	14
76	15
77	283
78	53
79	189
80	34
81	40
82	14
83	9999
84	557
85	36
91	58
93	34
94	26
95	71
96	26
97	986
98	54
112	13
