Mass Spectrum: Tris(2-methylallyl)amine
Formula: C12 H21 N
CAS: 6321-40-0
Molecular weight: 179
Origin: Japan AIST/NIMC Database- Spectrum MS-IW- 865
m/z	RELATIVE INTENSITY
15	20
27	229
28	10
29	709
30	219
38	10
39	349
40	40
41	399
42	439
43	189
44	119
51	20
52	10
53	209
54	70
55	3219
56	359
57	70
58	99
59	10
65	20
66	10
67	679
68	199
69	199
70	229
71	20
72	10
77	20
79	70
80	129
81	309
82	799
83	109
84	409
85	30
91	40
92	10
93	70
94	149
95	159
96	269
97	50
98	30
105	20
106	20
107	80
108	319
109	279
110	119
111	99
112	20
120	10
121	20
122	259
123	559
124	249
125	20
134	10
136	769
137	99
138	9999
139	1029
140	60
148	10
150	70
151	50
152	10
162	20
164	1239
165	159
166	10
178	129
179	1219
180	179
181	10
