Mass Spectrum: 4-Chloro-2-butanone
Formula: C4 H7 Cl O
CAS: 6322-49-2
Molecular weight: 106
Origin: NIST Mass Spectrometry Data Center, 1994
m/z	RELATIVE INTENSITY
4	12
12	29
13	84
14	349
15	1299
16	24
18	11
24	16
25	103
26	772
27	2209
28	469
29	202
31	26
35	95
36	69
37	162
38	158
39	298
40	53
41	224
42	877
43	9999
44	244
45	39
47	34
48	48
49	232
50	103
51	132
52	19
53	85
55	291
56	23
60	33
61	90
63	772
64	41
65	248
71	1188
72	49
73	13
91	193
92	10
93	59
106	190
107	9
108	59
