Mass Spectrum: 1-Diethylamino-2-butyne
Formula: C8 H15 N
CAS: 6323-82-6
Molecular weight: 125
Origin: NIST Mass Spectrometry Data Center, 1994
m/z	RELATIVE INTENSITY
13	22
14	96
15	531
16	22
17	45
18	330
26	421
27	3812
28	3365
29	1957
30	1497
31	29
32	122
37	96
38	227
39	921
40	250
41	1166
42	4608
43	218
44	580
48	32
49	41
50	403
51	774
52	443
53	5571
54	847
55	376
56	1538
57	192
58	3356
59	158
63	24
64	36
65	114
66	157
67	221
68	400
69	78
70	868
71	85
72	269
77	56
79	86
80	256
81	162
82	227
84	127
86	271
87	27
93	30
94	195
95	68
96	168
108	190
110	9999
111	868
112	35
122	39
124	515
125	1418
126	136
