Mass Spectrum: Benzamide, 4-bromo-N-(1-naphthyl)-
Formula: C17 H12 Br N O
CAS: 63295-61-4
Molecular weight: 325
Origin: Zaikin V.G., TIPS RAS, Moscow, Russia
m/z	RELATIVE INTENSITY
27	30
28	10
38	20
39	80
44	30
50	280
51	120
52	30
62	50
63	150
64	30
65	100
74	130
75	631
76	1071
77	220
78	30
80	70
82	70
87	40
88	80
89	230
90	40
101	30
102	30
103	40
104	821
105	150
113	150
114	270
115	1922
116	310
126	50
127	100
140	290
141	140
142	120
143	571
144	1051
145	110
155	2282
156	200
157	2262
158	170
169	40
183	9999
184	811
185	9959
186	751
187	40
189	50
190	30
202	30
203	60
215	30
216	100
217	200
218	70
245	50
246	50
247	30
290	40
292	30
325	4724
326	941
327	4824
328	911
329	80
