Mass Spectrum: Benzamide, 4-amino-N,N-dimethyl-
Formula: C9 H12 N2 O
CAS: 6331-71-1
Molecular weight: 164
Origin: A.A.Kutin, Moscow, Russia
m/z	RELATIVE INTENSITY
38	172
39	1643
41	844
42	1870
43	549
44	821
51	155
52	322
54	105
55	39
62	50
63	866
65	4789
66	411
75	50
90	83
91	1043
92	3341
93	400
106	105
119	128
120	9999
121	832
135	377
163	560
164	2048
