Mass Spectrum: 2-Hydroxy-3-nitropyridine
Formula: C5 H4 N2 O3
CAS: 6332-56-5
Molecular weight: 140
Origin: Japan AIST/NIMC Database- Spectrum MS-NW-6560
m/z	RELATIVE INTENSITY
12	30
13	20
14	20
15	60
16	30
18	20
24	40
25	119
26	469
27	369
28	1749
29	349
30	1409
31	20
32	30
36	149
37	1319
38	3879
39	8209
40	1119
41	119
42	80
43	129
44	299
45	99
46	99
48	50
49	159
50	699
51	1239
52	899
53	1419
54	589
55	719
56	80
57	10
62	70
63	209
64	1049
65	1189
66	4789
67	2289
68	269
69	50
70	70
74	10
75	80
76	239
77	80
78	80
79	60
80	40
81	40
82	4669
83	249
84	10
91	10
92	30
93	159
94	4309
95	259
96	40
107	90
108	10
110	429
111	30
124	129
125	10
140	9999
141	689
142	90
143	10
