Mass Spectrum: 3-Dibutylamino-1-propyne
Formula: C11 H21 N
CAS: 6336-58-9
Molecular weight: 167
Origin: NIST Mass Spectrometry Data Center
m/z	RELATIVE INTENSITY
15	200
16	10
18	40
26	120
27	1541
28	1411
29	2652
30	400
32	30
36	10
37	80
38	200
39	1952
40	611
41	4014
42	1692
43	370
44	250
45	10
50	20
51	60
52	110
53	270
54	470
55	540
56	340
57	1101
58	80
63	10
65	100
66	240
67	350
68	2893
69	190
70	210
71	20
72	20
77	40
78	20
79	60
80	230
82	7667
83	490
84	450
85	30
86	90
91	10
92	10
93	30
94	200
95	70
96	130
97	10
98	70
99	50
100	90
106	10
107	10
108	60
110	190
111	30
112	40
122	80
124	9999
125	851
126	50
128	10
136	10
138	50
142	90
152	60
153	10
166	70
167	360
168	40
