Mass Spectrum: N,N-Dimethylethanesulfonamide
Formula: C4 H11 N O2 S
CAS: 6338-68-7
Molecular weight: 137
Origin: NIST Mass Spectrometry Data Center, 1994
m/z	RELATIVE INTENSITY
13	34
14	198
15	2033
16	46
17	34
18	1697
19	30
26	627
27	2890
28	1947
29	4784
30	676
32	50
33	28
34	27
38	30
39	52
40	293
41	412
42	4057
43	1637
44	9999
45	6037
46	197
47	34
48	285
49	100
50	52
56	68
58	1350
59	44
60	88
61	49
63	32
64	124
65	190
66	691
67	61
68	41
70	26
72	224
73	47
76	64
77	85
78	58
91	50
92	521
93	49
94	89
95	163
108	760
109	43
110	34
136	208
137	835
138	63
139	43
