Mass Spectrum: 1H-Imidazole, 1,4-dimethyl-
Formula: C5 H8 N2
CAS: 6338-45-0
Molecular weight: 96
Origin: L.Muller ET.AL.J.Agric.Food Chem.,46,3172(1998)
m/z	RELATIVE INTENSITY
41	1511
42	4154
44	150
51	170
52	440
53	190
54	1862
55	460
56	90
65	50
66	380
67	200
68	4444
69	290
79	70
81	1842
82	310
83	90
91	70
93	70
95	7877
96	9999
97	591
