Mass Spectrum: 1,2-Bis(2,4-dichlorophenoxy)ethane
Formula: C14 H10 Cl4 O2
CAS: 6339-70-4
Molecular weight: 350
Origin: NIST Mass Spectrometry Data Center, 1994
m/z	RELATIVE INTENSITY
15	14
26	131
27	715
31	50
35	68
36	84
37	233
38	351
39	313
42	62
43	318
47	152
49	142
50	354
51	164
53	232
54	32
55	42
60	65
61	482
62	1026
63	3374
64	261
65	227
66	86
71	69
72	412
73	1931
74	821
75	1614
76	153
77	73
83	606
84	231
85	629
86	126
87	157
88	69
89	546
90	184
91	566
92	56
94	30
97	690
98	1040
99	699
100	340
101	196
106	60
107	459
109	2347
110	460
111	1141
112	224
113	147
114	55
117	192
118	132
119	209
121	41
123	102
125	3948
126	1054
127	1584
128	729
129	153
130	145
131	48
132	41
133	3884
134	352
135	2546
136	260
137	477
138	53
143	35
145	1819
146	479
147	1321
148	242
149	266
150	71
153	1131
154	2187
155	519
156	684
157	75
158	35
159	626
160	35
161	3178
162	2217
163	2229
164	1472
165	596
166	269
167	51
168	24
171	91
173	83
175	282
176	122
177	209
179	40
188	1406
189	9999
190	1597
191	6624
192	745
193	985
194	94
207	92
210	44
236	64
238	55
249	49
251	34
252	46
254	51
265	53
267	45
280	61
281	55
303	22
350	5262
351	822
352	6918
353	1065
354	3437
355	523
356	776
357	156
358	95
