Mass Spectrum: Nicotinonitrile, 2-hydroxy-4-(methoxymethyl)-6-methyl-
Formula: C9 H10 N2 O2
CAS: 6339-38-4
Molecular weight: 178
Origin: Japan AIST/NIMC Database- Spectrum MS-IW-3752
m/z	RELATIVE INTENSITY
14	10
15	309
16	10
26	80
27	199
28	349
29	509
30	70
31	60
32	30
37	189
38	249
39	619
40	159
41	309
42	1599
43	139
44	70
45	2259
46	50
49	40
50	299
51	529
52	479
53	349
54	139
55	60
56	40
57	30
58	30
59	90
60	80
61	80
62	139
63	479
64	649
65	779
66	419
67	219
68	99
69	40
70	20
71	10
73	40
74	99
75	179
76	389
77	479
78	489
79	459
80	539
81	179
82	80
83	20
84	40
85	10
86	10
87	30
88	60
89	70
90	269
91	349
92	619
93	379
94	459
95	40
96	60
97	20
99	10
100	10
101	10
102	50
103	169
104	229
105	1109
106	279
107	449
108	229
109	50
110	10
111	10
112	10
116	30
117	269
118	559
119	2549
120	2249
121	279
122	80
123	30
129	60
130	369
131	70
132	50
133	259
134	189
135	649
136	129
137	20
144	20
145	70
146	199
147	1199
148	9999
149	1069
150	119
151	10
152	139
153	20
161	30
162	70
163	949
164	99
165	10
177	259
178	6899
179	759
180	70
181	30
