Mass Spectrum: 1H-Pyrrole-2-carboxylic acid
Formula: C5 H5 N O2
CAS: 634-97-9
Molecular weight: 111
Origin: NIST Mass Spectrometry Data Center, 1994
m/z	RELATIVE INTENSITY
12	49
14	124
16	26
17	32
18	44
25	85
26	236
28	1908
29	274
32	93
36	162
37	973
38	2100
39	3057
40	831
41	351
44	114
45	513
47	90
49	55
50	59
51	83
52	150
53	183
54	166
55	288
62	69
63	138
64	626
65	3465
66	2335
67	175
82	111
83	94
93	8392
94	2148
95	158
111	9999
112	664
113	61
