Mass Spectrum: Benzenamine, 2,3,4-trichloro-
Formula: C6 H4 Cl3 N
CAS: 634-67-3
Molecular weight: 195
Origin: Japan AIST/NIMC Database- Spectrum MS-NW-3247
m/z	RELATIVE INTENSITY
25	10
26	40
27	30
28	219
35	99
36	139
37	209
38	129
39	90
40	60
41	289
42	20
43	20
44	249
45	40
47	90
48	80
49	139
50	90
51	70
52	259
53	30
54	30
60	129
61	539
62	679
63	439
64	99
65	139
66	30
67	30
68	20
71	149
72	209
73	409
74	159
75	189
76	70
77	20
78	20
79	359
80	259
81	50
82	20
83	129
84	119
85	90
86	189
87	90
88	479
89	399
90	339
91	20
94	20
95	50
96	209
97	819
98	499
99	439
100	109
101	80
102	20
103	10
106	80
107	199
108	109
109	149
110	50
111	30
112	20
118	10
119	20
120	10
121	20
122	40
123	209
124	2249
125	819
126	799
127	259
128	20
130	10
131	80
132	139
133	1179
134	169
135	779
136	80
137	159
138	10
141	20
143	30
144	20
145	30
146	10
147	10
148	30
150	20
154	10
156	10
158	80
159	609
160	799
161	479
162	499
163	109
164	90
165	10
167	279
168	119
169	289
170	119
171	99
172	40
173	20
178	10
180	50
181	10
182	40
184	20
194	109
195	9999
196	809
197	9499
198	699
199	3029
200	239
201	329
202	30
