Mass Spectrum: Benzenamine, 3,4,5-trichloro-
Formula: C6 H4 Cl3 N
CAS: 634-91-3
Molecular weight: 195
Origin: Japan AIST/NIMC Database- Spectrum MS-IW- 656
m/z	RELATIVE INTENSITY
28	50
35	10
36	60
37	40
38	30
39	20
40	10
41	60
44	80
45	10
47	10
48	20
49	40
50	10
51	20
52	80
60	20
61	119
62	279
63	189
64	30
65	50
66	10
67	10
71	10
72	50
73	169
74	50
75	70
76	20
78	10
79	259
80	169
81	30
83	80
84	40
85	60
86	40
87	20
88	139
89	129
90	199
91	10
95	10
96	40
97	449
98	439
99	179
100	50
101	30
107	109
108	30
109	90
110	10
111	10
119	10
121	10
122	10
123	90
124	1139
125	399
126	389
127	119
131	30
132	70
133	1239
134	129
135	819
136	60
137	139
141	10
143	20
145	10
148	10
158	50
159	589
160	899
161	459
162	559
163	99
164	90
167	189
168	199
169	189
170	189
171	70
172	60
176	99
177	10
178	70
180	20
194	109
195	9999
196	809
197	9519
198	699
199	3049
200	209
201	329
202	20
