Mass Spectrum: Benzenamine, 2,4,6-trichloro-
Formula: C6 H4 Cl3 N
CAS: 634-93-5
Molecular weight: 195
Origin: Japan AIST/NIMC Database- Spectrum MS-NW-8752
m/z	RELATIVE INTENSITY
26	10
27	10
28	159
35	30
36	189
37	209
38	169
39	70
40	10
41	40
43	20
44	349
45	40
47	70
48	119
49	149
50	90
51	80
52	399
53	30
60	119
61	479
62	779
63	459
64	109
65	179
66	40
67	40
68	20
71	60
72	179
73	409
74	169
75	209
76	60
77	30
78	10
79	539
80	359
81	70
82	10
83	129
84	50
85	99
86	109
87	90
88	729
89	319
90	289
91	20
95	40
96	129
97	859
98	769
99	419
100	99
101	40
102	10
106	20
107	199
108	60
109	149
110	30
111	30
112	10
121	10
122	30
123	439
124	2049
125	539
126	679
127	129
130	10
131	80
132	389
133	739
134	319
135	489
136	80
137	90
138	10
143	10
145	10
148	10
158	80
159	1349
160	969
161	929
162	589
163	179
164	99
166	10
167	269
168	119
169	269
170	109
171	90
172	30
173	10
194	129
195	9999
196	859
197	9529
198	749
199	3049
200	229
201	329
202	20
