Mass Spectrum: Benzene, 1,2,3,5-tetrachloro-
Formula: C6 H2 Cl4
CAS: 634-90-2
Molecular weight: 214
Origin: Japan AIST/NIMC Database- Spectrum MS-NW-8753
m/z	RELATIVE INTENSITY
35	60
36	209
37	299
38	99
47	90
48	30
49	169
50	99
54	189
55	60
60	80
61	139
62	70
71	249
72	359
73	659
74	1009
75	70
83	50
84	529
85	80
86	179
87	20
89	319
90	309
91	99
92	10
94	60
95	60
96	70
97	60
98	10
99	10
106	30
107	709
108	1419
109	1079
110	339
111	239
112	10
118	99
119	90
120	80
121	60
122	20
123	10
130	10
131	30
132	10
133	20
141	10
142	30
143	949
144	439
145	639
146	259
147	109
148	40
154	30
156	30
158	10
167	10
169	10
177	10
178	169
179	1849
180	279
181	1779
182	159
183	569
184	40
185	60
213	10
214	7809
215	529
216	9999
217	669
218	4799
219	319
220	1039
221	60
222	80
