Mass Spectrum: Ethyl 2-cyanoacetoacetate
Formula: C7 H9 N O3
CAS: 634-55-9
Molecular weight: 155
Origin: NIST Mass Spectrometry Data Center, 1994
m/z	RELATIVE INTENSITY
12	55
13	47
14	233
15	954
16	55
17	7
18	2
19	33
24	23
25	84
26	616
27	2242
28	807
29	2697
30	168
31	388
32	15
37	200
38	386
39	329
40	441
41	216
42	15
43	9999
44	375
45	507
46	58
50	44
51	160
52	504
53	398
54	610
55	162
56	164
61	574
62	41
63	83
64	128
65	114
66	186
67	382
68	1625
69	296
70	36
72	38
78	25
80	93
81	172
83	827
84	123
85	376
94	92
95	67
96	160
97	34
98	56
99	81
109	2851
110	556
111	199
112	1013
113	61
127	2761
128	164
137	50
140	128
155	1724
156	123
