Mass Spectrum: Urea, N,N-diethyl-
Formula: C5 H12 N2 O
CAS: 634-95-7
Molecular weight: 116
Origin: Japan AIST/NIMC Database- Spectrum MS-NW-4670
m/z	RELATIVE INTENSITY
12	10
14	30
15	349
16	70
17	40
18	179
25	10
26	179
27	1099
28	1009
29	1659
30	4979
31	80
38	20
39	40
40	109
41	239
42	919
43	569
44	3449
45	99
46	10
50	10
52	10
53	10
54	50
55	179
56	489
57	119
58	9999
59	399
68	10
69	20
70	99
71	40
72	929
73	479
74	20
83	40
87	419
88	90
98	40
100	50
101	2439
102	129
116	2329
117	169
118	10
