Mass Spectrum: Quinoxaline, 6-methyl-
Formula: C9 H8 N2
CAS: 6344-72-5
Molecular weight: 144
m/z	RELATIVE INTENSITY
26	90
27	230
38	190
39	681
40	140
50	260
51	350
52	230
62	300
63	861
64	510
65	160
72	470
75	120
76	120
89	1872
90	3183
91	260
116	300
117	1682
118	190
142	210
143	1591
144	9999
145	1051
