Mass Spectrum: Benzoic acid, 2-amino-5-chloro-
Formula: C7 H6 Cl N O2
CAS: 635-21-2
Molecular weight: 171
Origin: Japan AIST/NIMC Database- Spectrum MS-NW-3361
m/z	RELATIVE INTENSITY
14	10
15	10
17	20
18	70
25	30
26	50
27	99
28	309
29	70
31	30
35	30
36	70
37	339
38	479
39	609
40	149
41	299
42	40
43	10
44	289
45	369
46	20
47	50
48	30
49	159
50	249
51	319
52	759
53	229
54	90
55	30
58	10
59	60
60	80
61	419
62	759
63	2529
64	619
65	549
66	109
67	30
68	50
69	10
71	40
72	139
73	529
74	209
75	269
76	269
77	169
78	109
79	70
80	209
81	30
84	30
85	129
86	60
87	90
88	139
89	379
90	1729
91	439
92	119
93	10
96	20
97	129
98	879
99	1029
100	399
101	329
102	40
106	10
107	10
108	129
109	10
110	109
111	20
112	40
114	50
115	20
116	20
117	20
118	30
119	10
124	199
125	3339
126	2889
127	1319
128	969
129	99
136	60
137	30
139	10
142	20
151	10
152	40
153	9999
154	1009
155	3219
156	319
157	20
170	30
171	5989
172	509
173	1999
174	159
175	10
