Mass Spectrum: 1,2-Benzenediol, diacetate
Formula: C10 H10 O4
CAS: 635-67-6
Molecular weight: 194
Origin: Japan AIST/NIMC Database- Spectrum MS-IW-3857
m/z	RELATIVE INTENSITY
14	20
15	229
18	10
26	60
27	99
28	90
29	20
37	10
38	40
39	80
41	10
42	90
43	4689
44	109
45	30
49	10
50	109
51	189
52	369
53	149
54	50
55	30
60	10
61	10
62	20
63	129
64	229
65	50
77	10
79	20
80	99
81	299
82	80
92	129
93	10
109	219
110	9999
111	699
112	60
135	10
151	10
152	1959
153	179
154	20
194	269
195	30
