Mass Spectrum: Butanedioic acid, phenyl-
Formula: C10 H10 O4
CAS: 635-51-8
Molecular weight: 194
Origin: Japan AIST/NIMC Database- Spectrum MS-NW-2304
m/z	RELATIVE INTENSITY
12	60
13	10
15	20
17	89
18	115
24	10
25	40
26	269
27	409
28	110
29	129
30	10
36	10
37	80
38	159
39	529
40	40
41	109
42	90
43	129
44	569
45	229
46	10
49	80
50	599
51	1569
52	539
53	99
54	20
55	80
56	20
57	60
58	10
60	20
61	90
62	189
63	419
64	90
65	179
66	80
67	30
68	20
69	30
70	20
71	30
73	40
74	199
75	189
76	289
77	1649
78	1779
79	1029
80	70
81	20
82	60
83	30
84	20
85	30
86	30
87	50
88	10
89	219
90	169
91	1619
92	139
93	20
94	20
95	30
96	20
97	20
98	20
99	10
101	40
102	609
103	2239
104	9999
105	1259
106	109
107	1099
108	109
109	20
110	10
111	10
115	50
116	40
117	10
118	119
119	20
120	30
122	20
123	50
124	10
125	10
127	10
129	20
130	30
131	109
132	99
133	20
135	10
147	60
148	1579
149	189
150	789
151	90
174	30
176	939
177	129
178	10
194	30
