Mass Spectrum: 1H-Pyrrole, 1-phenyl-
Formula: C10 H9 N
CAS: 635-90-5
Molecular weight: 143
Origin: Japan AIST/NIMC Database- Spectrum MS-NW-6787
m/z	RELATIVE INTENSITY
26	50
27	129
28	129
37	80
38	169
39	609
40	119
41	99
49	30
50	399
51	1249
52	149
53	20
57	60
58	229
59	20
61	30
62	80
63	239
64	109
65	129
66	30
67	70
70	109
71	299
72	30
73	10
74	119
75	109
76	139
77	1239
78	119
86	10
87	30
88	40
89	329
90	289
91	70
94	10
101	10
102	40
103	149
104	519
105	40
113	40
114	119
115	4079
116	1899
117	729
118	60
128	30
140	80
141	139
142	699
143	9999
144	1159
145	60
