Mass Spectrum: Benzene, 1,2,4,5-tetrakis(1-methylethyl)-
Formula: C18 H30
CAS: 635-11-0
Molecular weight: 246
Origin: Japan AIST/NIMC Database- Spectrum MS-IW-2480
m/z	RELATIVE INTENSITY
27	90
28	10
29	60
39	50
41	489
42	20
43	1239
44	40
51	20
53	60
55	129
57	30
63	10
64	20
65	60
66	10
67	50
69	99
70	10
71	40
72	30
76	20
77	129
78	90
79	139
80	20
81	20
82	10
83	70
84	40
85	149
86	50
89	20
90	10
91	509
92	90
93	90
94	20
95	10
99	10
100	10
102	10
103	40
104	10
105	379
106	50
107	70
108	50
115	179
116	70
117	249
118	30
119	609
120	60
121	20
127	50
128	219
129	269
130	99
131	269
132	40
133	379
134	40
135	10
139	10
141	139
142	119
143	189
144	70
145	309
146	40
147	859
148	99
149	10
152	30
153	60
154	40
155	90
156	60
157	139
158	40
159	149
160	20
161	199
162	30
165	30
166	10
167	20
168	10
169	40
170	20
171	60
172	20
173	159
174	20
175	149
176	20
183	10
185	30
186	10
187	109
188	50
189	209
190	30
199	10
201	90
202	20
203	779
204	129
205	10
215	169
216	50
217	30
229	50
231	9999
232	1889
233	169
234	10
245	90
246	2989
247	589
248	50
