Mass Spectrum: Benzaldehyde, 5-chloro-2-hydroxy-
Formula: C7 H5 Cl O2
CAS: 635-93-8
Molecular weight: 156
Origin: Japan AIST/NIMC Database- Spectrum MS-NW-6155
m/z	RELATIVE INTENSITY
12	20
13	10
14	40
15	10
16	10
17	10
18	30
24	10
25	30
26	109
27	109
28	169
29	449
30	10
31	99
32	40
35	30
36	129
37	429
38	589
39	1129
40	60
41	30
42	60
43	30
44	50
45	60
46	329
47	80
48	60
49	249
50	489
51	279
52	30
53	629
54	40
55	139
56	20
59	10
60	149
61	469
62	699
63	1589
64	699
65	1509
66	199
67	80
68	30
69	30
70	10
71	50
72	159
73	989
74	399
75	669
76	80
77	90
78	129
79	50
83	10
84	90
85	50
86	50
87	40
88	10
89	50
90	50
91	70
92	129
93	129
94	20
95	10
96	20
97	60
98	109
99	1539
100	339
101	529
102	119
103	20
104	20
105	10
107	10
108	10
109	20
110	1849
111	199
112	619
113	60
115	30
116	10
119	10
120	20
121	70
122	70
123	10
125	10
126	139
127	1459
128	639
129	519
130	199
131	10
137	10
138	1309
139	129
140	449
141	40
142	10
153	10
154	149
155	7809
156	9999
157	3309
158	3289
159	279
160	30
