Mass Spectrum: 1H-Inden-1-ol, 2,3-dihydro-
Formula: C9 H10 O
CAS: 6351-10-6
Molecular weight: 134
Origin: NIST Mass Spectrometry Data Center, 1990.
m/z	RELATIVE INTENSITY
26	238
27	1260
28	309
29	419
38	400
39	1712
40	146
50	1206
51	2274
52	553
53	394
55	1209
58	519
61	259
62	780
63	1764
64	351
65	976
66	383
74	629
75	436
76	442
77	2827
78	1017
79	1726
87	305
88	263
89	1338
90	386
91	2612
92	436
102	358
103	1170
104	492
105	2874
106	282
115	5625
116	4004
117	1634
118	267
131	285
133	9999
134	5226
135	519
