Mass Spectrum: Benzenamine, 4-chloro-2,5-dimethoxy-
Formula: C8 H10 Cl N O2
CAS: 6358-64-1
Molecular weight: 187
Origin: RADIAN CORP
m/z	RELATIVE INTENSITY
27	10
30	30
38	30
39	130
41	120
50	220
51	430
52	410
53	460
54	20
58	10
60	80
61	60
62	120
63	160
64	70
65	170
66	380
67	40
68	310
72	30
73	50
74	30
75	30
76	200
77	80
78	520
79	160
80	170
81	40
87	90
88	130
89	100
90	100
92	90
93	190
94	390
99	30
100	30
101	530
102	50
103	130
106	90
107	30
108	150
109	70
113	150
114	100
115	20
116	50
122	200
123	200
124	40
129	1910
130	160
131	610
132	40
142	10
143	30
144	1530
145	270
146	500
147	80
156	70
157	70
158	30
159	50
172	9999
173	810
174	3230
175	260
187	4290
188	390
189	1390
190	110
