Mass Spectrum: 1,4-Benzenedicarboxylic acid, diethyl ester
Formula: C12 H14 O4
CAS: 636-09-9
Molecular weight: 222
Origin: Japan AIST/NIMC Database- Spectrum MS-NW-8721
m/z	RELATIVE INTENSITY
14	20
15	129
17	10
18	30
26	139
27	1129
28	339
29	2039
30	60
31	20
37	10
38	99
39	499
40	20
41	10
42	10
43	139
44	20
45	779
46	10
49	20
50	1399
51	569
52	359
53	159
55	10
61	10
62	30
63	109
64	50
65	3089
66	669
67	10
73	50
74	389
75	969
76	2089
77	529
78	60
79	60
81	20
89	20
91	70
92	40
93	349
94	20
102	10
103	1149
104	1749
105	489
106	50
107	10
109	10
119	30
120	30
121	1619
122	339
123	30
126	10
131	80
132	199
133	169
134	30
135	20
147	10
148	70
149	6519
150	1059
151	119
152	10
163	10
164	40
165	40
166	2639
167	259
168	40
169	10
175	70
176	169
177	9999
178	1249
179	179
180	20
193	1159
194	2199
195	269
196	30
197	20
203	10
204	20
207	60
208	10
221	179
222	2019
223	379
224	40
