Mass Spectrum: 4-Nitrobenzoic hydrazide
Formula: C7 H7 N3 O3
CAS: 636-97-5
Molecular weight: 181
Origin: Japan AIST/NIMC Database- Spectrum MS-NW-6158
m/z	RELATIVE INTENSITY
16	20
17	10
18	30
26	30
27	60
28	239
29	129
30	269
31	559
32	30
37	119
38	199
39	169
40	20
41	10
42	10
43	10
44	30
46	30
49	60
50	1759
51	379
52	90
53	99
54	10
60	10
61	60
62	109
63	299
64	499
65	119
66	40
67	10
73	99
74	619
75	1169
76	3339
77	359
78	40
79	10
80	10
86	10
87	10
88	20
89	10
90	60
91	50
92	1929
93	149
94	20
96	10
102	20
103	90
104	5369
105	469
106	40
107	30
118	40
119	20
120	1059
121	119
122	159
123	30
124	10
126	10
134	529
135	90
136	20
137	10
148	10
149	10
150	9999
151	2419
152	229
153	20
164	20
166	20
167	10
181	3229
182	299
183	40
