Mass Spectrum: p-Nitrophenyl p-decyloxybenzoate
Formula: C23 H29 N O5
CAS: 63635-84-7
Molecular weight: 399
Origin: NIST Mass Spectrometry Data Center, 1994
m/z	RELATIVE INTENSITY
27	279
39	217
41	883
42	157
43	754
44	164
55	420
57	295
63	173
64	202
65	424
69	152
73	85
76	190
92	340
93	665
94	80
104	262
105	155
120	687
121	6769
122	601
133	112
147	95
259	100
261	9999
262	2018
263	226
369	89
