Mass Spectrum: Pentane, 2-iodo-
Formula: C5 H11 I
CAS: 637-97-8
Molecular weight: 198
m/z	RELATIVE INTENSITY
14	10
15	40
26	90
27	1151
28	150
29	1822
30	40
37	30
38	80
39	921
40	150
41	2482
42	561
43	7767
44	260
45	20
50	40
51	60
52	20
53	170
54	40
55	1081
56	90
57	130
67	30
68	10
69	80
70	60
71	9999
72	550
73	20
127	300
128	90
129	10
139	10
140	10
141	40
151	10
152	10
153	10
154	10
155	130
156	10
167	10
168	10
169	40
184	60
198	2402
199	130
200	10
