Mass Spectrum: Propanal, 2,2-dimethyl-, oxime
Formula: C5 H11 N O
CAS: 637-91-2
Molecular weight: 101
Origin: CARL DJERASSI DEPT OF CHEM STANFORD UNIV STANFORD CALIF 94305
m/z	RELATIVE INTENSITY
23	100
25	700
26	4500
27	3500
28	3300
29	900
30	600
36	200
37	600
38	4200
39	800
40	9999
41	5400
42	2400
43	800
45	100
48	100
49	200
50	400
51	300
52	500
53	200
54	1100
55	1000
56	2300
57	1000
58	800
59	100
66	500
67	1600
68	1400
69	200
72	3500
82	200
83	100
84	7900
85	400
86	4400
87	100
101	300
