Mass Spectrum: Glycylglycylglycylglycine
Formula: C8 H14 N4 O5
CAS: 637-84-3
Molecular weight: 246
Origin: Japan AIST/NIMC Database- Spectrum MS-NW-5034
m/z	RELATIVE INTENSITY
12	139
13	80
14	499
15	269
16	769
17	459
18	1839
21	10
22	20
24	60
25	129
26	679
27	2879
28	3849
29	1229
30	9999
31	329
32	70
33	30
34	109
36	40
37	60
38	209
39	359
40	729
41	1109
42	1899
43	1129
44	1379
45	239
46	30
47	30
48	40
50	80
51	309
52	199
53	289
54	419
55	459
56	649
57	189
58	349
59	469
60	70
63	30
64	50
65	60
66	90
67	149
68	219
69	179
70	109
71	1429
72	229
73	80
74	119
75	129
76	429
77	70
78	119
79	40
80	149
81	70
82	109
83	139
84	90
85	279
86	249
87	449
88	269
89	80
91	40
92	30
93	20
94	30
95	40
96	159
97	139
98	189
99	219
100	80
101	30
102	20
104	99
105	20
106	20
107	20
108	30
109	50
110	119
111	139
112	139
113	269
114	2539
115	519
116	99
117	279
118	40
119	20
121	20
122	20
123	40
124	70
125	279
126	60
127	80
128	60
129	20
130	50
131	30
132	119
133	109
135	70
136	30
137	40
138	60
139	70
140	20
141	80
142	20
143	30
144	20
145	80
146	40
149	30
150	20
151	30
152	40
153	449
154	80
155	50
156	129
157	20
159	70
161	20
163	20
164	20
165	40
166	20
167	40
168	20
169	20
170	20
171	80
172	60
173	50
174	699
175	70
176	20
178	20
179	20
180	20
181	20
182	20
183	20
185	10
189	80
190	30
193	20
194	30
195	50
196	20
197	20
198	20
199	20
202	30
203	10
210	20
211	50
212	20
213	50
216	50
217	50
228	30
246	20
