Mass Spectrum: n-Butyric acid tetrahydrofurfuryl ester
Formula: C8 H14 O3
CAS: 637-65-0
Molecular weight: 158
Origin: Insect Chem. Ecol. Lab., USDA, Beltsville, MD 20705
m/z	RELATIVE INTENSITY
41	2049
42	1127
43	3636
45	307
47	7
48	11
50	35
51	57
52	9
53	212
54	175
55	550
57	3528
58	116
59	40
60	7
63	6
65	26
66	7
67	127
68	25
69	155
71	9999
72	400
73	68
74	38
75	85
77	14
81	34
82	6
83	162
84	2433
85	588
86	70
87	123
88	90
89	38
90	6
91	14
95	37
97	16
98	38
99	35
100	42
101	57
103	31
104	49
105	7
111	10
112	8
113	6
114	77
115	102
116	7
117	37
128	21
129	126
139	7
141	16
142	47
143	52
144	13
152	7
157	66
158	240
159	15
