Mass Spectrum: Phenylpropiolic acid
Formula: C9 H6 O2
CAS: 637-44-5
Molecular weight: 146
Origin: Japan AIST/NIMC Database- Spectrum MS-NW-2601
m/z	RELATIVE INTENSITY
12	20
16	70
18	40
22	10
26	40
27	40
28	20
36	20
37	99
38	99
39	269
40	10
44	2339
45	20
48	10
49	109
50	919
51	759
52	569
53	20
59	30
60	119
61	239
62	569
63	30
73	109
74	779
75	679
76	2119
77	149
78	20
85	20
86	30
87	109
97	30
98	139
99	50
100	20
101	219
102	9999
103	899
104	40
147	20
148	20
