Mass Spectrum: Propanoic acid, 1-methylethyl ester
Formula: C6 H12 O2
CAS: 637-78-5
Molecular weight: 116
Origin: Japan AIST/NIMC Database- Spectrum MS-NW- 764
m/z	RELATIVE INTENSITY
14	30
15	169
18	40
19	10
25	10
26	149
27	1069
28	279
29	2179
30	60
31	99
32	10
37	20
38	50
39	379
40	90
41	1209
42	449
43	4619
44	149
45	439
56	10
57	9999
58	339
59	1169
60	30
69	10
70	10
71	20
73	119
74	549
75	3429
76	109
77	10
84	10
85	20
86	20
89	10
98	10
100	10
101	1179
102	60
115	20
116	40
