Mass Spectrum: Benzene, 1-chloro-4-iodo-
Formula: C6 H4 Cl I
CAS: 637-87-6
Molecular weight: 238
Origin: Chuck Anderson, Aldrich Chemical Co.
m/z	RELATIVE INTENSITY
25	18
26	50
27	46
35	18
36	66
37	437
38	373
39	71
47	28
48	35
49	433
50	3087
51	669
52	23
60	79
61	224
62	83
63	59
72	81
73	588
74	1970
75	4646
76	999
77	54
83	6
84	200
85	393
86	78
87	123
108	31
109	21
111	9999
112	249
113	3470
114	167
119	705
120	194
127	676
128	27
139	9
152	47
176	44
177	9
203	14
237	71
238	9646
239	470
240	3087
241	158
