Mass Spectrum: 2-Furanmethanol, tetrahydro-, acetate
Formula: C7 H12 O3
CAS: 637-64-9
Molecular weight: 144
Origin: Japan AIST/NIMC Database- Spectrum MS-NW-1487
m/z	RELATIVE INTENSITY
13	10
14	80
15	549
17	10
18	70
26	70
27	939
28	219
29	419
30	30
31	199
32	50
37	10
38	40
39	569
40	109
41	1619
42	789
43	5009
44	199
45	40
50	10
51	20
52	10
53	90
54	249
55	249
56	119
57	99
58	40
59	20
60	30
61	50
67	40
69	60
70	179
71	9999
72	509
73	139
74	70
81	30
82	20
83	99
84	909
85	109
86	50
100	20
101	20
103	10
