Mass Spectrum: Diphenyl-n-butylphosphine
Formula: C16 H19 P
CAS: 6372-41-4
Molecular weight: 242
Origin: NIST Mass Spectrometry Data Center
m/z	RELATIVE INTENSITY
17	40
18	30
27	400
38	60
39	831
40	100
41	420
50	290
51	1081
52	130
53	60
55	190
56	170
57	530
63	280
64	70
65	530
66	80
69	180
75	90
76	150
77	881
78	440
79	120
80	130
81	350
82	200
83	440
89	120
91	2102
92	200
95	210
102	130
105	110
107	1972
108	2993
109	1241
110	120
115	480
116	80
120	200
121	991
122	170
123	100
124	460
128	150
133	500
139	250
140	130
141	200
151	120
152	891
153	210
154	110
157	440
165	190
166	90
170	260
171	60
181	120
183	4274
184	651
185	1141
186	841
187	130
197	130
199	9999
200	3904
201	500
213	540
214	100
218	160
242	2652
243	390
