Mass Spectrum: Benzenamine, 4-cyclohexyl-
Formula: C12 H17 N
CAS: 6373-50-8
Molecular weight: 175
Origin: EP-1367
m/z	RELATIVE INTENSITY
40	1200
41	300
42	300
43	700
50	200
51	400
52	350
53	500
54	300
55	400
56	200
57	150
64	100
65	1100
66	400
67	200
76	50
77	1100
78	550
79	420
80	250
81	200
89	250
90	250
91	800
92	700
93	1100
94	300
115	300
116	800
117	1000
118	1200
119	2200
120	400
130	700
131	800
132	9999
133	1500
134	400
175	3200
176	750
