Mass Spectrum: 2-Amino-4-acetamino anisole
Formula: C9 H12 N2 O2
CAS: 6375-47-9
Molecular weight: 180
Origin: NIST Mass Spectrometry Data Center, 1990.
m/z	RELATIVE INTENSITY
14	82
15	400
17	29
18	116
26	50
27	94
28	245
29	57
30	43
31	21
32	3
37	52
38	119
39	296
40	264
41	552
42	347
43	1569
44	57
49	18
50	113
51	275
52	551
53	490
54	169
55	62
56	21
61	28
62	40
63	111
64	77
65	166
66	288
67	801
68	298
69	37
75	29
76	69
77	82
78	329
79	167
80	298
81	90
82	39
83	15
90	40
91	22
92	140
93	147
94	198
95	1941
96	654
97	34
104	13
105	79
106	60
107	150
108	70
109	166
110	640
111	43
119	35
120	56
121	236
122	35
123	9999
124	889
125	57
135	44
136	34
137	218
138	556
139	86
147	45
148	70
149	250
150	26
163	26
165	1840
166	162
167	31
178	29
180	4144
181	419
182	49
