Mass Spectrum: Formic acid, pentyl ester
Formula: C6 H12 O2
CAS: 638-49-3
Molecular weight: 116
Origin: Japan AIST/NIMC Database- Spectrum MS-NW-1034
m/z	RELATIVE INTENSITY
14	20
15	139
16	10
17	60
18	279
19	60
26	159
27	1769
28	689
29	2639
30	80
31	3189
32	119
33	10
37	40
38	80
39	1099
40	219
41	3969
42	9999
43	1929
44	209
45	389
46	20
47	819
48	10
49	10
50	99
51	119
52	80
53	169
54	129
55	6929
56	559
57	659
58	50
59	219
60	90
61	20
62	10
63	20
65	10
67	80
68	50
69	419
70	7029
71	419
72	20
73	329
74	60
75	10
87	539
88	90
