Mass Spectrum: Isopropyl butyrate
Formula: C7 H14 O2
CAS: 638-11-9
Molecular weight: 130
Origin: Japan AIST/NIMC Database- Spectrum MS-NW-8679
m/z	RELATIVE INTENSITY
14	20
15	159
18	30
19	20
26	70
27	1169
28	199
29	179
31	109
37	20
38	50
39	559
40	119
41	1919
42	1099
43	9999
44	359
45	309
47	10
55	129
56	20
57	30
58	20
59	1319
60	1489
61	70
69	30
70	70
71	7609
72	349
73	729
74	30
87	50
88	1209
89	2819
90	129
91	20
102	269
103	10
115	419
116	30
130	20
131	20
