Mass Spectrum: Thiophene, 2,4-dimethyl-
Formula: C6 H8 S
CAS: 638-00-6
Molecular weight: 112
m/z	RELATIVE INTENSITY
12	20
13	30
14	40
15	330
16	10
24	10
25	20
26	170
27	931
28	80
29	60
30	10
31	10
32	30
33	40
34	20
35	10
36	30
37	270
38	490
39	1922
40	220
41	651
42	30
44	50
45	2582
46	140
47	210
48	20
49	80
50	360
51	611
52	180
53	581
54	80
55	240
56	40
57	150
58	360
59	701
60	70
61	150
62	170
63	280
64	50
65	320
66	180
67	571
68	100
69	661
70	200
71	701
72	180
73	70
74	70
75	20
76	10
77	891
78	410
79	330
80	30
81	60
82	70
83	60
84	90
85	200
86	20
87	10
92	10
93	80
94	30
95	100
96	30
97	4854
98	360
99	230
100	10
101	10
105	10
106	10
107	10
108	10
109	90
110	110
111	9999
112	7287
113	921
114	330
115	20
