Mass Spectrum: Hexane, 1-iodo-
Formula: C6 H13 I
CAS: 638-45-9
Molecular weight: 212
Origin: NIST Mass Spectrometry Data Center, 1994
m/z	RELATIVE INTENSITY
14	25
15	143
26	287
27	2293
28	738
29	2014
30	42
32	22
37	44
39	1595
41	4033
43	9999
44	357
49	11
50	84
51	124
52	54
53	239
54	106
55	895
56	320
57	1183
58	49
63	19
65	27
67	41
69	77
83	26
85	4858
86	310
127	452
128	170
129	14
141	134
153	11
155	317
169	14
212	868
213	51
