Mass Spectrum: 2-C14H26
Formula: C14 H26
CAS: 638-60-8
Molecular weight: 194
Origin: B. Derendyaev, Novosibirsk Institute of Organic Chemistry
m/z	RELATIVE INTENSITY
12	10
13	10
14	20
15	80
24	10
25	30
26	199
27	3259
28	639
29	4849
30	20
32	20
36	10
37	30
38	80
39	2419
40	589
41	9729
42	1449
43	7569
44	219
45	60
50	99
51	379
52	379
53	3079
54	3819
55	7019
56	1299
57	2699
58	189
59	30
60	20
62	10
63	50
64	30
65	559
66	809
67	7569
68	6059
69	3079
70	709
71	559
72	50
73	20
74	10
75	20
77	559
78	129
79	1449
80	559
81	7299
82	2889
83	1679
84	339
85	219
86	20
87	10
91	309
92	50
93	589
94	439
95	9999
96	3449
97	879
98	129
99	10
103	10
105	60
106	20
107	149
108	119
109	3169
110	1149
111	249
112	50
113	20
115	10
117	10
119	20
120	10
121	50
122	30
123	429
124	169
125	40
126	20
127	10
133	20
135	30
136	10
138	60
139	20
140	10
147	10
149	20
150	10
151	60
152	70
153	20
163	10
165	119
166	30
177	10
179	40
180	10
193	20
194	20
195	10
