Mass Spectrum: Octadecanal
Formula: C18 H36 O
CAS: 638-66-4
Molecular weight: 268
Origin: R.T.HOLMAN,UNIVERSITY OF MINNESOTA
m/z	RELATIVE INTENSITY
15	80
16	40
17	150
18	550
26	70
27	1500
28	560
29	4200
30	130
31	130
32	70
39	1100
40	240
41	8600
42	1800
43	9999
44	2600
45	970
53	520
54	1300
55	7400
56	2400
57	8000
58	530
59	100
60	50
65	100
66	630
67	3300
68	3900
69	4300
70	1800
71	3300
72	540
73	180
77	90
79	310
80	280
81	3100
82	6300
83	4000
84	1200
85	1800
86	250
87	50
91	70
93	150
94	210
95	2700
96	4000
97	2700
98	690
99	450
100	90
107	60
108	90
109	1300
110	1300
111	1100
112	370
113	210
114	50
121	50
122	90
123	720
124	770
125	430
126	220
127	120
136	60
137	460
138	450
139	180
140	130
141	80
149	50
151	140
152	220
153	90
154	110
155	50
165	80
166	170
167	60
168	90
179	50
180	150
181	50
182	90
193	90
194	180
196	70
207	50
208	100
222	300
223	50
224	230
250	360
251	80
268	44
