Mass Spectrum: Phosphoramidocyanidic acid, N,N-dimethyl-, methyl ester
Formula: C4 H9 N2 O2 P
CAS: 63815-56-5
Molecular weight: 148
Origin: VERIFIN - Methodology B1-1979
m/z	RELATIVE INTENSITY
27	200
28	300
29	400
30	100
31	200
32	100
39	100
40	200
41	1201
42	9999
43	9208
44	7606
45	200
47	1701
48	70
49	100
51	80
53	70
54	200
55	800
56	1000
57	100
58	100
68	200
69	1101
70	6405
71	200
76	200
77	100
79	2902
83	100
90	300
91	100
93	100
104	800
105	100
106	900
108	200
109	50
117	1501
118	70
122	600
133	400
147	2702
148	3002
149	100
