Mass Spectrum: Phthalaldehydic acid, oxime
Formula: C8 H7 N O3
CAS: 6383-59-1
Molecular weight: 165
m/z	RELATIVE INTENSITY
44	540
45	710
46	47
48	47
49	450
50	3981
51	336
52	995
53	189
55	142
56	66
57	289
58	331
59	289
60	104
61	227
62	103
63	142
64	71
65	47
66	284
68	85
69	151
70	75
71	165
72	90
73	545
74	1655
75	1113
76	435
77	853
78	203
79	47
80	47
81	52
83	47
84	90
85	213
90	66
92	56
98	187
99	187
102	52
103	616
104	9999
105	995
106	85
130	118
141	56
