Mass Spectrum: 4-Octene, 2,3,6-trimethyl-
Formula: C11 H22
CAS: 63830-65-9
Molecular weight: 154
Origin: GCITA9,106(9-10)879(1976);Z1B; A. M. CAPORUSSO, UNIVERSITA DI PISA, ITALY
m/z	RELATIVE INTENSITY
27	800
29	1200
39	600
41	2700
43	1800
53	500
55	6600
56	600
57	700
67	700
69	9999
70	2200
71	700
81	400
83	1200
84	1400
95	300
97	600
111	1800
125	100
154	1100
