Mass Spectrum: 1,9-Nonanediol, 2TMS derivative
Formula: C15 H36 O2 Si2
CAS: 6385-16-6
Molecular weight: 304
Origin: O A MAMER, MCGILL UNIVERSITY, MONTRE
m/z	RELATIVE INTENSITY
20	111
25	51
29	376
37	144
38	97
41	1156
43	213
48	60
53	79
54	30
55	4775
56	94
57	1330
58	124
59	531
61	585
62	76
63	70
65	49
67	640
68	181
69	9999
70	495
71	27
72	55
73	4406
74	366
75	102
76	52
80	82
81	816
82	487
83	5771
84	279
85	262
86	67
87	309
88	153
89	298
91	196
92	72
93	42
94	75
95	231
96	318
97	358
99	55
101	306
102	159
103	3133
104	345
105	106
106	54
107	160
108	54
109	85
110	99
112	52
113	142
115	181
120	40
121	132
122	144
123	216
124	748
125	382
126	75
127	87
128	58
129	48
131	279
132	18
133	450
134	151
136	55
137	579
138	331
139	153
140	42
141	87
142	63
145	160
147	4956
148	768
149	1887
150	328
151	217
152	42
153	55
155	64
156	55
158	46
159	135
160	40
161	97
164	31
165	201
166	48
167	46
168	31
171	291
174	90
175	46
176	30
177	829
178	216
179	157
181	31
183	40
184	34
185	3
186	69
187	175
188	37
189	33
193	52
197	97
199	645
200	180
202	37
203	49
204	48
205	40
206	39
207	202
208	192
209	73
213	61
214	108
215	147
216	51
217	58
218	40
219	31
220	33
222	108
223	67
225	69
226	58
229	184
230	42
231	84
239	30
241	150
242	42
243	48
245	112
246	34
257	43
258	40
259	178
260	46
261	40
262	135
263	55
265	33
267	49
269	43
273	97
274	49
279	55
280	40
282	97
283	55
289	364
290	222
291	55
296	40
297	36
304	40
