Mass Spectrum: Bis(2-chloroethylthio)methane
Formula: C5 H10 Cl2 S2
CAS: 63869-13-6
Molecular weight: 204
Origin: VERIFINN
m/z	RELATIVE INTENSITY
26	430
27	3453
28	330
29	120
36	110
41	110
45	2632
46	1361
47	1571
49	360
57	150
58	430
59	761
60	280
61	290
63	3183
65	1011
73	2272
75	120
78	280
79	781
81	350
83	110
108	340
109	9999
110	310
111	3723
112	130
113	290
141	170
142	130
168	611
170	300
204	1621
206	1251
208	290
