Mass Spectrum: 1-Hydroxy-p-menth-3-one
Formula: C10 H18 O2
CAS: 63865-64-5
Molecular weight: 170
Origin: T. NAGASAWA, LAB. CHEM., NAGOYA GAKUIN UNIV., OSAKA, JAP
m/z	RELATIVE INTENSITY
39	1900
40	300
41	4000
42	300
43	9999
53	700
54	400
55	2000
56	1000
57	400
58	4000
59	300
67	700
68	300
69	4500
70	600
71	2200
81	900
82	2000
83	1300
85	1900
87	1500
95	2000
97	300
100	900
108	1700
109	3000
111	300
113	1000
124	200
127	900
128	1000
137	900
152	800
153	200
155	400
170	200
