Mass Spectrum: Chlorotriphenyl tin
Formula: C18 H15 Cl Sn
CAS: 639-58-7
Molecular weight: 386
Origin: Japan AIST/NIMC Database- Spectrum MS-NW-2857
m/z	RELATIVE INTENSITY
26	20
27	99
36	60
37	10
38	20
39	90
49	10
50	259
51	1169
52	119
57	10
62	10
63	30
65	10
73	10
74	70
75	70
76	80
77	2059
78	489
79	30
87	10
89	10
101	10
102	20
112	20
114	10
115	40
116	299
117	169
118	499
119	199
120	659
121	30
122	90
124	119
126	30
127	30
128	40
139	10
141	40
142	20
143	70
144	30
145	99
147	80
149	80
150	20
151	1069
152	579
153	2109
154	9999
155	2909
156	199
157	1089
159	519
161	129
165	10
167	30
168	10
169	40
170	10
171	30
184	10
185	40
186	70
187	10
189	50
191	40
192	30
193	739
194	439
195	1219
196	509
197	1619
198	109
199	229
200	20
201	279
202	20
227	20
228	109
229	99
230	209
231	549
232	279
233	60
234	99
235	20
236	50
238	10
267	10
268	10
269	40
270	50
271	70
272	70
273	90
274	50
275	20
276	10
277	10
278	10
301	99
302	10
303	99
304	50
305	1469
306	979
307	2949
308	1479
309	3999
310	779
311	1499
312	199
313	699
314	90
315	179
316	20
344	10
345	10
346	30
347	70
348	90
349	119
350	109
351	139
352	40
353	50
354	20
355	40
382	50
383	40
384	99
385	60
386	139
387	40
388	50
389	10
390	20
