Mass Spectrum: Cyclohexanemethanol, 4-ethenyl-.alpha.,.alpha.,4-trimethyl-3-(1-methylethenyl)-, [1R-(1.alpha.,3.alpha.,4.beta.)]-
Formula: C15 H26 O
CAS: 639-99-6
Molecular weight: 222
m/z	RELATIVE INTENSITY
27	1001
28	210
29	1211
31	951
39	1331
40	430
41	4104
42	330
43	4054
44	330
45	210
50	50
51	240
52	140
53	1672
54	240
55	2642
56	210
57	500
58	100
59	9999
60	330
63	50
64	20
65	500
66	310
67	2712
68	2312
69	2572
70	380
71	1361
72	170
77	1191
78	260
79	2522
80	1601
81	4194
82	1241
83	761
84	520
85	190
86	50
89	50
90	50
91	1571
92	981
93	6576
94	1982
95	2622
96	881
97	240
98	50
103	70
104	50
105	1762
106	500
107	3673
108	1601
109	1641
110	290
111	170
117	70
118	50
119	1641
120	550
121	3193
122	901
123	1191
124	190
125	70
127	50
128	50
129	50
131	70
132	50
133	1101
134	671
135	2452
136	1021
137	310
138	50
139	70
145	70
146	50
147	1021
148	550
149	1191
150	190
151	120
160	50
161	4004
162	1001
163	1101
164	430
165	70
175	290
176	140
189	1672
190	240
204	951
205	170
207	50
