Mass Spectrum: 1,3-Bis(2-chloroethylthio)propane
Formula: C7 H14 Cl2 S2
CAS: 63905-10-2
Molecular weight: 232
Origin: VERIFINN
m/z	RELATIVE INTENSITY
26	400
27	4774
28	490
39	1061
41	2752
45	3283
46	1221
47	1621
49	350
58	571
59	1441
60	641
61	1461
63	3093
65	1041
67	631
73	4754
74	1702
75	520
79	420
81	190
85	350
87	2632
89	220
99	220
100	160
101	360
106	1651
107	3743
108	320
109	1902
111	571
113	130
123	390
125	150
127	300
133	1802
135	270
136	611
137	120
138	150
141	400
143	110
169	9999
170	601
171	4164
172	210
173	200
174	140
196	631
198	280
219	70
232	1111
234	1001
236	60
237	230
