Mass Spectrum: 2- Bromopropionic acid, hexadecyl ester
Formula: C19 H37 Br O2
CAS: 63966-83-6
Molecular weight: 376
Origin: Zaikin V.G., TIPS RAS, Moscow, Russia
m/z	RELATIVE INTENSITY
26	140
27	530
28	20
29	981
31	30
35	90
36	621
37	30
38	200
39	480
40	110
41	3243
42	1021
43	5235
44	510
45	100
50	40
51	50
52	40
53	290
54	961
55	7487
56	4704
57	9939
58	450
65	50
66	130
67	1672
68	2312
69	7677
70	4424
71	5235
72	360
73	591
74	5755
75	3593
76	170
77	120
78	40
79	320
80	671
81	1261
82	4234
83	9999
84	3573
85	3813
86	290
87	90
91	70
93	60
94	70
95	981
96	2823
97	9769
98	2622
99	991
100	120
101	60
105	30
106	30
107	1551
108	160
109	1902
110	1431
111	5805
112	1922
113	731
114	130
115	70
121	30
122	80
123	520
124	1031
125	2993
126	1261
127	571
128	80
130	160
133	40
134	60
135	1131
136	130
137	1341
138	841
139	1361
140	941
141	360
142	40
148	40
150	60
151	190
152	751
153	3013
154	691
155	2452
156	90
162	20
163	30
164	20
165	240
166	480
167	480
168	470
169	130
177	30
179	130
180	310
181	200
182	220
183	60
191	60
193	180
194	591
195	200
196	1611
197	280
221	40
222	2282
223	671
224	1541
225	300
226	30
238	30
239	70
241	70
267	130
269	741
270	130
274	60
276	60
296	30
297	30
303	30
304	30
347	50
349	60
