Mass Spectrum: (R)-(-)-4,4a,5,6,7,8-Hexahydro-4a-methyl-2(3H)-naphthalenone
Formula: C11 H16 O
CAS: 63975-59-7
Molecular weight: 164
Origin: Chuck Anderson, Aldrich Chemical Co.
m/z	RELATIVE INTENSITY
15	54
18	1
26	157
27	1877
28	452
29	988
38	141
39	2355
40	477
41	2077
42	236
43	283
45	66
46	39
50	222
51	811
52	511
53	1144
54	180
55	1111
56	65
57	61
58	44
62	81
63	355
64	128
65	1277
66	608
67	1544
68	416
69	194
74	38
75	35
76	50
77	2888
78	833
79	5288
80	1566
81	788
82	391
83	79
89	95
90	32
91	3155
92	483
93	3688
94	1755
95	722
96	131
97	113
102	9
103	219
104	72
105	722
106	152
107	7377
108	2766
109	533
110	109
115	134
116	31
117	159
118	96
119	172
120	120
121	7465
122	9999
123	1344
124	75
131	338
132	21
133	54
134	81
135	1533
136	6932
137	699
138	23
146	133
147	36
149	1577
150	147
162	10
163	89
164	8665
165	966
166	68
