Mass Spectrum: Urea, phenyl-
Formula: C7 H8 N2 O
CAS: 64-10-8
Molecular weight: 136
Origin: Japan AIST/NIMC Database- Spectrum MS-NW- 195
m/z	RELATIVE INTENSITY
16	80
17	40
18	149
26	60
27	109
28	219
29	30
30	20
32	20
37	139
38	389
39	1349
40	239
41	229
42	70
43	99
44	789
45	20
46	20
49	40
50	269
51	409
52	269
53	80
54	209
55	40
57	50
61	70
62	189
63	439
64	389
65	1749
66	2569
67	279
69	30
71	20
73	20
74	70
75	50
76	80
77	359
78	119
79	20
80	30
81	20
83	20
90	40
91	319
92	1029
93	9999
94	739
95	30
97	20
107	30
118	20
119	279
120	40
135	70
136	3909
137	349
138	20
