Mass Spectrum: Bemegride
Formula: C8 H13 N O2
CAS: 64-65-3
Molecular weight: 155
Origin: Japan AIST/NIMC Database- Spectrum MS-NW-3564
m/z	RELATIVE INTENSITY
14	60
15	129
16	10
17	99
18	389
26	109
27	1369
28	359
29	1739
30	119
31	20
33	10
34	10
37	40
38	139
39	1569
40	339
41	2239
42	939
43	259
44	209
49	10
50	99
51	159
52	129
53	539
54	499
55	9999
56	619
57	219
58	20
59	399
60	199
61	10
62	10
63	20
64	10
65	50
66	40
67	209
68	139
69	1799
70	2029
71	159
72	20
73	10
79	20
80	10
81	40
82	3759
83	4509
84	639
85	40
86	30
94	99
95	40
96	1049
97	1569
98	409
99	60
100	60
108	10
109	30
110	50
111	20
112	369
113	2229
114	169
115	10
125	329
126	639
127	1509
128	129
137	20
138	40
139	20
140	90
155	1509
156	149
157	10
