Mass Spectrum: D-Valine
Formula: C5 H11 N O2
CAS: 640-68-6
Molecular weight: 117
Origin: Japan AIST/NIMC Database- Spectrum MS-NW-1903
m/z	RELATIVE INTENSITY
14	10
15	119
17	50
18	129
26	70
27	739
28	2469
29	1419
30	1049
31	20
32	30
34	10
36	40
37	50
38	99
39	719
40	90
41	869
42	309
43	669
44	159
45	209
46	639
47	20
50	20
51	40
52	60
53	119
54	189
55	3139
56	1199
57	2449
58	329
59	20
60	10
67	20
68	30
69	40
70	209
71	60
72	9999
73	499
74	3399
75	1529
76	60
77	10
81	10
82	30
83	20
84	80
85	30
97	10
98	20
100	10
102	20
