Mass Spectrum: Heptadecane-2,4-dione
Formula: C17 H32 O2
CAS: 64042-18-8
Molecular weight: 268
Origin: O A MAMER, MCGILL UNIVERSITY, MONTREAL
m/z	RELATIVE INTENSITY
13	30
16	85
17	339
26	78
27	702
28	127
29	1556
30	51
31	139
38	31
39	488
40	144
41	2964
42	577
43	7681
44	219
45	72
51	31
52	38
53	222
54	218
55	1912
56	417
57	1517
58	1014
59	205
65	46
66	57
67	376
68	187
69	872
70	242
71	893
72	1353
73	69
77	52
79	125
80	179
81	355
82	198
83	439
84	548
85	7003
86	375
87	125
91	37
93	80
94	160
95	405
96	178
97	442
98	582
99	148
100	9999
101	1364
102	120
107	54
108	50
109	229
110	97
111	199
112	167
113	1928
114	200
115	32
121	68
122	35
123	121
124	311
125	89
126	54
127	115
128	46
135	51
137	185
138	250
139	62
140	46
141	41
142	219
151	61
152	34
154	98
155	54
156	79
166	46
168	49
180	30
184	32
192	218
193	52
210	95
211	262
212	49
225	31
250	185
251	40
253	113
267	31
268	175
269	115
