Mass Spectrum: 4-(N-Nitroso-N-methylamino)-1-(3-pyridyl)-1-butanone
Formula: C10 H13 N3 O2
CAS: 64091-91-4
Molecular weight: 207
Origin: NIST Mass Spectrometry Data Center, 1998.
m/z	RELATIVE INTENSITY
14	10
15	190
26	90
27	390
28	430
29	120
30	600
31	10
32	180
37	40
38	110
39	630
40	140
41	700
42	4950
43	2620
44	1400
45	50
49	70
50	1120
51	4370
52	780
53	360
54	200
55	560
56	690
57	790
58	200
59	60
60	10
61	20
62	70
63	180
64	70
65	280
66	70
67	40
68	190
69	60
70	690
71	120
72	10
73	1530
74	100
75	100
76	200
77	410
78	8099
79	1270
80	1070
81	90
82	30
83	40
84	100
85	40
86	10
87	20
89	80
90	60
91	560
92	510
93	200
94	120
95	10
96	80
98	220
99	40
100	10
101	50
102	30
103	50
104	280
105	160
106	9999
107	830
108	230
109	40
115	30
116	140
117	1070
118	2030
119	480
120	230
121	270
122	210
123	20
128	40
129	20
130	280
131	130
132	160
133	180
134	600
135	100
136	50
142	40
143	70
144	610
145	170
146	3160
147	560
148	1620
149	250
150	50
156	10
157	90
158	110
159	850
160	320
161	120
162	40
163	20
164	50
172	40
173	20
174	20
175	40
177	7909
178	920
179	60
190	30
