Mass Spectrum: Allopregnane
Formula: C21 H36
CAS: 641-85-0
Molecular weight: 288
Origin: CARL DJERASSI DEPT OF CHEM STANFORD UNIV STANFORD CALIF 94305
m/z	RELATIVE INTENSITY
41	3434
42	303
43	909
44	101
53	808
54	303
55	4545
56	303
57	303
65	303
66	101
67	3838
68	1313
69	1515
70	101
71	101
74	101
77	707
78	101
79	2121
80	707
81	4646
82	707
83	1212
84	101
91	1111
92	303
93	2020
94	808
95	4646
96	707
97	707
105	707
106	202
107	2020
108	2525
109	5050
110	606
111	202
117	101
119	303
120	202
121	2222
122	2020
123	2525
124	505
133	303
134	202
135	1717
136	606
137	606
147	606
148	1111
149	6767
150	2424
151	1111
152	101
161	707
162	808
163	1212
164	303
165	101
175	1010
176	404
177	505
178	1515
179	404
180	101
189	404
190	505
191	303
192	101
203	1414
204	303
205	202
217	9999
218	8383
219	2121
220	202
231	505
232	2525
233	505
258	101
273	4545
274	909
275	101
287	101
288	5454
289	1212
290	101
