Mass Spectrum: 1H-Indene-1,3(2H)-dione, 2-(2-pyridinyl)-
Formula: C14 H9 N O2
CAS: 641-63-4
Molecular weight: 223
m/z	RELATIVE INTENSITY
62	500
63	900
64	500
74	500
75	700
76	1300
77	2000
78	800
84	500
85	1800
89	500
91	500
105	2200
111	800
112	600
139	2600
140	1500
154	1000
155	1400
166	2700
167	4600
168	700
194	1500
195	1200
222	2900
223	9999
224	2600
