Mass Spectrum: 1,3-Isobenzofurandione, 4-nitro-
Formula: C8 H3 N O5
CAS: 641-70-3
Molecular weight: 193
Origin: MASS SPECTROMETRY CENTER, UNIV. OF UTAH ALDRICH 15688-4
m/z	RELATIVE INTENSITY
12	82
16	44
25	91
26	219
27	91
29	32
30	2002
31	62
36	190
37	1870
38	764
39	342
44	388
45	45
46	317
48	111
49	821
50	509
51	183
52	105
53	262
60	171
61	615
62	634
63	591
65	226
72	105
73	1200
74	5762
75	9999
76	1416
77	333
78	7
86	26
87	80
88	75
89	67
90	17
91	200
92	34
101	9
102	21
103	2557
104	227
105	515
106	8
149	8351
150	992
151	123
163	44
177	78
193	122
