Mass Spectrum: Androstane-3,17-diol, 17-methyl-, (3.alpha.,5.alpha.,17.beta.)-
Formula: C20 H34 O2
CAS: 641-82-7
Molecular weight: 306
Origin: NIST Mass Spectrometry Data Center, 1998.
m/z	RELATIVE INTENSITY
27	350
29	1440
30	60
31	260
38	60
39	840
40	270
41	5119
42	450
43	9999
44	430
45	420
51	190
52	150
53	1990
54	510
55	6219
56	480
57	2530
58	1500
59	590
60	30
61	20
65	910
66	320
67	6279
68	1500
69	2500
70	360
71	2600
72	750
73	130
74	40
76	240
77	2550
78	530
79	6299
80	1220
81	6379
82	1020
83	1870
84	230
85	530
86	30
88	90
89	130
91	5299
92	1090
93	6349
94	1860
95	5039
96	690
97	1160
98	240
99	110
101	70
102	70
103	220
104	270
105	3860
106	1930
107	7299
108	3340
109	3830
110	730
111	810
112	120
113	60
115	270
116	170
117	720
118	340
119	2350
120	1750
121	4780
122	2450
123	2470
124	920
125	570
126	70
127	120
128	170
129	310
130	160
131	970
132	310
133	2250
134	1270
135	4320
136	1030
137	630
138	260
139	130
141	80
142	70
143	200
144	160
145	1460
146	500
147	3570
148	2440
149	2570
150	440
151	310
152	100
155	30
157	210
158	140
159	1160
160	670
161	2310
162	1590
163	1760
164	560
165	5449
166	1490
167	230
171	210
172	120
173	1000
174	480
175	1090
176	770
177	360
178	230
179	110
180	290
181	50
185	170
186	80
187	530
188	420
189	500
190	250
191	340
192	180
193	100
194	50
199	430
200	130
201	990
202	320
203	650
204	240
205	200
206	240
213	760
214	240
215	4830
216	1290
217	3480
218	820
219	880
220	230
221	40
227	80
228	190
229	160
230	5749
231	3890
232	1130
233	3800
234	880
235	100
241	60
242	20
244	70
245	110
246	680
247	190
248	1100
249	290
255	1920
256	430
257	80
259	70
269	30
270	1320
271	360
272	30
273	2620
274	460
275	50
288	1070
289	320
290	50
291	3720
292	740
293	80
304	20
306	1150
307	220
