Mass Spectrum: Dipropyl methylphosphonate
Formula: C7 H17 O3 P
CAS: 6410-56-6
Molecular weight: 180
Origin: VERIFINN
m/z	RELATIVE INTENSITY
26	80
27	1071
28	190
29	450
31	230
39	440
41	1111
42	260
43	1692
45	200
47	370
49	90
57	60
59	120
62	120
63	100
65	270
77	100
79	2442
80	711
81	210
92	80
97	9999
98	70
99	110
109	440
110	130
111	180
121	1431
123	881
137	210
139	1712
140	60
151	601
