Mass Spectrum: 3-Chloropropionic acid, tetradecyl ester
Formula: C17 H33 Cl O2
CAS: 64120-16-7
Molecular weight: 304
Origin: V.Zaikin,Topchiev Inst.Petrochem.Synth.,Moscow
m/z	RELATIVE INTENSITY
27	1331
28	180
29	3403
30	70
31	60
35	30
36	200
37	50
38	70
39	1111
40	310
41	6796
42	2332
43	9188
44	961
45	130
47	30
49	40
50	70
51	50
52	40
53	440
54	1371
55	9999
56	5925
57	7116
58	320
59	20
60	40
61	30
62	80
63	2292
64	50
65	851
66	130
67	1161
68	2282
69	7106
70	5605
71	3003
72	140
73	1571
74	130
75	40
77	50
78	30
79	80
80	30
81	701
82	3133
83	7457
84	3523
85	1581
86	60
87	40
90	40
91	3013
92	120
93	901
94	70
95	270
96	1001
97	4634
98	1892
99	390
100	60
101	60
103	40
106	40
108	80
109	4354
110	641
111	3793
112	1411
113	450
114	130
115	60
119	50
121	50
122	30
123	70
124	270
125	1041
126	851
127	490
128	70
129	120
134	20
135	50
136	20
137	50
138	140
139	370
140	470
141	190
142	60
143	40
145	30
146	50
148	30
149	40
151	20
152	70
153	180
154	270
155	80
159	30
164	40
165	20
166	80
167	80
168	1021
169	110
196	711
197	210
198	20
207	50
208	20
241	40
269	250
270	50
