Mass Spectrum: Tetramethylhydrazine
Formula: C4 H12 N2
CAS: 6415-12-9
Molecular weight: 88
Origin: NIST Mass Spectrometry Data Center, 1990.
m/z	RELATIVE INTENSITY
12	39
13	99
14	399
15	4354
16	66
17	39
18	1794
19	18
25	13
26	64
27	559
28	2462
29	366
30	2457
31	294
32	2076
33	38
38	71
39	132
40	484
41	996
42	9999
43	6148
44	8740
45	1034
46	4912
47	131
53	17
54	29
55	56
56	103
57	600
58	640
59	37
69	23
71	661
72	518
73	5478
74	267
83	20
85	17
88	7057
89	377
