Mass Spectrum: Heneicosane, 3-methyl-
Formula: C22 H46
CAS: 6418-47-9
Molecular weight: 310
Origin: W.L.MEAD BRITISH PETROLEUM CO. LTD., SUNBURY-ON-THAMES, UK
m/z	RELATIVE INTENSITY
39	860
40	240
41	4720
42	850
43	6450
44	300
53	230
54	360
55	3360
56	3570
57	9999
58	420
67	590
68	230
69	1810
70	1310
71	5400
72	260
81	350
82	250
83	1260
84	500
85	3990
86	280
95	160
96	250
97	810
98	200
99	1780
100	120
109	80
110	120
111	440
112	180
113	1420
114	150
123	60
124	80
125	250
126	100
127	940
128	100
139	200
140	130
141	940
142	110
153	130
154	40
155	760
156	70
167	100
168	70
169	740
170	120
182	50
183	640
184	80
197	500
198	60
211	550
212	80
213	30
225	340
226	40
239	200
240	10
252	230
253	270
254	60
267	50
268	10
280	1260
281	3570
282	700
283	70
295	170
296	40
310	70
311	20
