Mass Spectrum: Eicosane, 3-methyl-
Formula: C21 H44
CAS: 6418-46-8
Molecular weight: 296
m/z	RELATIVE INTENSITY
36	10
37	10
38	20
39	631
40	160
41	4884
42	1071
43	7677
44	260
45	10
49	10
50	10
51	20
52	20
53	220
54	270
55	2883
56	3693
57	9999
58	440
59	10
62	10
63	10
64	10
65	20
66	20
67	250
68	200
69	1191
70	831
71	3883
72	230
73	10
77	20
78	10
79	30
80	10
81	90
82	150
83	761
84	300
85	2512
86	170
87	10
91	10
92	10
93	10
94	10
95	30
96	70
97	460
98	150
99	631
100	40
101	10
105	10
106	10
107	10
108	10
109	10
110	30
111	200
112	90
113	430
114	40
115	10
119	10
120	10
121	10
122	10
123	10
124	20
125	90
126	50
127	300
128	30
129	10
137	10
138	10
139	30
140	30
141	230
142	20
143	10
151	10
152	10
153	20
154	30
155	180
156	20
157	10
165	10
166	10
167	20
168	20
169	150
170	20
171	10
179	10
180	10
181	10
182	10
183	120
184	20
185	10
193	10
194	10
195	10
196	10
197	100
198	10
208	10
209	10
210	10
211	70
212	10
213	10
222	10
223	10
224	10
225	40
226	10
236	10
237	10
238	60
239	80
240	10
241	10
252	10
253	10
254	10
266	300
267	791
268	160
269	20
270	10
280	10
281	50
282	10
283	10
294	10
295	10
296	10
297	10
