Mass Spectrum: Acetamide, N-acetyl-N-9H-fluoren-2-yl-
Formula: C17 H15 N O2
CAS: 642-65-9
Molecular weight: 265
Origin: Japan AIST/NIMC Database- Spectrum MS-NW-6923
m/z	RELATIVE INTENSITY
14	40
15	449
27	20
28	20
29	20
38	10
39	60
40	10
41	10
42	139
43	1949
44	50
45	30
50	50
51	80
52	30
60	20
61	10
62	60
63	129
64	20
65	20
69	10
74	80
75	109
76	90
77	80
78	20
81	20
82	20
85	10
86	40
87	70
88	40
89	60
90	10
91	10
98	40
99	50
100	40
101	50
102	50
103	20
110	10
111	20
112	10
113	40
114	20
115	99
116	10
122	10
123	10
124	20
125	60
126	139
127	159
128	70
129	10
137	30
138	20
139	149
140	50
141	20
147	10
148	10
149	40
150	229
151	609
152	1189
153	909
154	149
155	10
161	10
162	30
163	319
164	329
165	1189
166	209
167	30
175	20
176	70
177	319
178	339
179	189
180	2879
181	9999
182	1769
183	159
184	10
188	20
189	10
190	40
191	20
192	20
193	20
194	40
195	20
204	10
205	80
206	309
207	319
208	60
209	10
220	10
221	20
222	129
223	8079
224	1379
225	129
226	10
264	10
265	4249
266	829
267	99
268	10
