Mass Spectrum: Anhalinine
Formula: C12 H17 N O3
CAS: 642-30-8
Molecular weight: 223
Origin: H. Fales, LC, NHLBI, NIH, Bethesda, MD 20892
m/z	RELATIVE INTENSITY
41	575
42	949
43	577
44	1243
45	361
46	269
47	90
48	29
49	68
50	359
51	861
52	474
53	688
54	204
55	377
56	136
57	257
58	279
59	170
60	206
61	102
62	161
63	451
64	313
65	1101
66	459
67	404
68	147
69	239
70	63
71	93
72	73
73	172
74	197
75	249
76	245
77	1081
78	606
79	593
80	298
81	184
82	148
83	122
84	58
85	63
86	55
87	113
89	616
90	277
91	748
92	351
93	522
94	280
96	1094
98	41
99	35
100	29
101	50
102	164
103	423
104	810
105	420
106	350
107	620
108	190
109	116
110	64
111	493
115	64
116	81
117	228
118	360
119	328
120	274
121	619
122	342
123	131
124	96
125	51
127	26
128	19
129	55
130	125
131	197
132	250
133	324
134	635
135	340
136	359
137	174
138	37
139	27
141	17
143	21
144	41
145	175
146	222
147	389
148	499
149	489
150	290
151	1246
152	136
153	35
155	10
158	81
159	83
160	219
161	660
162	406
163	458
164	719
165	228
166	53
167	27
173	35
174	82
175	114
176	691
177	334
178	728
179	4672
180	717
181	138
182	44
183	31
187	11
188	104
189	281
190	494
191	159
192	3108
193	509
194	6162
195	912
196	113
197	9
202	35
203	195
204	138
205	122
206	587
207	190
208	783
209	110
214	9
217	28
218	65
219	92
220	307
221	278
222	9999
223	7906
224	1054
225	115
