Mass Spectrum: Diethyl 4,4'-azoxydibenzoate
Formula: C18 H18 N2 O5
CAS: 6421-04-1
Molecular weight: 342
Origin: Japan AIST/NIMC Database- Spectrum MS-NW-8048
m/z	RELATIVE INTENSITY
15	20
26	30
27	239
28	259
29	1999
30	50
31	20
32	10
37	10
38	30
39	299
40	20
41	40
42	10
43	90
44	70
45	80
50	309
51	189
52	90
53	80
54	30
55	30
57	10
62	50
63	469
64	329
65	2119
66	129
67	20
69	30
70	10
71	10
74	50
75	579
76	1149
77	549
78	139
79	189
80	50
81	149
82	10
83	20
84	20
88	10
89	149
90	449
91	429
92	349
93	819
94	70
95	20
97	10
98	20
102	20
103	3319
104	1299
105	199
106	80
107	219
108	119
109	569
110	40
111	20
112	10
114	10
115	60
116	10
117	279
118	339
119	249
120	159
121	1899
122	189
123	20
125	40
126	459
127	30
128	20
129	30
130	10
131	20
134	80
135	429
136	60
137	699
138	80
139	80
140	80
141	119
142	30
143	10
146	30
147	10
148	50
149	9999
150	1019
151	139
152	109
153	159
154	40
155	20
156	10
157	30
162	10
163	309
164	70
165	789
166	129
167	80
168	199
169	359
170	80
171	10
176	90
177	1749
178	189
179	139
180	30
181	20
182	10
183	20
184	20
185	90
186	20
191	10
192	10
193	359
194	60
195	119
196	99
197	70
198	20
201	10
208	20
209	10
211	30
212	109
213	259
214	60
215	10
222	10
223	40
224	60
225	40
226	10
227	30
229	10
230	10
239	50
240	139
241	439
242	99
243	20
253	70
254	20
257	70
258	30
267	40
268	189
269	329
270	70
271	10
281	349
282	60
283	10
285	389
286	119
287	20
295	50
296	10
297	1089
298	219
299	40
304	20
305	10
313	80
314	599
315	119
316	10
325	10
326	1129
327	239
328	30
341	219
342	3049
343	639
344	99
345	10
