Mass Spectrum: 1,2-Propanediol, dinitrate
Formula: C3 H6 N2 O6
CAS: 6423-43-4
Molecular weight: 166
Origin: MINISTRY OF TECH. E.R.D.E., WALTHAM ABBEY, UK
m/z	RELATIVE INTENSITY
12	10
13	20
14	110
15	420
25	30
26	120
27	430
28	1110
29	1680
30	1610
31	320
39	110
40	100
41	320
42	340
43	1190
44	270
45	80
46	9999
55	100
56	30
57	320
58	130
60	40
71	60
76	330
90	80
104	10
