Mass Spectrum: 2,3-Butanediol, dinitrate
Formula: C4 H8 N2 O6
CAS: 6423-45-6
Molecular weight: 180
Origin: MINISTRY OF TECH. E.R.D.E., WALTHAM ABBEY, UK
m/z	RELATIVE INTENSITY
12	20
13	30
14	240
15	920
25	20
26	100
27	380
28	520
29	1410
30	1120
31	60
37	20
38	30
39	100
40	50
41	210
42	230
43	3630
44	120
45	270
46	9999
47	50
53	30
54	20
55	60
56	40
57	100
58	30
69	10
71	40
72	120
73	10
76	10
83	20
90	70
118	30
165	10
