Mass Spectrum: 7-methyl-4-azafluorenone
Formula: C13 H9 N O
CAS: 64292-02-0
Molecular weight: 195
Origin: N.S.Prostakov, Russian Friendship University. Moscow
m/z	RELATIVE INTENSITY
51	400
62	220
63	340
64	100
69	150
70	150
71	110
74	210
75	220
76	100
83	120
84	100
86	200
87	210
88	120
89	240
90	110
99	100
113	230
114	220
115	180
127	120
137	100
138	220
139	1551
140	1201
141	300
164	220
165	410
166	1901
167	5384
168	700
194	1511
195	9999
196	1450
197	100
