Mass Spectrum: o-Cresol, 3,4,6-trichloro-
Formula: C7 H5 Cl3 O
CAS: 643-14-1
Molecular weight: 210
m/z	RELATIVE INTENSITY
18	30
25	20
26	60
27	120
28	420
29	70
32	100
35	40
36	110
37	340
38	300
39	120
43	110
44	60
47	80
48	60
49	200
50	611
51	891
52	110
53	400
54	100
55	1201
56	430
57	30
59	20
60	210
61	410
62	220
63	220
64	20
65	40
66	20
67	60
69	210
70	100
71	60
72	240
73	1611
74	1551
75	1912
76	240
77	370
78	110
79	80
80	20
82	20
83	60
84	330
85	601
86	260
87	661
88	240
89	110
90	60
91	60
95	40
96	130
97	190
98	60
99	70
100	20
101	40
102	20
103	90
105	280
106	260
107	250
108	120
109	871
110	250
111	3183
112	721
113	981
114	210
115	30
117	50
118	70
119	80
120	60
121	110
122	20
123	70
125	20
131	50
133	70
135	60
138	20
139	581
140	90
141	220
142	30
143	20
144	20
145	591
146	861
147	841
148	571
149	370
150	110
151	60
157	510
158	50
159	330
160	40
161	80
162	20
163	20
167	20
168	20
170	20
173	480
174	420
175	9999
176	1031
177	6256
178	520
179	1011
180	120
181	90
182	60
183	80
184	20
185	20
192	150
193	70
194	150
195	70
196	70
197	20
198	20
200	10
207	40
208	30
209	771
210	8678
211	1411
212	8247
213	871
214	2702
215	230
216	290
217	20
