Mass Spectrum: 1,2-Benzenedicarboxaldehyde
Formula: C8 H6 O2
CAS: 643-79-8
Molecular weight: 134
Origin: Japan AIST/NIMC Database- Spectrum MS-NW-4256
m/z	RELATIVE INTENSITY
18	30
25	20
26	90
27	389
28	159
29	529
30	10
36	40
37	249
38	299
39	639
40	30
43	40
44	10
48	20
49	169
50	1669
51	3849
52	959
53	239
54	10
55	30
60	30
61	129
62	219
63	329
64	40
65	10
66	30
72	10
73	119
74	569
75	389
76	849
77	7619
78	1639
79	109
84	30
85	40
86	50
87	40
88	10
89	109
90	30
91	60
92	20
103	10
104	229
105	9999
106	3649
107	259
108	10
118	20
133	709
134	3509
135	339
136	20
