Mass Spectrum: 1,2-Bis(benzoyloxy)benzene
Formula: C20 H14 O4
CAS: 643-94-7
Molecular weight: 318
Origin: W. ADAM, INST. ORG. CHEM., UNIV. WURZBURG, WURZBURG, W. GER.
m/z	RELATIVE INTENSITY
39	92
40	62
41	87
43	95
44	144
45	16
49	31
50	169
51	869
52	296
53	40
55	49
57	105
63	32
65	46
67	22
69	91
71	46
74	23
75	38
76	136
77	3987
78	274
79	46
80	113
81	27
85	18
104	40
105	9999
106	798
107	54
115	22
119	31
121	36
137	38
149	24
197	85
213	37
318	292
319	61
