Mass Spectrum: Methanone, (3-methylphenyl)phenyl-
Formula: C14 H12 O
CAS: 643-65-2
Molecular weight: 196
Origin: Japan AIST/NIMC Database- Spectrum MS-NW-5463
m/z	RELATIVE INTENSITY
14	10
26	20
27	139
28	20
29	10
37	30
38	90
39	689
40	70
41	189
42	10
43	10
44	10
46	10
49	20
50	409
51	1369
52	119
53	40
57	10
61	50
62	159
63	459
64	129
65	1519
66	90
67	10
69	30
70	30
71	30
73	20
74	159
75	149
76	269
77	3779
78	289
79	30
81	20
82	80
83	119
84	179
85	30
86	60
87	60
88	30
89	389
90	219
91	3759
92	309
93	10
97	70
98	70
99	20
100	10
101	20
102	40
103	20
104	40
105	6269
106	479
107	30
110	10
111	10
113	30
114	10
115	90
116	10
117	10
118	50
119	9999
120	899
121	70
126	40
127	40
128	40
129	10
133	90
134	20
135	10
136	70
137	10
139	70
140	20
141	30
142	10
150	30
151	80
152	289
153	139
154	10
163	50
164	50
165	339
166	99
167	219
168	199
169	30
170	10
176	20
177	10
178	30
179	30
180	10
181	1099
182	199
183	20
193	10
194	40
195	439
196	7379
197	1199
198	119
