Mass Spectrum: 1,2-Difluorostilbene
Formula: C14 H10 F2
CAS: 643-76-5
Molecular weight: 216
Origin: NIST Mass Spectrometry Data Center, 1994
m/z	RELATIVE INTENSITY
15	96
26	154
27	531
28	102
31	143
32	3
33	82
37	46
38	258
39	1033
40	56
50	885
51	1393
52	262
57	338
61	128
62	395
63	760
64	91
65	59
68	96
69	180
70	197
72	85
74	635
75	644
76	240
77	339
78	51
80	114
81	597
82	1006
83	1062
84	152
85	822
86	325
87	522
88	411
89	190
90	41
92	105
93	199
94	984
96	197
97	471
98	1337
99	447
100	243
101	244
102	77
104	51
105	170
106	231
107	960
108	384
110	117
111	138
112	121
113	114
114	140
115	136
116	46
117	88
118	94
119	116
120	305
121	41
122	85
123	180
124	46
125	238
126	159
127	152
128	35
129	38
131	123
133	243
134	52
137	96
138	275
139	230
140	44
142	45
143	143
144	217
145	72
146	84
149	195
150	186
151	466
152	92
155	66
156	58
157	257
161	32
162	157
163	337
164	32
165	6008
166	937
167	143
168	333
169	320
170	559
171	77
173	47
174	152
175	693
176	283
177	243
178	50
180	32
181	152
182	76
183	452
184	66
186	109
187	163
188	796
189	215
192	71
193	285
194	816
195	840
196	4861
197	1359
198	169
199	71
200	66
201	2909
202	422
212	260
213	190
214	2087
215	4096
216	9999
217	1565
218	84
