Mass Spectrum: 2-Nonene, (E)-
Formula: C9 H18
CAS: 6434-78-2
Molecular weight: 126
Origin: Japan AIST/NIMC Database- Spectrum MS-NW-3700
m/z	RELATIVE INTENSITY
14	10
15	70
26	90
27	1959
28	199
29	2829
30	70
37	20
38	70
39	1789
40	339
41	5129
42	3719
43	5949
44	199
45	10
50	80
51	149
52	90
53	649
54	929
55	9999
56	6499
57	1159
58	60
62	10
63	40
65	90
66	60
67	579
68	509
69	3509
70	4379
71	929
72	50
77	60
78	20
79	70
80	10
81	119
82	289
83	1409
84	1789
85	239
86	10
91	20
93	10
95	20
96	99
97	1439
98	589
99	50
111	50
112	10
126	2909
127	309
128	20
