Mass Spectrum: cis-2-Nonene
Formula: C9 H18
CAS: 6434-77-1
Molecular weight: 126
Origin: NIST Mass Spectrometry Data Center, 1990.
m/z	RELATIVE INTENSITY
26	225
27	2282
28	790
29	2729
30	68
39	3842
40	799
41	6748
42	2945
43	4520
44	183
50	192
51	412
52	240
53	1362
54	1396
55	9999
56	6156
57	1026
63	90
65	253
66	135
67	1186
68	823
69	4363
70	4352
71	819
77	168
79	165
81	177
82	379
83	1478
84	1458
85	202
97	1846
98	589
126	2929
127	271
