Mass Spectrum: 4-Ethylphenethylamine
Formula: C10 H15 N
CAS: 64353-29-3
Molecular weight: 149
Origin: NIST Mass Spectrometry Data Center, 1994
m/z	RELATIVE INTENSITY
4	32
14	3
15	43
17	12
18	23
26	19
27	222
28	330
29	3
30	9999
31	144
32	23
38	46
39	365
40	54
41	230
42	79
43	48
50	130
51	296
52	119
53	109
58	14
61	11
62	58
63	207
64	69
65	285
66	53
74	40
75	49
76	61
77	455
78	295
79	171
80	14
86	9
87	16
89	125
91	780
92	92
93	43
102	66
103	277
104	383
105	1228
106	116
115	176
116	52
117	222
118	154
119	312
120	1473
121	142
128	14
129	7
130	17
131	15
132	43
133	10
147	24
149	252
150	36
