Mass Spectrum: 2-Fluorobenzyl isothiocyanate
Formula: C8 H6 F N S
CAS: 64382-80-5
Molecular weight: 167
Origin: NIST Mass Spectrometry Data Center, 1994
m/z	RELATIVE INTENSITY
4	27
14	28
26	62
27	103
28	93
31	217
32	200
33	62
34	16
37	99
38	210
39	551
40	46
41	12
44	177
45	246
46	38
47	13
49	72
50	435
51	323
52	64
55	18
56	125
57	903
58	267
59	227
60	59
61	167
62	311
63	649
64	92
65	32
68	130
69	188
70	200
71	122
72	144
74	187
75	289
76	75
77	30
78	14
80	52
81	327
83	2372
84	152
85	51
86	59
87	89
88	59
89	310
90	37
92	17
93	47
94	88
95	107
96	62
100	12
102	28
103	16
105	35
107	631
109	9999
110	759
111	32
115	22
119	20
120	14
121	38
122	24
134	71
135	46
139	164
140	16
167	1885
168	193
169	85
