Mass Spectrum: Phosphonous dichloride, phenyl-
Formula: C6 H5 Cl2 P
CAS: 644-97-3
Molecular weight: 178
Origin: Japan AIST/NIMC Database- Spectrum MS-NW-2642
m/z	RELATIVE INTENSITY
26	40
27	139
28	70
31	40
32	20
35	60
36	169
37	80
38	99
39	329
40	20
44	20
47	10
49	50
50	579
51	1809
52	99
53	20
55	40
56	329
57	279
58	20
61	30
62	50
63	199
64	40
65	20
66	109
67	30
68	139
69	119
73	50
74	169
75	169
76	129
77	3089
78	219
79	60
80	309
81	509
82	139
83	10
89	10
90	10
91	229
92	20
93	90
99	40
101	139
103	99
104	60
105	30
106	20
107	2709
108	499
109	30
111	40
112	129
113	20
114	40
115	30
117	90
119	30
127	30
141	40
142	40
143	9999
144	679
145	3229
146	309
147	10
148	60
150	10
154	10
159	80
161	20
162	10
177	20
178	3819
179	269
180	2479
181	159
182	399
183	30
