Mass Spectrum: Propanoic acid, 2-methyl-, propyl ester
Formula: C7 H14 O2
CAS: 644-49-5
Molecular weight: 130
m/z	RELATIVE INTENSITY
27	3473
28	761
29	911
30	150
31	340
32	10
33	10
40	240
41	2853
42	1241
43	9999
44	340
45	160
46	10
47	10
55	160
56	100
57	280
58	40
59	360
60	30
61	10
69	20
70	60
71	4434
72	200
73	330
74	30
75	10
83	10
85	10
86	10
87	50
88	140
89	3063
99	10
100	20
101	240
102	20
103	10
115	20
130	10
