Mass Spectrum: Pyridine, 2-(1-methylethyl)-
Formula: C8 H11 N
CAS: 644-98-4
Molecular weight: 121
Origin: NIST Mass Spectrometry Data Center, 1990.
m/z	RELATIVE INTENSITY
15	121
26	109
27	392
28	95
37	90
38	193
39	742
40	135
41	323
42	54
43	59
49	76
50	744
51	1760
52	1356
53	667
54	173
58	126
62	126
63	283
64	120
65	332
66	139
67	65
74	114
75	118
76	189
77	832
78	2687
79	1967
80	705
89	52
90	54
91	185
92	779
93	2504
94	185
104	467
106	9999
107	738
117	108
118	241
120	2450
121	1327
122	102
