Mass Spectrum: dl-2-Aminocaprylic acid
Formula: C8 H17 N O2
CAS: 644-90-6
Molecular weight: 159
Origin: NIST Mass Spectrometry Data Center
m/z	RELATIVE INTENSITY
18	60
27	330
29	450
30	1952
32	10
39	370
40	40
41	1121
42	530
43	2002
44	961
45	160
46	250
53	160
54	180
55	2322
56	1391
57	480
67	110
69	250
70	200
71	110
74	1591
75	250
82	80
84	150
88	90
89	80
97	110
112	70
114	9999
115	801
159	70
