Mass Spectrum: 2-Butanol, 1-(dimethylamino)-2-methyl-, benzoate
Formula: C14 H21 N O2
CAS: 644-26-8
Molecular weight: 235
Origin: Finnigan MAT: Toxicological Library (LIBR-TX)
m/z	RELATIVE INTENSITY
41	480
42	764
50	394
51	568
58	9999
59	377
77	1326
82	210
84	205
85	203
98	1121
105	1688
106	210
112	199
113	697
114	195
122	900
