Mass Spectrum: 4H-Pyran-4-one, 5-hydroxy-2-methyl-
Formula: C6 H6 O3
CAS: 644-46-2
Molecular weight: 126
Origin: TAT 0850
m/z	RELATIVE INTENSITY
27	100
28	601
29	2302
30	1101
31	300
38	601
39	3003
40	500
41	2102
42	1501
43	3503
44	601
45	100
57	200
58	2302
59	300
66	100
67	601
68	500
69	3904
70	601
71	100
85	500
86	100
96	100
97	500
98	1001
99	100
124	200
125	500
126	9999
127	801
128	100
