Mass Spectrum: Pyrene, 1,3-dimethyl-
Formula: C18 H14
CAS: 64401-21-4
Molecular weight: 230
Origin: M.NELSON IMPERIAL TOBACCO LTD., RALEIGH RD., BRISTOL, UK
m/z	RELATIVE INTENSITY
41	300
43	500
44	500
50	100
51	100
55	300
56	200
57	600
63	100
69	200
73	200
74	100
75	200
83	100
85	200
87	200
88	400
94	100
95	200
99	200
100	500
101	1300
106	100
107	100
108	100
111	100
112	300
113	600
114	800
115	600
149	100
150	100
163	100
174	100
176	100
187	200
188	100
189	400
198	100
199	100
200	400
201	300
202	1100
203	300
211	200
212	100
213	900
214	300
215	2900
216	900
217	100
223	100
224	300
225	300
226	1200
227	800
228	1400
229	3500
230	9999
231	1900
232	200
