Mass Spectrum: N-(4-Methoxyphenyl)-thiophene-2-carboxamide
Formula: C12 H11 N O2 S
CAS: 64419-14-3
Molecular weight: 233
Origin: Zaikin V.G., TIPS RAS, Moscow, Russia
m/z	RELATIVE INTENSITY
28	10
38	30
39	480
41	90
45	40
50	30
51	60
52	160
53	110
57	40
58	30
63	50
64	50
65	60
77	50
78	50
79	70
80	100
81	50
82	40
83	360
84	40
92	30
95	250
106	50
107	60
108	110
109	80
111	9999
112	550
113	410
122	430
123	110
124	210
134	50
205	30
232	30
233	6306
234	831
235	340
236	40
