Mass Spectrum: (Z)-2-Heptene
Formula: C7 H14
CAS: 6443-92-1
Molecular weight: 98
Origin: NIST Mass Spectrometry Data Center
m/z	RELATIVE INTENSITY
14	20
15	500
26	510
27	5085
28	20
29	3603
30	70
36	10
37	110
38	420
39	4624
40	861
41	9999
42	2182
43	2082
44	40
49	20
50	270
51	430
52	200
53	1151
54	1191
55	6956
56	8578
57	981
58	30
61	10
62	50
63	100
64	20
65	170
66	70
67	470
68	370
69	3873
70	1802
71	80
74	10
77	70
78	10
79	70
81	60
82	20
83	330
84	20
98	2622
99	180
