Mass Spectrum: Pentanoic acid, 4-oxo-, propyl ester
Formula: C8 H14 O3
CAS: 645-67-0
Molecular weight: 158
Origin: W.Jennings, T.Shibamoto
m/z	RELATIVE INTENSITY
27	180
28	70
29	270
30	70
41	450
42	260
43	9999
44	180
55	380
56	380
57	260
58	70
59	70
61	70
71	881
72	180
73	430
74	2793
75	1061
98	450
99	6326
100	370
101	1311
116	681
117	591
143	370
