Mass Spectrum: cis-Stilbene
Formula: C14 H12
CAS: 645-49-8
Molecular weight: 180
Origin: NIST Mass Spectrometry Data Center, 1998.
m/z	RELATIVE INTENSITY
15	10
26	20
27	100
37	20
38	70
39	390
40	20
41	20
49	10
50	460
51	960
52	300
53	40
57	10
61	50
62	220
63	740
64	130
65	190
66	10
69	60
73	20
74	330
75	420
76	1460
77	820
78	340
79	20
82	280
85	30
86	110
87	200
88	470
89	2020
91	70
97	10
98	100
99	70
100	40
101	110
102	1030
103	200
104	20
109	10
110	30
111	40
112	10
113	110
114	50
115	500
116	50
122	20
123	10
124	10
125	40
126	270
127	220
128	210
129	30
137	30
138	40
139	380
140	60
141	60
142	10
149	30
150	330
151	760
152	1560
153	410
154	60
162	20
163	170
164	260
165	5539
166	800
167	50
174	50
175	90
176	1180
177	860
178	6699
179	9999
180	9799
181	1430
182	100
