Mass Spectrum: Benzenepropanenitrile
Formula: C9 H9 N
CAS: 645-59-0
Molecular weight: 131
Origin: Japan AIST/NIMC Database- Spectrum MS-NW-3290
m/z	RELATIVE INTENSITY
26	30
27	109
28	40
29	10
31	30
37	40
38	99
39	499
40	70
41	109
43	10
45	10
49	20
50	259
51	539
52	129
53	30
54	10
59	60
61	40
62	109
63	319
64	80
65	939
66	50
73	20
74	90
75	90
76	90
77	389
78	169
79	40
85	10
86	20
87	20
88	10
89	189
90	70
91	9999
92	779
93	30
99	10
100	10
101	30
102	80
103	219
104	169
105	50
106	20
107	20
116	20
128	30
129	20
130	60
131	2359
132	239
133	10
