Mass Spectrum: 2-Hexenal, 2-ethyl-
Formula: C8 H14 O
CAS: 645-62-5
Molecular weight: 126
Origin: NIST Mass Spectrometry Data Center, 1990.
m/z	RELATIVE INTENSITY
14	90
15	309
18	67
26	540
27	4448
28	566
29	3842
30	102
31	133
37	122
38	536
39	4799
40	1060
41	8431
42	1237
43	3649
44	221
45	143
50	496
51	881
52	359
53	1833
54	122
55	9999
56	1444
57	1346
58	103
61	57
62	127
63	216
64	57
65	527
66	298
67	2060
68	507
69	2321
70	573
71	469
72	153
74	44
77	732
78	156
79	964
80	111
81	533
82	156
83	1409
84	487
85	604
86	52
91	454
93	1299
94	128
95	384
96	52
97	3495
98	395
107	50
109	44
111	1406
112	96
125	286
126	2328
127	198
