Mass Spectrum: Ethanamine, 2,2-diethoxy-
Formula: C6 H15 N O2
CAS: 645-36-3
Molecular weight: 133
Origin: RADIAN CORP
m/z	RELATIVE INTENSITY
15	20
26	140
27	760
28	720
29	1700
30	2960
31	400
40	30
41	190
42	1410
43	600
44	1730
45	540
47	9999
49	50
57	30
58	490
59	300
60	3170
61	170
70	50
72	40
75	4910
76	200
86	30
87	130
88	2530
89	160
103	9450
104	620
105	40
