Mass Spectrum: Benzene, 1-iodo-3-nitro-
Formula: C6 H4 I N O2
CAS: 645-00-1
Molecular weight: 249
Origin: RADIAN CORP
m/z	RELATIVE INTENSITY
26	30
30	700
36	20
37	150
38	150
39	60
46	380
48	10
49	150
50	1600
51	130
52	20
60	20
61	120
62	120
63	260
64	250
65	10
72	20
73	300
74	1290
75	1020
76	4290
77	290
87	20
90	20
92	590
93	40
122	10
125	30
127	1140
128	60
152	50
153	20
164	10
165	30
176	50
177	40
191	610
192	30
201	10
203	4840
204	320
219	150
233	60
249	9999
250	700
251	60
