Mass Spectrum: Benzeneselenol
Formula: C6 H6 Se
CAS: 645-96-5
Molecular weight: 158
Origin: NIST Mass Spectrometry Data Center, 1994
m/z	RELATIVE INTENSITY
12	24
13	23
15	85
16	11
17	14
18	44
24	23
25	73
26	326
27	617
36	69
37	608
38	576
39	1567
40	46
48	43
49	427
50	3020
51	3971
52	372
53	47
60	43
61	188
62	193
63	295
64	39
65	406
66	97
72	34
73	261
74	968
75	581
76	671
77	4633
78	9999
79	975
80	710
81	344
82	137
83	58
89	73
90	70
91	187
92	46
93	388
94	31
95	65
101	77
102	102
103	208
104	133
105	391
106	199
107	167
108	47
113	173
114	156
115	407
116	89
117	734
118	105
119	185
120	17
125	60
126	106
127	182
128	159
129	278
130	242
131	169
132	134
133	32
139	25
141	52
143	30
150	21
151	58
152	137
153	396
154	1105
155	1238
156	1879
157	1521
158	3771
159	484
160	664
161	42
