Mass Spectrum: Benzenepropanoyl chloride
Formula: C9 H9 Cl O
CAS: 645-45-4
Molecular weight: 168
Origin: Japan AIST/NIMC Database- Spectrum MS-NW-7791
m/z	RELATIVE INTENSITY
13	10
14	50
15	20
18	10
26	149
27	809
28	60
29	20
35	80
36	239
37	119
38	299
39	1259
40	90
41	139
42	149
43	30
44	10
49	109
50	1079
51	2389
52	549
53	179
54	30
55	259
56	10
60	10
61	119
62	339
63	809
64	179
65	1249
66	179
67	20
73	80
74	369
75	289
76	329
77	2489
78	1869
79	1249
80	80
83	10
84	10
85	30
86	50
87	60
88	20
89	429
90	169
91	9999
92	809
93	30
97	10
98	40
99	40
101	60
102	329
103	2229
104	8649
105	8909
106	759
107	40
112	20
114	10
115	50
116	10
120	20
121	10
123	20
125	139
126	30
127	50
128	10
130	20
131	869
132	1239
133	1729
134	169
135	10
138	10
150	30
168	2619
169	289
170	899
171	90
