Mass Spectrum: Altretamine
Formula: C9 H18 N6
CAS: 645-05-6
Molecular weight: 210
Origin: NIST Mass Spectrometry Data Center
m/z	RELATIVE INTENSITY
15	130
18	10
27	20
29	30
30	60
40	30
41	90
42	981
43	270
44	621
45	50
46	10
53	110
54	80
55	601
56	190
57	130
58	20
61	20
62	20
66	10
67	270
68	60
69	1211
70	450
71	1902
72	90
75	20
78	20
80	340
81	340
82	821
83	150
84	110
85	40
86	10
89	50
90	300
93	10
94	20
96	6336
97	1161
98	280
99	50
104	180
105	1001
107	440
108	40
109	120
110	70
111	160
112	250
113	20
121	40
122	50
123	1001
124	210
125	180
126	60
127	50
135	20
136	60
137	150
138	581
139	320
140	60
149	10
150	130
151	110
152	4364
153	350
154	10
164	20
165	70
166	2492
167	3113
168	340
169	10
179	160
181	2012
182	220
183	10
193	40
195	8748
196	951
197	40
208	30
209	701
210	9999
211	1221
212	60
