Mass Spectrum: Ethyl 2-isocyanato-4-methylthiobutyrate
Formula: C8 H13 N O3 S
CAS: 64505-12-0
Molecular weight: 203
Origin: NIST Mass Spectrometry Data Center
m/z	RELATIVE INTENSITY
12	20
13	30
14	140
15	631
16	20
18	60
19	30
26	601
27	4254
28	2482
29	5395
30	220
31	90
32	20
33	30
35	1171
36	20
37	70
38	70
39	550
40	210
41	1321
42	711
43	310
44	320
45	1942
46	1131
47	1732
48	390
49	410
50	20
51	40
52	130
53	160
54	1291
55	931
56	1241
57	270
58	270
59	641
61	9999
62	1161
63	490
64	50
65	30
66	10
67	20
68	180
69	220
70	110
71	180
72	160
73	771
74	390
75	1802
76	130
77	100
80	10
82	1131
83	1391
84	1321
85	410
86	761
87	350
88	230
89	50
90	20
93	10
96	550
97	20
99	280
101	4354
102	701
103	120
104	20
105	20
109	150
110	60
111	180
112	160
114	2272
115	120
116	190
117	40
127	410
128	480
129	2542
130	641
131	140
132	50
133	10
140	520
142	1031
143	60
144	20
145	10
146	40
155	140
157	3133
158	400
159	60
160	100
174	10
188	80
203	1461
204	160
205	70
