Mass Spectrum: n-Propyl n-hexyl disulfide
Formula: C9 H20 S2
CAS: 64580-54-7
Molecular weight: 192
Origin: H.J. MOECKEL & J. WEISS, HAHN-MEITNER-INST. BERLIN, W. G
m/z	RELATIVE INTENSITY
15	208
24	3
25	15
26	200
27	3366
29	2858
30	274
34	13
35	44
37	26
38	101
39	1710
40	221
41	5941
42	1176
43	9999
44	507
45	1100
46	568
47	852
48	43
49	41
50	18
51	44
52	30
53	228
54	133
55	1296
56	259
57	1278
58	189
59	254
60	205
61	137
62	14
63	24
64	161
65	76
66	232
67	101
68	35
69	111
70	8
71	10
72	34
73	392
74	145
75	82
76	17
77	14
78	56
79	274
80	19
81	92
82	70
83	128
84	75
85	731
86	70
87	152
88	41
89	18
90	2
91	2
92	6
93	14
94	1
100	1
101	41
102	1
105	4
106	15
107	177
108	1903
109	132
110	164
111	7
112	4
115	48
116	27
117	178
118	17
119	8
120	2
121	17
135	1
149	2
159	1
190	3
191	70
192	1175
193	173
194	115
195	15
196	3
