Mass Spectrum: 1,3-Dioxolane
Formula: C3 H6 O2
CAS: 646-06-0
Molecular weight: 74
Origin: Japan AIST/NIMC Database- Spectrum MS-NW-4402
m/z	RELATIVE INTENSITY
12	20
13	80
14	399
15	2149
16	369
17	20
18	90
19	449
25	30
26	209
27	1119
28	219
29	4389
30	249
31	729
32	50
36	40
40	10
41	40
42	429
43	2139
44	6369
45	2979
46	80
47	10
71	40
72	10
73	9999
74	569
75	60
