Mass Spectrum: Nonadecanoic acid
Formula: C19 H38 O2
CAS: 646-30-0
Molecular weight: 298
Origin: D.HENNEBERG, MAX-PLANCK INSTITUTE, MULHEIM, WEST GERMANY
m/z	RELATIVE INTENSITY
26	14
27	1434
28	418
29	3884
30	117
31	129
33	11
36	22
37	10
39	721
40	163
41	6989
42	1461
43	9999
44	338
45	593
46	15
47	18
50	13
51	23
52	18
53	315
54	525
55	6131
56	1582
57	7198
58	332
59	345
60	6864
61	2324
62	83
63	12
65	45
66	51
67	617
68	517
69	3369
70	905
71	3371
72	192
73	7493
74	581
75	53
77	42
78	18
79	113
80	61
81	404
82	459
83	2206
84	844
85	1961
86	151
87	1197
88	132
89	16
91	12
93	98
94	49
95	301
96	317
97	1606
98	979
99	561
100	82
101	543
102	180
103	8
105	10
107	73
108	31
109	127
110	173
111	713
112	290
113	324
114	53
115	803
116	416
117	36
119	11
120	7
121	105
122	20
123	69
124	85
125	357
126	123
127	205
128	33
129	2239
130	277
131	19
133	15
134	9
135	77
136	14
137	38
138	55
139	154
140	99
141	167
142	20
143	349
144	71
149	48
150	5
151	13
152	48
153	99
154	73
155	123
156	14
157	221
158	60
163	26
165	4
166	28
167	57
168	36
169	86
170	21
171	327
172	79
173	20
174	9
177	10
180	33
181	46
182	37
183	58
184	8
185	530
186	110
187	6
191	4
194	44
195	53
196	30
197	33
198	7
199	459
200	86
201	13
208	9
209	19
210	41
211	4
213	260
214	46
218	15
219	14
223	7
224	11
227	126
228	24
236	126
237	27
238	119
239	96
240	11
241	230
242	55
243	8
251	10
252	5
255	1011
256	165
257	14
262	44
263	7
269	152
270	25
279	8
280	26
281	29
282	7
283	2
296	7
297	29
298	4060
299	866
