Mass Spectrum: H2N(CH2)7NH2
Formula: C7 H18 N2
CAS: 646-19-5
Molecular weight: 130
Origin: NIST Mass Spectrometry Data Center
m/z	RELATIVE INTENSITY
16	120
18	871
27	550
28	1321
30	9999
39	440
41	981
42	661
43	671
44	1231
45	691
51	60
53	110
54	170
55	701
56	1661
58	100
59	240
67	150
68	140
69	420
70	330
72	250
73	230
81	90
83	100
84	250
86	420
87	130
96	70
98	160
100	370
101	761
102	80
112	110
114	561
128	150
