Mass Spectrum: 4-Penten-2-ol, 1,1,1-trifluoro-2-(trifluoromethyl)-
Formula: C6 H6 F6 O
CAS: 646-97-9
Molecular weight: 208
Origin: A.S.GORDON DEPT. OF THE NAVY, CHINA LAKE, CALIF., USA
m/z	RELATIVE INTENSITY
12	69
14	300
15	765
27	871
28	647
29	941
31	1206
32	267
33	314
37	776
38	1765
39	7647
40	1412
41	9999
42	3529
43	882
44	382
45	265
47	1235
49	294
50	271
51	1824
53	441
55	529
57	553
59	1373
61	275
63	304
64	359
65	265
67	618
68	412
69	8235
70	488
71	765
75	824
77	765
78	824
89	588
91	1824
95	412
97	847
99	265
100	294
101	729
103	300
119	300
121	1412
128	435
139	2098
141	269
147	218
149	567
169	273
208	3333
209	235
