Mass Spectrum: Octadecanoic acid, 2-methylpropyl ester
Formula: C22 H44 O2
CAS: 646-13-9
Molecular weight: 340
Origin: RADIAN CORP
m/z	RELATIVE INTENSITY
15	10
27	900
29	2890
30	80
31	70
39	820
40	40
41	6630
42	1270
43	6410
44	250
45	100
53	260
54	330
55	3660
56	8140
57	9999
58	660
59	190
60	1670
61	730
65	30
66	20
67	540
68	300
69	1710
70	530
71	1870
72	120
73	1660
74	230
77	30
79	170
80	70
81	560
82	270
83	1340
84	590
85	1090
86	140
87	640
88	70
89	40
91	20
93	130
94	50
95	510
96	240
97	1050
98	650
99	320
100	60
101	340
102	90
103	40
107	100
108	40
109	280
110	110
111	540
112	170
113	170
114	40
115	350
116	900
117	660
118	50
121	130
123	160
124	60
125	270
126	60
127	100
129	1060
130	140
135	120
137	90
138	40
139	130
140	20
141	50
143	240
144	50
149	70
151	40
153	80
155	20
157	130
158	50
163	40
167	50
171	230
172	80
181	30
185	540
186	80
199	200
200	20
213	90
222	20
227	150
228	20
241	420
242	70
247	30
255	80
264	80
265	80
267	1700
268	360
269	30
284	2270
285	2640
286	520
287	60
310	20
325	10
340	560
341	180
343	10
