Mass Spectrum: 1-Penten-3-yne
Formula: C5 H6
CAS: 646-05-9
Molecular weight: 66
Origin: D.HENNEBERG, MAX-PLANCK INSTITUTE, MULHEIM, WEST GERMANY
m/z	RELATIVE INTENSITY
24	22
25	48
26	178
27	539
30	4
36	106
37	580
38	1050
39	6109
40	3233
41	107
42	11
43	105
48	357
49	187
50	423
51	884
52	105
53	306
54	18
56	9
57	4
58	4
60	161
61	716
62	1062
63	1530
64	446
65	3934
66	9999
67	534
68	8
