Mass Spectrum: 4-Methylpyrrolo[1,2-a]pyrazine
Formula: C8 H8 N2
CAS: 64608-60-2
Molecular weight: 132
Origin: Philip Morris R&D
m/z	RELATIVE INTENSITY
36	17
37	260
38	602
39	1143
40	265
41	170
42	153
44	54
49	58
50	412
51	1095
52	1403
53	412
54	99
61	99
62	284
63	975
64	502
65	373
66	1125
67	160
74	22
75	100
76	185
77	799
78	1557
79	1373
80	162
90	95
91	138
92	142
102	80
103	73
104	3730
105	1198
106	113
117	60
129	62
131	5786
132	9999
133	858
134	28
