Mass Spectrum: Propan-1,3-dioic acid, di[3-methylbutyl] ester
Formula: C13 H24 O4
CAS: 64617-96-5
Molecular weight: 244
Origin: L.N.Kulikova, V.G. Zaikin, RPFU, Moscow, Russia
m/z	RELATIVE INTENSITY
26	30
27	561
29	621
30	30
39	430
40	70
41	1461
42	1081
43	4614
44	40
45	40
53	140
54	120
55	2873
56	140
57	60
60	90
67	50
68	70
69	631
70	6556
71	9999
72	530
86	110
87	701
88	20
89	30
99	20
105	2402
106	80
113	40
114	50
115	90
118	10
131	150
132	290
133	100
141	20
157	1081
158	90
159	140
175	581
176	50
201	581
202	80
229	30
245	30
