Mass Spectrum: (SS)- or (RR)-4-methyl-2,3-pentanediol
Formula: C6 H14 O2
CAS: 6464-40-0
Molecular weight: 118
Origin: R.ERRA BALSELLS,DEP. QUIM. ORG.,CITY UNIV. BUENOS AIRES,ARGENT
m/z	RELATIVE INTENSITY
27	3000
41	3300
43	4800
45	8800
55	6600
57	3100
58	500
59	2600
71	3400
72	2600
73	9999
74	1100
85	200
