Mass Spectrum: Malononitrile, benzyl 4-bromophenyldiazenyl-
Formula: C16 H11 Br N4
CAS: 64710-74-3
Molecular weight: 338
Origin: ASES Database, Dalian Institute, P.R. China
m/z	RELATIVE INTENSITY
38	300
39	1070
42	410
50	2972
51	1681
63	480
65	910
75	380
76	3583
77	4013
89	290
90	300
91	6365
92	390
128	390
155	9999
157	9408
183	3493
185	3373
221	90
223	100
248	200
250	200
