Mass Spectrum: Nonanoic acid, phenylmethyl ester
Formula: C16 H24 O2
CAS: 6471-66-5
Molecular weight: 248
Origin: W.Jennings, T.Shibamoto
m/z	RELATIVE INTENSITY
28	420
29	70
41	320
43	2052
55	941
56	110
57	2552
58	80
59	80
65	210
67	210
69	1251
70	70
71	1812
72	70
73	70
77	90
79	520
81	410
83	320
84	90
90	861
91	9999
92	3453
93	190
95	190
96	190
97	1792
98	80
101	190
105	190
107	651
108	7927
109	741
110	80
111	320
115	80
121	310
123	410
138	230
139	1732
140	90
141	1141
142	90
156	90
157	1271
158	90
248	310
