Mass Spectrum: 1,3-Butadiyne, 1,4-difluoro-
Formula: C4 F2
CAS: 64788-23-4
Molecular weight: 86
Origin: HCACAV,61(1)357(1978); G. BIERI ET AL
m/z	RELATIVE INTENSITY
31	1100
36	400
43	400
55	1000
67	500
86	9999
