Mass Spectrum: 1,3-Pentadiyne, 1,5,5,5-tetrafluoro-
Formula: C5 F4
CAS: 64788-24-5
Molecular weight: 136
Origin: HCACAV,61(1)357(1978); G. BIERI ET AL
m/z	RELATIVE INTENSITY
31	600
67	200
69	800
74	200
79	300
93	200
98	700
117	8000
136	9999
