Mass Spectrum: Ethane, 1-bromo-2-methoxy-
Formula: C3 H7 Br O
CAS: 6482-24-2
Molecular weight: 138
Origin: NIST Mass Spectrometry Data Center, 1994
m/z	RELATIVE INTENSITY
4	25
8	4
12	45
13	124
14	475
15	2023
16	43
17	45
18	7
24	14
25	118
26	954
27	2371
28	968
29	3160
30	253
31	680
32	14
33	48
39	15
40	13
41	77
42	256
43	977
44	13
45	9999
46	222
47	23
58	1224
59	72
79	231
80	109
81	209
82	100
83	12
91	45
92	55
93	321
94	88
95	280
96	36
97	8
104	15
105	32
106	60
107	302
108	55
109	255
110	9
120	7
122	12
138	475
140	474
141	17
