Mass Spectrum: Sophocarpine
Formula: C15 H22 N2 O
CAS: 6483-15-4
Molecular weight: 246
Origin: V.G.Zaikin, TIPS, Russian Acad. Sci.
m/z	RELATIVE INTENSITY
52	300
53	1301
54	1601
55	1901
56	800
57	300
66	400
67	1701
68	7006
69	800
70	800
71	100
76	100
77	800
78	400
79	900
80	2001
81	1301
82	1401
83	800
84	800
85	100
91	500
92	500
93	300
94	600
95	900
96	6505
97	900
98	1701
99	300
100	100
105	100
106	600
107	400
108	1101
109	900
110	1101
111	400
112	200
117	200
118	400
119	150
120	900
121	500
122	1901
123	400
124	300
125	100
130	100
131	400
132	500
133	500
134	1101
135	600
136	2201
137	1601
138	3202
139	300
140	100
146	800
147	500
148	1301
149	900
150	3503
151	800
152	200
159	900
160	600
161	300
162	400
163	100
174	100
175	500
176	300
177	1901
178	200
186	300
187	200
188	300
189	200
190	100
203	2101
204	500
205	300
217	800
218	200
245	8407
246	9999
247	1591
248	130
