Mass Spectrum: Am-ex-ol
Formula: C14 H9 Cl N2
CAS: 6484-25-9
Molecular weight: 240
Origin: NIST Mass Spectrometry Data Center
m/z	RELATIVE INTENSITY
16	10
17	10
18	80
26	60
27	290
28	50
35	20
36	20
37	90
38	170
39	380
40	20
44	10
47	10
50	1171
51	1842
52	340
53	20
60	10
61	100
62	190
63	240
64	140
65	10
68	10
72	30
73	90
74	410
75	1842
76	1742
77	2562
78	180
79	10
80	10
84	40
85	60
86	70
87	80
89	220
97	20
98	30
99	110
100	210
102	2893
103	911
104	340
105	20
107	10
109	20
110	30
111	60
112	20
113	20
114	20
120	510
121	170
123	10
125	20
126	20
127	20
128	40
129	120
136	20
137	30
138	20
139	10
149	20
150	60
151	220
152	70
153	30
163	10
165	10
175	20
176	80
177	210
178	50
202	20
203	60
205	9999
206	1541
207	120
213	10
240	3673
241	651
242	1251
243	190
244	10
