Mass Spectrum: Triisopropylsilane
Formula: C9 H22 Si
CAS: 6485-79-6
Molecular weight: 158
Origin: NIST Mass Spectrometry Data Center
m/z	RELATIVE INTENSITY
15	140
27	1091
29	571
30	100
31	701
33	10
39	601
40	90
41	1361
42	410
43	2943
44	1551
45	5165
46	360
47	160
53	210
54	70
55	571
56	170
57	400
59	9999
60	791
61	370
65	20
66	60
67	160
69	390
70	310
71	631
72	821
73	7707
74	701
75	280
83	30
85	130
86	280
87	3994
88	410
89	140
97	20
99	90
100	20
101	40
114	470
115	2833
116	330
117	100
118	10
158	1501
159	220
160	70
