Mass Spectrum: o-Tetramethylen(tert-butyl)silylepiandrosterone
Formula: C27 H46 O2 Si
CAS: 64898-16-4
Molecular weight: 430
Origin: M.Quilliam ET AL.Anal.Chem.,50,59(1978)
m/z	RELATIVE INTENSITY
55	490
56	50
57	260
59	170
61	230
67	520
68	110
69	140
71	80
73	641
74	50
75	110
77	110
79	460
80	110
81	961
82	80
83	430
85	260
87	50
91	520
92	110
93	701
94	110
95	641
97	350
99	901
100	110
101	4194
102	380
103	170
105	611
106	170
107	731
108	140
109	350
113	80
116	20
117	110
119	350
120	50
121	320
123	110
127	20
129	50
131	260
133	320
135	200
137	80
142	20
143	80
145	430
147	490
149	140
151	320
153	20
157	140
159	380
161	611
162	80
163	110
165	260
168	20
171	110
173	170
175	140
177	50
179	20
183	20
185	50
187	110
189	50
194	20
199	80
201	110
205	20
209	20
213	110
215	80
220	20
223	20
227	20
231	20
235	20
238	20
242	20
246	20
249	20
253	200
255	611
256	50
257	50
260	20
264	20
268	20
271	490
272	50
275	20
279	20
283	20
286	20
371	170
372	50
373	9999
374	3043
375	821
376	140
415	110
416	50
428	50
429	80
430	641
431	200
