Mass Spectrum: Chromium,pentacarbonyl(4-methylpyridine)-(OC-6-22)-
Formula: C11 H7 Cr N O5
CAS: 64914-26-7
Molecular weight: 285
Origin: Humboldt-Universitat zu Berlin, Department of Chemistry, Analytical Group
m/z	RELATIVE INTENSITY
25	12
26	109
27	206
28	2545
29	101
30	10
31	28
32	34
36	10
37	81
38	183
39	710
40	260
41	202
42	74
43	162
44	23
45	22
48	5
49	29
50	617
52	8743
53	1215
54	371
55	77
56	31
57	91
58	8
59	7
60	11
61	35
62	63
63	127
64	111
65	392
66	545
67	199
68	36
69	50
70	25
71	54
73	376
75	26
76	43
77	328
78	357
79	324
80	389
81	76
82	26
83	33
84	16
85	26
87	149
88	11
89	39
90	106
91	357
92	437
93	1038
94	92
95	26
96	16
97	31
98	11
99	14
101	119
102	20
103	38
104	99
105	30
106	36
107	10
108	71
109	23
110	11
111	20
112	13
113	13
114	69
116	23
117	109
118	56
119	15
120	5
121	7
122	6
123	12
124	6
125	17
126	7
127	11
128	14
129	46
130	28
131	13
133	7
134	7
135	8
136	14
137	10
138	6
139	10
140	6
141	9
142	70
143	580
144	342
145	9999
146	1865
147	397
148	27
149	14
151	6
153	6
157	9
161	6
162	6
163	7
164	6
165	7
167	6
169	6
171	138
172	83
173	2275
174	452
175	97
176	9
179	6
185	6
190	6
191	6
199	12
200	23
201	131
202	30
203	8
207	18
208	6
209	6
218	6
227	11
228	14
229	126
230	30
231	7
238	9
239	5
255	21
257	331
258	79
259	22
281	6
283	57
285	1006
286	246
287	63
288	9
