Mass Spectrum: Lauric acid .beta.-chloroethyl ester
Formula: C14 H27 Cl O2
CAS: 64919-15-9
Molecular weight: 262
Origin: FDA, Los Angeles District Laboratory
m/z	RELATIVE INTENSITY
41	5799
42	1950
43	9999
44	550
45	300
53	350
54	500
55	5549
56	2500
57	9349
58	450
60	1050
61	650
62	9049
63	6099
64	3050
65	1800
67	500
68	400
69	2050
70	450
71	1450
73	1400
81	400
82	250
83	1450
84	1000
85	850
86	2500
87	1900
95	600
96	200
97	1350
98	750
99	350
101	300
107	250
109	300
111	250
121	200
122	6699
123	1450
124	1950
125	550
135	6149
136	400
137	2150
138	350
149	450
163	450
177	600
179	200
183	2950
184	550
191	1100
192	200
193	350
219	750
221	250
233	200
262	450
264	200
