Mass Spectrum: 3-Cyclohexene-1-carboxylic acid, methyl ester
Formula: C8 H12 O2
CAS: 6493-77-2
Molecular weight: 140
Origin: NIST Mass Spectrometry Data Center, 1994
m/z	RELATIVE INTENSITY
12	25
13	51
15	3936
16	70
18	17
26	568
27	3592
28	795
29	1437
30	298
31	314
32	32
33	186
37	121
38	457
39	4202
40	557
41	3003
42	256
43	525
44	66
45	284
47	59
50	831
51	1589
52	892
53	2860
54	1775
55	1384
56	76
57	71
58	59
59	1149
60	28
61	208
62	75
63	190
64	28
65	651
66	651
67	574
68	211
69	214
71	140
72	23
74	267
75	46
77	2259
79	8007
80	9999
81	9218
82	630
83	200
84	67
85	95
87	77
91	60
92	19
93	115
95	50
97	303
98	116
99	72
105	28
108	3822
109	1426
110	143
111	470
112	140
113	45
121	17
123	16
125	220
126	19
140	1429
141	110
