Mass Spectrum: Pentoxifylline
Formula: C13 H18 N4 O3
CAS: 6493-05-6
Molecular weight: 278
Origin: Patti Price, Georgia Bureau of Investigation, Decatur, Georgia
m/z	RELATIVE INTENSITY
42	620
43	1451
51	10
52	50
53	160
54	190
55	620
56	430
57	40
58	10
65	20
66	120
67	1701
68	270
69	170
70	510
71	50
76	10
77	10
78	10
79	70
80	100
81	470
82	870
83	480
84	40
91	10
93	40
94	180
95	200
96	130
97	210
98	50
99	50
105	10
106	10
107	90
108	450
109	2742
110	460
111	660
112	40
120	20
121	120
122	250
123	160
124	110
125	30
126	10
130	10
131	10
132	50
133	20
134	50
135	230
136	920
137	1751
138	840
139	80
146	10
147	60
148	130
149	80
150	410
151	300
152	50
160	10
161	90
162	30
163	800
164	130
165	540
166	100
167	10
177	10
178	30
179	2001
180	6946
181	4544
182	440
183	30
189	10
190	20
191	50
192	20
193	8227
194	3062
195	300
196	20
200	10
203	110
204	30
205	670
206	90
207	1631
208	940
209	110
210	10
217	40
218	20
219	440
220	350
221	9999
222	1331
223	120
224	10
233	10
234	10
235	1000
236	190
237	10
245	10
247	10
249	10
250	10
260	10
261	410
262	80
263	40
264	10
277	10
278	4013
279	670
280	60
281	10
