Mass Spectrum: Ethyl ethylphosphonofluoridate
Formula: C4 H10 F O2 P
CAS: 650-20-4
Molecular weight: 140
Origin: VERIFIN - Methodology B1-1979
m/z	RELATIVE INTENSITY
26	100
27	500
29	1000
31	50
32	200
41	50
43	100
45	300
47	100
65	100
67	800
68	100
83	80
84	2702
85	500
93	200
95	1501
96	1401
97	100
98	50
111	1101
112	1201
113	9999
114	200
125	1401
139	200
