Mass Spectrum: 4-Nitrobenzoic acid, nonyl ester
Formula: C16 H23 N O4
CAS: 6500-27-2
Molecular weight: 293
Origin: Zaikin V.G., TIPS RAS, Moscow, Russia
m/z	RELATIVE INTENSITY
26	100
27	310
28	10
29	631
30	110
36	70
38	50
39	410
40	80
41	1842
42	841
43	2032
44	280
50	380
51	140
52	60
53	170
54	420
55	3183
56	3663
57	1311
58	50
63	100
64	170
65	611
66	90
67	440
68	911
69	4094
70	3623
71	651
72	30
73	30
74	160
75	601
76	1581
77	350
78	100
79	130
81	200
82	951
83	3473
84	2692
85	410
90	30
91	180
92	991
93	200
94	50
95	90
96	460
97	3283
98	2602
99	210
103	300
104	3573
105	681
106	60
107	40
109	60
111	180
119	50
120	1591
121	641
122	280
123	90
124	60
125	420
126	2532
127	260
133	30
134	721
135	210
136	60
137	2292
138	380
139	160
141	50
148	30
149	50
150	9999
151	2833
152	591
153	140
156	60
157	230
158	30
159	70
163	30
165	170
166	30
167	330
168	3934
169	2332
170	210
171	30
173	30
178	70
190	30
191	40
192	30
193	40
194	90
200	20
202	30
205	80
206	160
218	30
221	40
223	190
263	490
264	90
265	60
277	110
293	110
294	30
