Mass Spectrum: Dodecyl 4-nitrophenyl ether
Formula: C18 H29 N O3
CAS: 65039-18-1
Molecular weight: 307
Origin: NIST Mass Spectrometry Data Center, 1994
m/z	RELATIVE INTENSITY
18	26
26	95
27	1534
28	562
29	3742
30	576
38	158
39	1532
41	8997
42	1412
43	9999
44	381
50	310
51	187
52	155
53	574
54	536
55	5148
56	1808
57	8780
58	400
62	90
63	435
64	430
65	750
66	209
67	633
68	462
69	2938
70	1393
71	4101
72	258
75	365
76	468
77	207
78	238
79	193
80	276
81	535
82	438
83	1779
84	924
85	2296
86	164
91	127
92	369
93	560
94	316
95	153
96	257
97	1640
98	500
99	437
105	51
106	306
107	234
108	442
109	3660
110	469
111	1053
112	318
113	245
122	548
123	1760
124	1056
125	536
126	143
133	124
135	89
139	1267
140	1121
141	614
142	44
168	209
277	411
278	164
290	2359
291	532
292	86
307	616
308	127
309	12
