Mass Spectrum: 9H-Purine, 6-chloro-9-(methoxymethyl)-
Formula: C7 H7 Cl N4 O
CAS: 6504-64-9
Molecular weight: 198
Origin: S. MARKEY UNIV. OF COLO. MED. CTR., DENVER, COLORADO, USA
m/z	RELATIVE INTENSITY
36	600
38	210
39	280
40	60
41	190
44	200
45	9999
46	220
51	430
52	370
53	320
64	140
74	190
75	220
76	190
77	860
78	180
79	560
85	320
86	610
104	410
113	80
119	80
133	300
166	830
167	3250
168	9460
169	1740
170	3080
171	90
198	930
200	310
