Mass Spectrum: Nimorazole
Formula: C9 H14 N4 O3
CAS: 6506-37-2
Molecular weight: 226
Origin: Finnigan MAT: Toxicological Library (LIBR-TX)
m/z	RELATIVE INTENSITY
41	294
42	1148
53	196
54	310
55	403
56	1503
57	107
67	91
68	90
70	211
94	110
98	106
100	9999
101	623
122	211
180	93
