Mass Spectrum: 4,4'-Oxydibenzonitrile
Formula: C14 H8 N2 O
CAS: 6508-04-9
Molecular weight: 220
Origin: NIST Mass Spectrometry Data Center, 1994
m/z	RELATIVE INTENSITY
17	47
18	265
26	119
27	462
28	277
29	28
32	10
37	506
38	495
39	1025
40	67
41	58
49	137
50	1231
51	1986
52	499
53	129
55	29
61	180
62	564
63	1166
64	1329
65	137
66	24
69	119
70	34
73	106
74	607
75	2906
76	1742
77	135
83	651
86	64
87	97
88	192
89	160
90	794
91	263
92	63
93	62
95	34
97	255
99	172
100	149
102	3553
103	273
110	212
113	70
114	81
115	28
117	29
119	688
120	49
127	31
128	20
137	75
138	283
139	152
140	237
141	57
151	27
152	38
153	26
162	22
164	878
165	1316
166	304
167	26
169	22
178	49
179	24
180	36
189	55
191	1185
192	3348
193	658
194	133
220	9999
221	1505
222	141
