Mass Spectrum: Estra-1,3,5(10),7-tetraene-3,17-diol, (17.alpha.)-
Formula: C18 H22 O2
CAS: 651-55-8
Molecular weight: 270
Origin: Div. of Experiment Therapeutics WRAIR, WRAMC, Washington DC 20307
m/z	RELATIVE INTENSITY
41	2894
43	3141
44	944
45	380
50	39
51	570
53	1296
55	2077
57	1082
58	152
60	37
63	401
64	98
65	508
67	769
68	81
69	678
70	56
71	355
75	54
76	429
77	1125
78	288
79	1061
81	1063
82	415
83	260
84	157
85	247
87	132
88	55
89	698
91	1287
92	76
93	567
95	1195
97	837
98	450
99	220
101	134
102	185
103	389
104	352
105	1076
106	180
107	1020
109	274
110	396
111	266
112	83
113	186
114	88
115	2350
116	527
117	450
118	43
119	234
120	705
121	399
122	468
123	314
124	49
126	237
127	974
128	1143
129	659
131	1645
132	725
133	782
134	127
135	175
136	39
139	386
141	1138
142	282
143	90
144	3205
145	2034
146	774
147	900
148	206
149	680
150	217
151	324
152	969
153	921
154	151
155	383
157	5253
158	5742
159	1922
160	1451
161	380
162	37
163	132
165	1120
166	328
167	472
168	322
169	784
170	2520
171	1466
172	614
173	364
174	134
176	148
177	224
178	350
179	406
180	40
181	1023
182	448
183	862
184	655
185	431
186	270
187	40
189	81
191	107
193	230
194	384
195	1002
196	644
197	922
198	505
199	521
200	129
203	40
205	38
207	221
208	125
209	843
210	462
211	2503
212	607
213	704
214	151
221	39
223	541
224	723
225	328
226	1017
227	292
235	163
237	1901
238	386
241	146
242	87
251	277
252	561
253	156
255	191
268	408
269	336
270	9999
271	1694
272	136
