Mass Spectrum: Benzo[c]phenanthrene, 5-methyl-
Formula: C19 H14
CAS: 652-04-0
Molecular weight: 242
m/z	RELATIVE INTENSITY
37	20
38	60
39	280
40	30
41	80
42	30
43	60
44	50
50	150
51	160
52	30
53	20
54	10
55	40
56	40
57	50
58	10
59	10
60	10
61	30
62	110
63	200
64	20
65	20
66	10
67	20
68	20
69	30
70	20
71	30
73	10
74	130
75	130
76	50
77	40
78	20
79	50
80	40
81	30
82	20
83	20
84	20
85	30
86	100
87	150
88	60
89	40
90	10
91	20
92	10
93	50
94	100
95	80
96	10
97	20
98	90
99	80
100	130
101	90
102	20
103	10
104	10
105	40
106	150
107	180
108	160
109	20
110	60
111	70
112	190
113	881
114	80
115	40
116	10
117	20
118	150
119	480
120	861
121	581
122	80
123	30
124	10
125	20
126	40
127	20
128	20
129	10
130	10
131	10
132	10
133	20
134	30
135	30
136	20
137	30
138	30
139	50
140	20
141	20
142	20
143	20
144	20
145	20
146	20
147	20
148	20
149	20
150	70
151	40
152	30
153	20
154	10
155	10
156	10
157	10
158	10
159	20
160	10
161	40
162	30
163	90
164	30
165	50
166	20
167	10
168	10
169	10
170	10
171	10
172	10
173	10
174	60
175	50
176	60
177	20
178	20
179	10
180	10
181	10
182	10
183	10
184	10
185	40
186	50
187	140
188	60
189	140
190	20
191	20
192	10
193	10
194	10
195	10
196	10
197	20
198	30
199	30
200	80
201	30
202	80
203	40
204	10
205	10
206	10
207	10
208	10
209	20
210	20
211	110
212	50
213	310
214	80
215	581
216	110
217	10
218	10
220	10
221	10
222	20
223	30
224	200
225	160
226	1461
227	801
228	160
229	20
230	10
231	10
232	10
233	10
234	10
235	60
236	40
237	420
238	170
239	1501
240	701
241	1952
242	9999
243	2082
244	200
245	30
