Mass Spectrum: 3-Fluorophthalic anhydride
Formula: C8 H3 F O3
CAS: 652-39-1
Molecular weight: 166
Origin: NIST Mass Spectrometry Data Center, 1994
m/z	RELATIVE INTENSITY
12	57
15	1
25	53
26	114
27	25
28	321
29	75
30	1
31	776
32	81
33	57
36	165
37	899
38	361
39	97
40	16
43	48
44	199
45	78
46	16
47	377
48	89
49	413
50	1616
51	425
52	50
53	119
55	143
56	174
57	123
60	145
61	983
62	515
63	393
65	36
68	2373
69	145
71	76
72	75
73	480
74	1379
75	630
76	46
77	114
79	35
80	46
81	79
82	27
91	36
92	488
93	781
94	9999
95	645
96	39
122	8328
123	710
124	43
166	1696
167	146
