Mass Spectrum: Benzamide, 2,3,4,5,6-pentafluoro-
Formula: C7 H2 F5 N O
CAS: 652-31-3
Molecular weight: 211
Origin: J.E. WILKINSON S-CUBED, SAN DIEGO, CA.
m/z	RELATIVE INTENSITY
44	5555
55	137
69	336
74	438
75	35
79	1107
86	422
91	137
93	1976
98	1909
99	1436
105	35
110	117
117	6776
118	376
124	305
129	20
136	16
137	415
148	966
155	356
167	6635
168	1933
176	27
182	39
193	86
195	9999
196	477
211	8559
212	430
