Mass Spectrum: Tetrafluoroterephthalic acid
Formula: C8 H2 F4 O4
CAS: 652-36-8
Molecular weight: 238
Origin: Japan AIST/NIMC Database- Spectrum MS-NW-2524
m/z	RELATIVE INTENSITY
12	149
16	449
17	10
18	30
20	50
24	10
28	789
29	50
31	1599
32	50
36	99
37	199
38	30
43	30
44	9999
45	1789
46	70
47	10
48	40
49	70
50	199
51	119
55	229
56	249
57	99
60	90
61	519
62	139
63	20
65	20
67	30
68	319
69	329
70	10
71	80
72	20
73	50
74	329
75	1429
76	50
77	10
79	819
80	1229
81	3509
82	209
86	289
87	109
88	209
89	20
91	40
92	139
93	429
94	20
95	30
97	10
98	569
99	5329
100	909
101	40
102	20
105	70
106	259
107	20
110	189
111	159
112	30
113	30
115	10
117	359
118	389
119	1189
120	60
124	70
125	10
126	20
127	20
129	329
130	2079
131	349
132	20
136	10
137	239
138	50
141	10
142	10
144	10
145	40
146	389
147	80
148	319
149	4949
150	8289
151	529
152	10
154	50
155	20
157	159
158	30
164	10
165	40
166	109
167	10
173	30
174	689
175	139
176	119
177	5399
178	439
179	30
190	30
192	10
193	299
194	6139
195	479
196	50
218	50
220	50
221	449
222	30
237	30
238	899
239	90
240	10
