Mass Spectrum: p-Mentha-1(7),2-dien-8-ol
Formula: C10 H16 O
CAS: 65293-09-6
Molecular weight: 152
Origin: K. KIMURA, DEP. FOOD & NUTR., JPN WOMEN'S UNIV., TOKYO, JAPAN
m/z	RELATIVE INTENSITY
41	81
43	408
59	9999
60	28
65	52
66	62
67	60
69	77
70	51
71	97
77	219
78	94
79	4420
80	157
81	58
82	34
83	69
84	31
85	68
91	242
92	88
93	379
94	4577
95	216
96	39
97	65
98	31
99	38
105	41
107	35
109	38
111	53
117	28
119	69
125	32
134	40
135	25
137	47
