Mass Spectrum: 2,3,4,5,6-Pentafluorophenylacetonitrile
Formula: C8 H2 F5 N
CAS: 653-30-5
Molecular weight: 207
Origin: Chuck Anderson, Aldrich Chemical Co.
m/z	RELATIVE INTENSITY
18	1
26	65
27	47
28	44
31	1972
32	40
36	40
37	103
38	75
39	62
40	88
50	59
51	275
55	147
56	142
57	105
60	17
61	219
62	145
63	59
64	10
65	31
68	192
69	927
70	17
74	344
75	576
76	49
78	8
79	449
80	317
81	349
82	109
86	302
87	275
88	336
90	83
92	94
93	1650
94	156
98	529
99	761
100	246
103	141
104	571
105	390
106	751
107	72
110	185
111	402
112	341
113	142
117	1484
118	224
119	116
122	62
123	202
124	371
125	11
126	15
129	212
130	1328
131	346
136	141
137	761
138	140
141	249
142	32
143	195
144	62
148	214
150	256
155	573
156	168
157	7694
158	500
160	61
161	2968
162	312
167	51
168	693
169	48
175	144
176	61
179	1132
180	1923
181	3359
182	202
186	209
187	175
188	4647
189	346
205	85
206	2655
207	9999
208	800
209	36
