Mass Spectrum: Bis(diisopropylaminoethyl)disulfide
Formula: C16 H36 N2 S2
CAS: 65332-44-7
Molecular weight: 320
Origin: VERIFIN - Methodology B2-1980
m/z	RELATIVE INTENSITY
27	500
28	100
29	100
30	900
32	70
39	600
41	1901
42	1801
43	1901
44	2201
45	300
46	100
54	200
56	700
58	800
59	300
60	300
61	600
67	200
68	300
69	100
70	3903
71	300
72	1701
73	100
82	70
84	2001
85	400
86	1301
98	600
99	60
100	200
101	90
102	500
112	1201
114	9999
115	400
118	100
127	900
128	200
142	70
144	700
146	100
157	200
159	200
160	70
193	100
