Mass Spectrum: Morazone
Formula: C23 H27 N3 O2
CAS: 6536-18-1
Molecular weight: 377
Origin: Finnigan MAT: Toxicological Library (LIBR-TX)
m/z	RELATIVE INTENSITY
42	707
43	184
51	102
53	98
54	96
56	1921
68	220
70	1287
71	696
77	579
82	199
83	95
91	179
93	107
105	183
110	204
117	105
118	104
151	99
152	508
176	2877
177	402
185	193
186	192
200	285
201	9999
202	2706
203	308
229	98
243	106
257	508
258	1696
259	200
270	96
290	288
291	102
321	98
