Mass Spectrum: o-Toluic acid, pentyl ester
Formula: C13 H18 O2
CAS: 65382-89-0
Molecular weight: 206
Origin: Zaikin V.G., TIPS RAS, Moscow, Russia
m/z	RELATIVE INTENSITY
26	40
27	270
28	10
29	380
36	40
38	30
39	490
40	60
41	721
42	350
43	1571
44	110
50	70
51	170
52	50
53	80
55	460
56	30
62	60
63	300
64	110
65	1371
66	80
69	100
70	480
71	340
75	30
76	30
77	300
78	40
79	160
89	611
90	1091
91	5225
92	581
93	240
105	110
107	30
118	9659
119	9929
120	831
121	70
131	30
133	40
135	540
136	9999
137	3053
138	280
149	70
152	30
206	2873
207	370
208	36
