Mass Spectrum: 1,4-Benzenediol, 2,6-dimethyl-
Formula: C8 H10 O2
CAS: 654-42-2
Molecular weight: 138
Origin: NIST Mass Spectrometry Data Center, 1994
m/z	RELATIVE INTENSITY
4	36
14	30
15	235
18	43
19	84
26	156
27	759
28	190
29	462
30	30
31	77
32	6
37	190
38	640
39	2613
40	638
41	1096
42	206
43	891
44	52
45	87
47	33
48	20
49	49
50	334
51	652
52	305
53	1154
54	245
55	718
56	45
57	16
59	63
60	35
61	105
62	224
63	391
64	143
65	951
66	488
67	1209
68	422
69	980
70	74
71	29
73	32
74	139
75	97
76	29
77	1091
78	236
79	1006
80	219
81	955
82	129
83	120
85	33
86	42
87	30
89	160
91	1853
92	360
93	196
94	519
95	2082
96	283
97	36
98	17
102	24
103	31
105	133
107	477
108	261
109	1281
110	250
111	38
119	299
120	359
121	974
122	38
123	4547
124	367
125	39
135	58
137	3152
138	9999
139	808
140	75
