Mass Spectrum: 5-Amino-2-cyanobenzotrifluoride
Formula: C8 H5 F3 N2
CAS: 654-70-6
Molecular weight: 186
Origin: Japan AIST/NIMC Database- Spectrum MS-IW-5459
m/z	RELATIVE INTENSITY
20	10
26	10
27	30
28	179
31	40
37	70
38	90
39	139
40	50
41	139
42	30
44	30
45	10
46	20
49	10
50	70
51	60
52	159
53	30
54	20
56	20
57	50
58	10
61	70
62	159
63	499
64	219
65	99
66	80
67	20
68	30
69	149
70	70
71	10
72	10
73	10
74	40
75	159
76	50
77	20
78	10
79	20
80	20
81	60
82	60
83	90
84	10
86	20
87	60
88	249
89	149
90	439
91	149
92	70
93	289
94	20
95	20
96	10
98	20
99	70
100	80
101	40
102	20
103	10
106	20
107	10
108	119
109	169
110	10
111	10
112	90
113	119
114	30
115	20
116	219
117	139
118	30
119	20
120	109
121	20
122	10
125	10
126	10
127	30
131	70
132	99
133	20
134	10
135	20
136	949
137	90
138	249
139	2219
140	369
141	30
143	40
144	10
145	70
146	50
147	159
148	10
150	50
157	20
158	129
159	139
160	99
164	10
165	469
166	279
167	1449
168	139
169	10
170	99
171	10
184	10
185	409
186	9999
187	949
188	30
