Mass Spectrum: Quinoline, 6-(1-methylpropyl)-
Formula: C13 H15 N
CAS: 65442-31-1
Molecular weight: 185
Origin: W.Jennings, T.Shibamoto
m/z	RELATIVE INTENSITY
41	70
117	70
127	190
128	390
129	240
130	240
132	70
141	70
142	791
143	70
152	70
153	190
154	1311
155	711
156	9999
157	2192
158	70
168	70
170	591
185	3623
186	490
