Mass Spectrum: 4-Benzyloxyphenyl acetic acid
Formula: C15 H14 O3
CAS: 6547-53-1
Molecular weight: 242
Origin: NIST Mass Spectrometry Data Center, 1994
m/z	RELATIVE INTENSITY
14	9
18	11
26	22
27	84
28	40
29	23
37	12
38	69
39	449
40	55
41	134
42	10
43	38
44	8
45	164
50	169
51	432
52	236
53	92
55	30
61	15
62	65
63	276
64	113
65	1163
66	88
69	9
74	28
75	23
77	403
78	324
79	113
80	11
81	23
89	279
91	9999
92	756
93	28
97	12
99	13
105	29
106	51
107	59
109	129
110	15
115	15
151	14
152	33
153	11
165	28
167	16
181	17
182	13
195	19
196	7
197	27
242	988
243	167
244	14
