Mass Spectrum: Thozalinone
Formula: C11 H12 N2 O2
CAS: 655-05-0
Molecular weight: 204
Origin: Finnigan MAT: Toxicological Library (LIBR-TX)
m/z	RELATIVE INTENSITY
42	473
51	710
63	516
69	973
70	9999
71	808
72	671
77	1010
83	1004
89	1209
90	1056
98	4661
99	785
105	310
113	594
114	285
132	195
204	2671
205	406
