Mass Spectrum: Benzoic acid, 2-(methylamino)-, 2-methylpropyl ester
Formula: C12 H17 N O2
CAS: 65505-24-0
Molecular weight: 207
Origin: W.Jennings, T.Shibamoto
m/z	RELATIVE INTENSITY
28	70
29	1041
30	1041
41	861
43	70
57	641
73	390
77	1121
78	1231
79	851
83	1732
85	70
91	320
92	190
100	70
103	1441
104	4094
105	9999
106	2843
107	290
110	1621
116	290
117	1832
118	190
120	70
123	70
132	3133
133	5915
134	4394
135	490
149	70
150	390
151	8197
152	851
207	5995
208	861
