Mass Spectrum: trans-1,4-Cyclohexanedicarbonitrile
Formula: C8 H10 N2
CAS: 6550-85-2
Molecular weight: 134
Origin: H. SUESS, CIBA-GEIGY AG, MUNCHWILEN, SWITZER
m/z	RELATIVE INTENSITY
41	5800
51	1100
52	1500
53	1400
54	9999
66	2600
67	6000
68	2700
80	2700
81	8400
94	1400
106	1500
107	2000
119	1100
133	1400
134	4300
