Mass Spectrum: 2-Butoxyethyl bromide
Formula: C6 H13 Br O
CAS: 6550-99-8
Molecular weight: 180
Origin: NIST Mass Spectrometry Data Center, 1994
m/z	RELATIVE INTENSITY
12	20
13	47
14	284
15	1157
16	56
17	8
18	38
19	92
26	1236
27	8267
28	2888
29	6088
30	415
31	952
32	7
37	60
38	212
39	1975
40	7
41	5947
42	810
43	1326
44	532
45	599
46	19
49	16
50	63
51	74
52	32
53	154
54	16
55	597
56	4159
57	9999
58	557
59	6
69	46
70	10
71	65
72	9
79	81
80	71
81	98
82	69
83	16
85	15
87	6295
88	351
89	24
91	29
93	358
94	101
95	319
96	56
101	39
104	8
105	50
107	5109
109	4919
110	109
122	20
123	43
124	18
125	44
137	1111
139	1085
140	41
151	34
153	34
180	18
182	16
