Mass Spectrum: 2,2',3,4,4'-Pentachloro-1,1'-biphenyl
Formula: C12 H5 Cl5
CAS: 65510-45-4
Molecular weight: 324
Origin: Organic Synthesis Lab, MSU, Moscow.TRC 1302
m/z	RELATIVE INTENSITY
51	92
61	222
62	169
63	104
71	79
72	83
73	377
74	657
75	335
76	46
79	132
80	97
83	54
84	169
85	212
86	240
87	113
92	409
93	126
95	62
96	150
97	220
98	332
99	306
100	58
102	61
107	77
108	188
109	1021
110	724
111	306
114	92
115	126
116	53
120	119
121	154
122	240
123	245
124	75
127	1482
128	1218
129	410
131	40
132	193
133	251
134	113
135	105
136	46
138	29
144	434
145	492
146	363
147	286
148	230
149	291
150	101
156	95
157	88
158	88
159	55
160	78
161	30
162	266
163	382
164	324
165	112
169	64
170	105
171	84
172	76
174	31
181	77
182	118
183	366
184	1462
185	290
186	512
187	79
193	43
194	92
195	48
196	52
204	84
206	51
207	46
208	29
217	63
218	532
219	506
220	409
221	299
222	104
223	55
228	53
230	51
254	3958
255	710
256	3852
257	580
258	1212
259	191
260	145
288	138
289	1518
290	383
291	1426
292	312
293	921
294	154
295	199
296	50
297	37
324	6256
325	862
326	9999
327	1120
328	5052
329	923
330	1997
331	240
332	267
