Mass Spectrum: 3,4,5-Tris(methylthio)benzotrifluoride
Formula: C10 H11 F3 S3
CAS: 65516-85-0
Molecular weight: 284
Origin: NIST Mass Spectrometry Data Center, 1994
m/z	RELATIVE INTENSITY
13	24
14	28
15	1351
17	91
18	210
35	31
39	60
45	1210
46	479
47	462
48	94
50	61
51	50
57	123
58	59
61	268
62	163
63	228
64	50
69	1004
70	101
71	96
75	193
76	46
77	101
78	34
79	50
80	29
81	218
82	183
83	49
87	109
88	130
89	67
91	44
92	55
93	398
94	208
95	210
96	69
99	68
100	126
101	98
102	27
105	110
106	214
107	150
108	92
109	64
111	60
112	85
113	93
114	65
115	35
117	86
118	50
119	218
120	43
121	204
123	54
124	51
125	182
126	107
127	132
130	31
131	103
132	104
133	92
134	112
135	43
136	26
137	133
138	169
139	179
140	77
141	48
142	148
143	113
144	148
145	246
146	68
151	222
152	101
153	118
154	39
155	36
156	36
157	313
158	75
159	318
163	709
164	99
165	75
169	47
170	100
171	80
173	42
175	80
176	160
177	153
178	39
183	88
184	67
185	63
187	27
188	173
189	439
190	138
191	65
192	44
195	349
197	40
199	41
200	41
201	79
202	192
203	139
204	103
205	247
206	40
207	626
208	268
209	106
215	44
216	30
217	24
219	58
220	263
221	2100
222	4364
223	813
224	426
225	54
233	79
234	91
235	594
236	516
237	204
238	148
239	96
240	29
249	44
251	168
252	446
253	2955
254	2637
255	709
256	336
257	51
265	486
267	565
268	493
269	2164
270	403
271	377
272	45
284	9999
285	1383
286	1365
287	169
288	66
