Mass Spectrum: Hydrocinnamic acid, p-methoxy-.beta.-methyl-, methyl ester
Formula: C12 H16 O3
CAS: 6555-29-9
Molecular weight: 208
m/z	RELATIVE INTENSITY
79	20
85	90
87	30
91	20
101	30
103	30
105	130
118	50
119	10
120	20
121	30
131	110
133	30
134	90
135	9999
136	1001
137	70
148	460
149	60
151	601
177	30
193	210
208	3623
209	500
210	30
