Mass Spectrum: 1-Octadecanol, TBDMS derivative
Formula: C24 H52 O Si
CAS: 65598-00-7
Molecular weight: 384
Origin: NIST Mass Spectrometry Data Center
m/z	RELATIVE INTENSITY
26	10
27	80
28	30
29	320
30	10
31	10
37	10
39	90
40	20
41	901
42	170
43	1601
44	40
45	140
46	10
47	90
48	10
49	20
50	10
53	50
54	100
55	1061
56	210
57	1631
58	180
59	470
60	80
61	480
62	30
63	30
65	20
66	10
67	270
68	110
69	1241
70	110
71	801
72	90
73	1611
74	200
75	7026
76	510
77	400
78	30
79	60
80	20
81	300
82	130
83	1682
84	140
85	741
86	90
87	190
88	120
89	1902
90	160
91	100
92	10
93	30
94	20
95	270
96	90
97	1732
98	130
99	470
100	80
101	771
102	100
103	90
107	20
109	130
110	30
111	861
112	60
113	240
114	50
115	671
116	60
117	90
119	10
121	10
123	50
124	10
125	210
126	30
127	110
128	20
129	260
130	40
131	90
132	20
133	50
135	10
137	30
139	70
140	10
141	60
142	20
143	160
144	10
145	40
148	10
151	10
153	40
154	20
155	30
157	90
158	10
159	10
165	10
167	10
169	20
171	80
172	10
173	20
179	10
181	10
183	10
185	70
186	10
187	10
195	10
199	60
200	10
209	10
211	10
213	60
214	10
227	110
228	30
229	10
241	90
242	20
243	10
244	10
254	10
255	110
256	10
257	10
269	30
270	10
271	10
297	10
311	70
312	20
314	10
317	10
322	10
323	10
324	10
325	40
327	9999
328	2803
329	741
330	110
331	10
341	10
369	70
370	20
383	10
