Mass Spectrum: Silane, dimethyl(octadecyloxy)propyl-
Formula: C23 H50 O Si
CAS: 65597-99-1
Molecular weight: 370
Origin: D.J.HARVEY UNIV. DEPT. OF PHARMACOLOGY, OXFORD, UK
m/z	RELATIVE INTENSITY
40	281
41	121
43	324
55	339
57	2010
59	132
61	278
67	99
69	1296
70	124
71	1367
73	104
75	3516
76	289
77	344
79	127
81	152
83	2496
84	182
85	931
89	1379
90	116
95	99
97	2726
98	223
99	372
101	339
103	223
111	1577
112	144
113	165
115	152
119	106
125	701
129	167
133	109
139	261
153	139
313	157
327	9999
328	2764
329	739
330	129
