Mass Spectrum: Trichloroacetic acid, decyl ester
Formula: C12 H21 Cl3 O2
CAS: 65611-33-8
Molecular weight: 302
Origin: V.G.Zaikin, Petrochem. Synth. Inst., Moscow
m/z	RELATIVE INTENSITY
25	60
26	310
27	1792
28	641
29	2993
30	110
31	50
35	150
36	490
37	150
38	360
39	2122
40	591
41	7717
42	2913
43	9999
44	1221
45	160
47	310
48	80
49	160
50	160
51	200
52	90
53	641
54	781
55	7887
56	5455
57	7497
58	2382
59	110
60	30
61	30
63	120
65	120
66	120
67	941
68	1912
69	5565
70	5455
71	5665
72	290
77	120
79	120
80	90
81	450
82	1591
83	5485
84	3113
85	2893
86	2382
87	1181
88	80
91	120
93	40
95	280
96	390
97	2712
98	1441
99	1111
100	110
105	40
109	80
110	591
111	1071
112	1812
113	320
117	791
118	60
119	781
120	60
121	250
140	611
141	90
