Mass Spectrum: 1-Pentanol, 3,4-dimethyl-
Formula: C7 H16 O
CAS: 6570-87-2
Molecular weight: 116
m/z	RELATIVE INTENSITY
18	500
19	160
27	3293
28	661
29	2702
30	90
31	3213
32	70
33	100
41	5445
42	2442
43	9999
44	540
45	651
46	30
55	7907
56	6186
57	3283
58	140
59	140
60	10
67	110
68	50
69	971
70	6506
71	1591
72	220
73	210
74	30
81	50
82	10
83	1842
84	160
85	170
86	10
87	10
96	10
97	60
98	70
99	40
100	10
101	80
102	10
