Mass Spectrum: 2,3,4-Trimethyl-1-pentanol
Formula: C8 H18 O
CAS: 6570-88-3
Molecular weight: 130
Origin: K.Yu ET AL.,Biomed. Mass Spectrom.,14,639(1987)
m/z	RELATIVE INTENSITY
39	420
40	280
41	2132
42	420
43	3243
45	1852
53	140
55	2552
56	741
57	5695
58	370
59	190
67	90
68	230
69	3563
70	9999
71	4174
72	90
83	1762
84	90
87	190
97	3293
98	190
