Mass Spectrum: Piperidine, 1-(4-nitrophenyl)-
Formula: C11 H14 N2 O2
CAS: 6574-15-8
Molecular weight: 206
Origin: Japan AIST/NIMC Database- Spectrum MS-IW-3771
m/z	RELATIVE INTENSITY
15	20
26	30
27	299
28	229
29	219
30	119
37	20
38	80
39	479
40	70
41	659
42	299
43	99
44	179
46	30
50	409
51	529
52	159
53	159
54	99
55	489
56	109
57	169
58	10
61	10
62	70
63	319
64	209
65	309
66	70
67	90
68	70
69	149
70	50
71	20
72	20
73	10
74	99
75	249
76	759
77	1149
78	519
79	109
80	70
81	20
82	40
83	40
84	99
85	10
88	10
89	139
90	229
91	309
92	349
93	70
94	20
102	119
103	499
104	639
105	289
106	139
107	30
108	40
109	10
115	60
116	60
117	239
118	219
119	539
120	759
121	70
122	40
127	10
128	40
129	60
130	299
131	389
132	209
133	40
134	60
135	20
136	119
137	10
141	10
142	10
143	50
144	129
145	159
146	60
147	40
148	20
149	299
150	1739
151	329
152	30
154	10
155	10
156	30
157	50
158	119
159	1939
160	839
161	109
162	10
163	20
164	30
165	1389
166	129
167	10
173	20
174	40
175	90
176	459
177	389
178	70
189	30
190	259
191	339
192	50
205	9589
206	9999
207	1249
208	109
