Mass Spectrum: 2,4,6-Trichlorobenzonitrile
Formula: C7 H2 Cl3 N
CAS: 6575-05-9
Molecular weight: 205
Origin: NIST Mass Spectrometry Data Center, 1994
m/z	RELATIVE INTENSITY
12	55
14	15
24	38
25	87
26	73
28	154
32	27
35	408
36	437
37	1207
38	385
47	503
48	231
49	835
50	1251
51	118
54	69
59	63
60	631
61	661
62	683
63	332
64	57
67	278
68	118
71	243
72	696
73	1119
74	1178
75	1166
76	127
82	33
83	135
84	933
85	721
86	602
87	357
88	145
89	191
90	174
91	53
94	75
95	116
96	140
97	183
98	572
99	2939
100	1632
101	137
102	53
103	512
105	174
106	77
107	239
108	393
109	839
110	410
111	264
112	102
118	78
119	128
120	117
121	140
122	116
123	30
124	30
131	34
132	52
134	2169
135	527
136	759
137	147
142	37
143	129
144	329
145	176
146	220
147	54
158	69
169	372
170	1780
171	347
172	1095
173	116
174	168
178	63
180	70
205	9999
206	1069
207	9319
208	839
209	3077
210	259
211	327
