Mass Spectrum: Tungsten, pentacarbonyl(pyridazine-N1)-, (OC-6-22)-
Formula: C9 H4 N2 O5 W
CAS: 65761-20-8
Molecular weight: 404
Origin: D.HENNEBERG, MAX-PLANCK INSTITUTE, MULHEIM, WEST GERMANY
m/z	RELATIVE INTENSITY
26	532
27	388
28	9999
29	109
30	20
31	5
34	3
37	17
38	38
39	123
41	65
42	16
44	156
49	29
50	328
51	765
52	528
53	81
54	13
55	7
56	4
57	1
65	6
66	11
67	74
68	5
71	2
72	1
76	4
77	11
78	30
79	12
80	1133
81	69
82	3
91	6
92	4
117	4
131	26
132	26
133	18
145	24
146	23
147	39
159	22
160	22
161	24
173	18
174	30
175	16
182	53
183	30
184	102
185	5
186	52
187	12
188	22
189	12
194	5
195	7
196	8
197	9
198	12
199	14
200	10
201	5
202	4
206	11
207	68
208	489
209	419
210	929
211	252
212	569
213	122
214	107
215	12
220	17
221	19
222	41
223	22
224	40
225	18
226	28
227	14
228	9
231	5
232	11
233	46
234	101
235	1087
236	501
237	937
238	245
239	931
240	220
241	73
242	80
243	9
244	6
245	6
247	12
248	14
249	19
250	11
251	10
252	16
253	10
254	14
255	3
256	9
258	3
259	4
260	15
261	41
262	1199
263	1047
264	1306
265	158
266	1357
267	160
268	164
269	49
270	95
271	6
275	3
276	7
277	3
280	5
282	4
284	5
288	8
289	21
290	746
291	465
292	878
293	98
294	1163
295	104
296	55
297	33
298	38
316	3
317	7
318	35
319	28
320	37
321	15
322	55
323	19
324	11
325	8
326	9
346	290
347	212
348	321
349	42
350	315
351	40
352	35
354	29
371	4
372	5
373	6
374	184
375	116
376	217
377	21
378	202
379	20
380	3
402	221
403	152
404	301
405	31
406	275
407	31
408	4
