Mass Spectrum: 1,2,5-Trithiepane
Formula: C4 H8 S3
CAS: 6576-93-8
Molecular weight: 152
Origin: VERIFINN
m/z	RELATIVE INTENSITY
26	440
27	1712
28	380
32	180
35	190
41	210
45	3363
46	1021
47	631
57	360
58	1541
59	4284
60	4994
61	1201
64	2202
66	220
72	80
73	380
78	1972
79	110
80	170
87	3753
88	220
89	210
92	1621
93	170
96	831
105	671
106	1571
107	110
108	140
119	410
123	60
124	2482
125	90
126	310
152	9999
153	621
154	1291
155	70
156	60
