Mass Spectrum: 3,4-Difluorophenylacetic acid
Formula: C8 H6 F2 O2
CAS: 658-93-5
Molecular weight: 172
Origin: NIST Mass Spectrometry Data Center, 1994
m/z	RELATIVE INTENSITY
12	11
13	13
14	9
17	39
18	39
20	14
26	55
27	69
28	33
29	124
30	9
31	376
33	39
37	92
38	162
39	257
42	37
43	39
44	97
45	531
49	58
50	337
51	533
52	45
53	44
55	26
56	131
57	561
59	18
60	17
61	136
62	206
63	359
68	99
69	87
70	41
73	44
74	168
75	618
76	118
77	556
78	96
79	34
80	122
81	346
82	57
83	87
84	19
85	62
86	60
87	61
88	62
89	28
92	28
93	33
94	37
95	113
96	62
97	33
99	145
101	1283
102	84
105	84
107	644
108	107
109	92
113	37
114	48
115	77
123	21
125	445
127	9999
128	1212
129	55
130	22
141	15
143	21
154	38
172	2316
173	192
174	15
