Mass Spectrum: 2-Propoxy-tetrahydropyran
Formula: C8 H16 O2
CAS: 6581-64-2
Molecular weight: 144
Origin: ASES Database, Dalian Institute, P.R. China
m/z	RELATIVE INTENSITY
27	490
29	580
41	2522
42	490
43	4013
44	800
55	1090
56	3873
57	1391
67	1010
74	490
85	9999
86	990
89	1401
101	490
115	690
143	1291
144	700
