Mass Spectrum: m-Methoxybenzoic acid, phenyl ester
Formula: C14 H12 O3
CAS: 65853-67-0
Molecular weight: 228
Origin: Zaikin V.G., TIPS RAS, Moscow, Russia
m/z	RELATIVE INTENSITY
28	40
63	100
64	160
65	60
76	80
77	571
78	50
79	30
92	581
93	60
94	50
107	1301
108	110
135	9999
136	811
137	70
152	60
228	871
229	140
