Mass Spectrum: 2-Cyclohexylamino-1-phenylethanol
Formula: C14 H21 N O
CAS: 6589-48-6
Molecular weight: 219
Origin: NIST Mass Spectrometry Data Center, 1994
m/z	RELATIVE INTENSITY
14	12
15	83
16	10
17	16
18	64
26	43
27	568
28	1164
29	809
30	9999
31	133
32	28
37	17
39	682
41	1715
42	331
43	405
44	156
49	16
50	156
51	484
52	156
53	308
54	302
55	2051
56	777
57	101
58	21
60	19
61	7
62	19
63	72
64	19
65	136
66	33
67	154
68	356
69	146
70	293
71	19
73	8
74	19
75	37
77	1242
78	302
79	880
80	100
81	140
82	231
83	796
84	63
89	42
91	410
92	43
93	23
94	13
95	9
96	29
97	6
98	20
102	29
103	134
104	93
105	215
106	107
107	206
108	29
109	10
110	50
111	6
112	6360
113	502
114	23
115	18
116	12
117	47
118	89
119	34
120	94
121	12
128	10
129	13
130	23
132	9
136	9
142	13
144	8
158	20
174	12
200	20
201	8
220	8
