Mass Spectrum: 2,4-Dichlorophenyl isothiocyanate
Formula: C7 H3 Cl2 N S
CAS: 6590-96-1
Molecular weight: 203
Origin: NIST Mass Spectrometry Data Center, 1994
m/z	RELATIVE INTENSITY
26	89
28	61
32	404
35	106
36	142
37	657
38	462
39	135
44	390
45	201
47	219
48	84
49	499
50	1026
51	260
52	74
56	51
58	195
59	46
60	260
61	642
62	607
63	517
64	246
65	104
66	92
68	52
69	228
70	595
71	109
72	326
73	995
74	2105
75	1575
76	179
79	370
81	229
82	181
83	277
84	677
85	433
86	263
87	321
88	463
89	94
93	50
94	91
95	82
96	81
97	324
98	201
99	341
100	504
101	669
102	467
103	80
105	57
106	112
107	176
108	220
109	1640
110	367
111	584
112	131
118	61
119	74
120	38
124	602
125	44
126	204
132	127
133	1146
134	147
135	183
136	197
137	39
138	61
142	81
145	1722
146	143
147	1045
148	62
149	141
158	33
159	342
160	42
161	194
167	216
168	1254
169	192
170	479
171	993
172	106
173	623
174	54
175	92
176	115
178	96
203	9999
204	1009
205	6642
206	620
207	1306
208	106
209	53
