Mass Spectrum: 1,3-Dimethylimidazole-2(3H)-thione
Formula: C5 H8 N2 S
CAS: 6596-81-2
Molecular weight: 128
Origin: James Little,Eastman Chem.Co.,Kingsport,TN
m/z	RELATIVE INTENSITY
27	891
40	591
41	921
42	4584
45	881
52	701
54	1031
55	621
58	400
59	661
68	1982
69	1551
70	1061
72	2312
73	370
74	360
82	500
83	781
84	390
86	410
95	3303
96	530
97	200
100	420
112	180
113	991
127	1702
128	9999
129	861
130	480
