Mass Spectrum: o-Phenanthroline
Formula: C12 H8 N2
CAS: 66-71-7
Molecular weight: 180
Origin: Japan AIST/NIMC Database- Spectrum MS-IW-3470
m/z	RELATIVE INTENSITY
26	10
27	20
28	40
37	20
38	40
39	99
49	20
50	249
51	209
52	70
60	10
61	60
62	139
63	559
64	50
65	10
73	20
74	219
75	299
76	529
77	239
78	30
79	10
85	10
86	40
87	70
88	50
89	90
90	899
91	10
97	10
98	80
99	179
100	209
101	169
102	109
103	50
104	10
111	10
112	10
113	20
114	20
122	10
123	20
124	40
125	379
126	369
127	489
128	119
129	229
130	20
140	10
150	20
151	169
152	599
153	989
154	1279
155	139
156	10
177	40
178	10
179	3039
180	9999
181	1389
182	90
