Mass Spectrum: 2-Naphthalenecarboxaldehyde
Formula: C11 H8 O
CAS: 66-99-9
Molecular weight: 156
Origin: Japan AIST/NIMC Database- Spectrum MS-NW-4419
m/z	RELATIVE INTENSITY
26	30
27	109
29	239
36	10
37	99
38	139
39	299
40	10
43	10
44	10
49	80
50	779
51	1219
52	179
53	50
55	20
60	20
61	249
62	419
63	1049
64	619
65	30
67	10
69	20
72	10
73	99
74	929
75	1149
76	549
77	1389
78	309
79	10
84	30
85	109
86	249
87	339
88	50
89	90
90	10
97	50
98	309
99	209
100	169
101	939
102	519
103	40
104	20
109	20
110	30
111	30
113	30
114	10
115	10
120	20
121	20
122	70
123	20
124	10
125	139
126	1779
127	9999
128	2659
129	239
130	10
133	10
137	10
138	10
139	60
140	20
141	20
142	10
153	10
154	80
155	8769
156	9539
157	1099
158	90
