Mass Spectrum: 3-Pyridinol-1-oxide
Formula: C5 H5 N O2
CAS: 6602-28-4
Molecular weight: 111
Origin: Japan AIST/NIMC Database- Spectrum MS-NW-1994
m/z	RELATIVE INTENSITY
12	70
13	50
14	149
15	50
16	50
17	10
18	30
24	30
25	149
26	929
27	1569
28	2129
29	849
30	379
31	40
32	109
33	50
34	20
36	99
37	739
38	1649
39	4609
40	1829
41	1689
42	739
43	299
44	819
45	139
46	20
47	80
48	40
49	179
50	569
51	679
52	489
53	509
54	879
55	3929
56	699
57	219
58	239
59	10
60	20
61	50
62	119
63	179
64	149
65	229
66	719
67	1349
68	1429
69	189
70	30
71	139
72	10
73	10
74	20
75	50
76	129
77	119
78	80
79	90
80	60
81	129
82	539
83	129
84	739
85	40
86	10
89	10
91	30
92	20
93	90
94	659
95	9999
96	609
97	90
98	10
105	20
106	109
107	60
108	10
109	139
110	20
111	9189
112	559
113	40
