Mass Spectrum: 3-Pyridinol, 2-bromo-
Formula: C5 H4 Br N O
CAS: 6602-32-0
Molecular weight: 173
Origin: Japan AIST/NIMC Database- Spectrum MS-IW- 603
m/z	RELATIVE INTENSITY
14	10
15	10
25	20
26	80
27	50
28	169
29	80
32	20
36	20
37	279
38	1099
39	2379
40	259
41	40
42	70
43	20
47	10
49	40
50	80
51	80
52	60
53	70
54	169
55	20
62	20
63	70
64	499
65	2929
66	1679
67	839
68	50
71	20
72	30
73	30
75	40
76	90
77	10
79	40
80	50
81	40
82	50
86	70
87	80
91	50
92	10
93	6029
94	5099
95	319
96	20
106	30
107	10
108	20
117	60
118	20
119	70
120	30
122	10
140	10
144	90
145	70
146	90
147	60
171	20
172	20
173	9999
174	689
175	9759
176	649
177	40
