Mass Spectrum: 2-Butynenitrile, 4,4,4-trifluoro-
Formula: C4 F3 N
CAS: 66051-48-7
Molecular weight: 119
Origin: HCACAV,61(1)357(1978); G. BIERI ET AL
m/z	RELATIVE INTENSITY
31	2000
50	1100
55	400
69	4000
100	9000
119	9999
