Mass Spectrum: 2(3H)-Phenanthrenone, 4,4a,9,10-tetrahydro-4a-methyl-
Formula: C15 H16 O
CAS: 6606-34-4
Molecular weight: 212
Origin: Japan AIST/NIMC Database- Spectrum MS-IW-5460
m/z	RELATIVE INTENSITY
15	10
18	10
26	10
27	239
28	80
29	50
31	10
38	30
39	389
40	40
41	379
42	20
43	70
50	129
51	399
52	109
53	209
54	10
55	369
56	20
57	249
58	40
61	10
62	99
63	429
64	399
65	289
66	40
67	80
68	10
69	209
70	779
71	189
74	99
75	199
76	769
77	1259
78	399
79	70
80	10
81	169
82	289
83	279
84	179
85	30
86	50
87	99
88	70
89	339
90	70
91	879
92	1019
93	30
95	10
97	20
98	40
99	30
100	20
101	80
102	169
103	139
104	40
105	50
106	50
110	10
111	10
113	80
114	60
115	1849
116	319
117	199
118	30
119	20
125	20
126	129
127	509
128	1869
129	1289
130	279
131	219
132	20
137	20
138	30
139	439
140	209
141	4489
142	1029
143	279
144	199
145	30
149	10
150	50
151	209
152	969
153	1239
154	1109
155	3769
156	889
157	339
158	50
159	10
162	10
163	90
164	99
165	649
166	279
167	809
168	319
169	4919
170	6039
171	829
172	50
176	30
177	40
178	229
179	749
180	129
181	279
182	419
183	2469
184	3099
185	429
186	40
189	10
191	10
192	20
193	20
194	80
195	179
196	109
197	9999
198	1549
199	229
200	20
210	159
211	80
212	8499
213	1429
214	259
215	30
