Mass Spectrum: Hexamethylcyclotriphosphazene
Formula: C6 H18 N3 P3
CAS: 6607-30-3
Molecular weight: 225
Origin: P. HARRIS,DEP. CHEM.,VIRGINIA POLYTECH. INST.,BLACKSBURG,USA
m/z	RELATIVE INTENSITY
60	116
61	229
74	136
75	91
76	125
89	85
90	96
91	131
92	134
105	156
106	600
120	98
121	206
122	435
135	195
136	252
150	135
165	54
166	61
180	551
195	79
196	136
210	9999
211	738
212	49
224	133
225	933
226	75
