Mass Spectrum: Heptane, 1-fluoro-
Formula: C7 H15 F
CAS: 661-11-0
Molecular weight: 118
m/z	RELATIVE INTENSITY
15	80
26	130
27	2402
28	591
29	4014
30	90
31	20
32	10
33	380
36	10
37	20
38	80
39	1692
40	280
41	7867
42	3523
43	9579
44	330
45	80
46	150
47	1581
48	40
49	10
50	60
51	160
52	40
53	380
54	500
55	3954
56	9999
57	6336
58	270
59	761
60	160
61	621
62	30
63	20
65	40
66	10
67	150
68	460
69	6126
70	4684
71	751
72	40
73	170
74	440
75	430
76	20
77	20
78	10
79	20
81	30
82	20
83	781
84	60
85	60
86	10
87	10
88	220
89	140
90	10
91	40
92	20
93	10
97	50
98	210
99	20
116	10
117	10
118	10
