Mass Spectrum: 1,2-Dichlorohexafluoropropane
Formula: C3 Cl2 F6
CAS: 661-97-2
Molecular weight: 220
Origin: NIST Mass Spectrometry Data Center
m/z	RELATIVE INTENSITY
12	50
18	10
19	40
20	10
24	30
31	2562
35	460
36	40
37	140
43	80
47	410
49	150
50	510
55	50
59	20
61	10
62	130
66	460
69	5225
70	60
74	110
78	110
80	30
81	120
82	50
85	9999
87	2983
88	20
93	220
94	10
97	120
100	731
101	340
103	190
105	30
109	10
112	30
113	40
116	641
118	200
119	10
131	250
132	80
135	500
136	10
137	170
147	30
149	10
150	40
151	110
153	70
155	10
166	10
185	1631
186	60
187	500
188	10
201	100
203	50
