Mass Spectrum: (Trifluoromethyl)acetylene
Formula: C3 H F3
CAS: 661-54-1
Molecular weight: 94
m/z	RELATIVE INTENSITY
12	651
13	200
19	120
20	20
24	500
25	701
31	3693
32	140
33	20
36	260
37	170
38	30
43	60
44	581
45	20
50	330
51	60
55	540
56	941
57	40
62	10
63	10
64	20
69	2262
70	30
74	601
75	7387
76	240
93	771
94	9999
95	360
96	10
