Mass Spectrum: Behenic alcohol
Formula: C22 H46 O
CAS: 661-19-8
Molecular weight: 326
Origin: Japan AIST/NIMC Database- Spectrum MS-NW-6052
m/z	RELATIVE INTENSITY
15	30
17	10
18	30
26	30
27	899
28	209
29	2879
30	70
31	1099
32	10
36	10
38	10
39	649
40	159
41	6999
42	1709
43	9999
44	389
45	159
46	10
49	10
50	10
51	20
52	20
53	369
54	999
55	8879
56	3619
57	8959
58	419
59	30
61	10
63	10
65	60
66	189
67	1489
68	3369
69	7019
70	3319
71	4279
72	269
73	139
74	10
77	50
78	20
79	129
80	99
81	1039
82	4939
83	8059
84	2439
85	2589
86	189
87	30
91	30
92	10
93	40
94	50
95	689
96	2149
97	7219
98	1759
99	809
100	60
101	10
105	10
106	10
107	20
108	30
109	329
110	929
111	4079
112	1349
113	539
114	40
115	10
121	10
122	30
123	209
124	649
125	2409
126	1019
127	369
128	40
136	20
137	139
138	499
139	1349
140	749
141	269
142	30
151	50
152	359
153	889
154	589
155	199
156	20
165	30
166	289
167	639
168	469
169	149
170	20
179	20
180	229
181	469
182	389
183	129
184	20
193	10
194	199
195	359
196	329
197	99
198	10
207	10
208	169
209	269
210	259
211	70
212	10
219	10
221	10
222	129
223	209
224	269
225	90
226	10
236	109
237	169
238	209
239	99
240	20
249	10
250	80
251	129
252	179
253	40
264	50
265	90
266	90
267	30
278	50
279	80
280	669
281	159
282	20
293	10
294	10
306	139
307	40
308	1809
309	469
310	60
311	10
324	10
325	20
326	10
