Mass Spectrum: 1,2-Dibromohexafluoropropane
Formula: C3 Br2 F6
CAS: 661-95-0
Molecular weight: 308
Origin: Thomas J.Bruno
m/z	RELATIVE INTENSITY
31	5575
50	890
69	9028
81	1331
93	960
100	2522
129	6916
131	6966
150	280
160	1050
162	940
179	580
181	520
191	410
193	220
229	9999
231	9528
308	100
310	210
312	100
