Mass Spectrum: 4-Dichloromethyl-4-methyl-2,5-cyclohexadien-1-one
Formula: C8 H8 Cl2 O
CAS: 6611-78-5
Molecular weight: 190
Origin: NIST Mass Spectrometry Data Center, 1994
m/z	RELATIVE INTENSITY
12	44
13	116
14	123
15	674
16	38
17	21
18	64
25	147
26	1368
27	1943
28	143
33	90
35	231
36	186
37	614
38	1402
39	4317
40	477
41	383
42	79
43	132
44	74
45	103
46	66
47	315
48	388
49	727
50	2666
51	3680
52	1300
53	1350
54	132
55	114
56	27
60	136
61	512
62	863
63	1641
64	402
65	2392
66	287
67	42
68	27
72	68
73	563
74	419
75	860
76	27
77	7942
78	1255
79	4904
80	376
81	35
82	27
83	921
84	107
85	835
86	224
87	258
88	73
89	390
90	35
91	4851
92	757
93	57
97	51
98	29
99	189
101	279
102	46
103	83
105	55
107	9999
108	1559
109	157
110	29
111	497
112	464
113	206
114	147
119	156
120	92
121	43
125	222
126	239
127	1879
128	221
129	751
130	60
131	49
147	33
155	3948
156	402
157	1244
158	103
175	40
190	704
191	62
192	463
193	40
194	77
195	6
