Mass Spectrum: 2H-1-Benzopyran-2-one, 7-methoxy-8-(3-methylbutyl)-
Formula: C15 H18 O3
CAS: 6619-22-3
Molecular weight: 246
m/z	RELATIVE INTENSITY
90	304
91	435
92	261
102	261
103	783
104	261
105	261
115	435
117	348
118	348
119	261
128	304
131	3565
132	739
133	304
147	348
148	261
149	522
159	652
160	348
161	435
162	522
163	304
175	391
176	2174
177	783
178	348
188	348
189	9999
190	2174
191	956
192	348
203	739
215	217
246	3913
247	739
248	348
