Mass Spectrum: 2-Heptene, 4-methyl-, (E)-
Formula: C8 H16
CAS: 66225-17-0
Molecular weight: 112
Origin: NIST Mass Spectrometry Data Center, 1990.
m/z	RELATIVE INTENSITY
26	114
27	1090
28	411
29	681
39	2168
41	5585
42	731
43	477
44	105
50	134
51	293
52	140
53	853
55	4944
56	795
57	102
63	108
65	254
66	135
67	1072
69	9999
70	3590
71	193
77	140
79	144
81	124
83	713
84	349
97	470
112	1759
113	161
