Mass Spectrum: Benzoic acid, 2-[(phenylmethyl)amino]-
Formula: C14 H13 N O2
CAS: 6622-55-5
Molecular weight: 227
Origin: Japan AIST/NIMC Database- Spectrum MS-IW-4710
m/z	RELATIVE INTENSITY
17	40
18	239
27	60
28	149
29	10
30	10
37	10
38	50
39	449
40	40
41	129
42	10
43	10
44	99
45	20
50	149
51	539
52	139
53	50
54	10
55	10
57	10
61	10
62	60
63	309
64	169
65	1719
66	139
67	10
69	10
71	10
74	50
75	99
76	339
77	1329
78	369
79	239
80	20
81	10
82	10
83	20
86	10
87	10
88	10
89	399
90	429
91	9999
92	1149
93	249
94	20
97	10
101	20
102	70
103	149
104	739
105	799
106	7299
107	609
108	20
113	99
114	20
115	30
116	10
117	10
118	10
119	379
120	229
121	189
122	70
123	10
125	10
126	30
127	60
128	30
129	10
130	179
131	20
132	1509
133	159
134	10
135	10
137	99
138	10
139	10
140	10
141	10
146	10
148	40
149	159
150	429
151	179
152	469
153	209
154	50
155	10
163	10
164	10
165	99
166	40
167	70
168	20
177	20
178	90
179	139
180	2829
181	1099
182	419
183	339
184	40
193	30
194	20
195	10
196	80
197	20
206	50
207	20
208	2569
209	919
210	229
211	30
223	20
224	50
225	119
226	1569
227	9339
228	1479
229	149
230	10
