Mass Spectrum: 2,3-Pentanediol, 2,4-dimethyl-
Formula: C7 H16 O2
CAS: 66225-53-4
Molecular weight: 132
Origin: J.T. CLERC, ORGANIC CHEM. LAB., ETH, ZURICH, SWITZ.
m/z	RELATIVE INTENSITY
17	790
28	1360
29	2442
30	92
31	1290
39	1152
40	276
41	6681
42	369
43	8755
44	369
45	2304
53	276
55	6681
56	9999
57	6359
58	230
59	2673
61	184
67	369
69	461
70	230
71	4239
72	875
73	5069
74	184
83	875
84	92
85	3732
86	92
89	184
97	184
98	276
103	2534
111	276
129	369
130	138
