Mass Spectrum: Pentyl acetoacetate
Formula: C9 H16 O3
CAS: 6624-84-6
Molecular weight: 172
Origin: Japan AIST/NIMC Database- Spectrum MS-NW-4037
m/z	RELATIVE INTENSITY
13	20
14	70
15	469
16	20
18	40
19	10
25	20
26	169
27	1119
28	339
29	1419
30	40
31	679
32	80
36	10
37	30
38	80
39	639
40	139
41	1909
42	2609
43	9999
44	339
45	119
50	30
51	30
52	20
53	99
54	50
55	2259
56	279
57	349
58	769
59	109
60	829
61	779
62	20
63	10
65	10
67	40
68	40
69	499
70	4029
71	1179
72	70
73	209
74	30
75	10
77	10
84	649
85	3399
86	189
87	169
88	20
96	10
97	40
98	10
100	30
101	30
102	429
103	2839
104	139
105	40
112	30
113	20
115	80
116	10
120	20
129	20
130	80
131	10
140	10
143	30
144	10
154	20
157	20
172	50
