Mass Spectrum: Hexanoic acid, 1-methylhexyl ester
Formula: C13 H26 O2
CAS: 6624-58-4
Molecular weight: 214
Origin: FOOD RESEARCH REPORT 122, K.E. MURRAY & COLLEAGUES, DIV OF FOOD RESEARCH, CSIRO, AUSTRALIA
m/z	RELATIVE INTENSITY
26	200
27	4500
29	6800
30	200
31	100
38	100
39	2500
40	500
41	9100
42	3600
43	9999
45	1200
50	100
51	200
53	600
54	600
55	6600
56	8900
57	9200
58	700
59	300
60	4100
61	1100
67	200
68	400
69	3600
70	3300
71	4600
72	300
73	1500
74	200
75	100
81	200
83	600
87	700
89	200
97	300
98	5200
99	8600
100	1400
101	200
114	500
115	700
116	2000
117	3500
118	300
143	1100
144	100
