Mass Spectrum: Propanamide, 2,2-dimethyl-N-phenyl-
Formula: C11 H15 N O
CAS: 6625-74-7
Molecular weight: 177
Origin: NIST Mass Spectrometry Data Center, 1994
m/z	RELATIVE INTENSITY
12	16
13	14
14	24
15	277
16	18
17	5
18	30
26	70
27	794
28	339
29	2021
30	40
37	83
38	340
39	2445
40	423
41	3581
42	362
43	43
44	18
45	12
46	7
50	244
51	771
52	212
53	152
54	86
55	259
56	7
57	9999
58	450
61	27
62	76
63	333
64	380
65	1477
66	823
67	83
68	16
69	124
70	51
71	9
73	22
74	94
75	33
76	9
77	1030
78	107
79	26
80	10
83	18
85	607
86	34
88	9
89	14
90	42
91	289
92	962
93	6108
94	537
95	27
103	8
104	19
105	13
106	51
115	21
116	9
117	32
118	60
119	271
120	351
121	171
122	26
128	9
130	10
132	17
134	522
135	108
136	10
144	8
146	21
160	11
162	32
177	2853
178	384
179	25
