Mass Spectrum: 4,6-Decadiyne-3,8-diol, 3,8-dimethyl-
Formula: C12 H18 O2
CAS: 6626-33-1
Molecular weight: 194
Origin: NIST Mass Spectrometry Data Center, 1990.
m/z	RELATIVE INTENSITY
14	131
15	257
16	22
18	73
25	57
26	228
27	1070
28	1018
29	1301
31	76
32	130
37	95
38	108
39	540
40	131
41	391
42	57
43	9999
44	304
45	107
48	63
49	257
50	604
51	448
52	111
53	309
54	63
55	612
56	57
57	1010
61	93
62	202
63	437
64	102
65	228
66	77
67	226
69	154
72	491
73	124
74	242
75	235
76	129
77	1005
78	270
79	419
80	71
81	176
82	71
83	312
89	122
90	52
91	398
92	52
93	1862
94	165
95	210
103	219
104	160
105	248
106	51
107	354
108	108
109	90
115	119
117	75
119	121
121	143
122	100
123	348
127	55
128	142
133	243
134	93
135	150
136	107
137	177
147	343
148	63
151	82
158	82
161	166
165	1675
166	201
