Mass Spectrum: 4-Bromo-3-chlorotoluene
Formula: C7 H6 Br Cl
CAS: 6627-51-6
Molecular weight: 204
Origin: NIST Mass Spectrometry Data Center, 1994
m/z	RELATIVE INTENSITY
15	168
25	58
26	468
27	687
35	202
36	208
37	932
38	1109
39	2922
40	298
41	95
42	58
43	960
44	2531
47	92
48	108
49	829
50	1999
51	1246
52	143
53	73
60	331
61	1431
62	3127
63	5510
64	878
65	312
71	74
72	308
73	1281
74	1039
75	1067
76	108
77	61
78	61
79	359
80	120
81	379
82	98
83	61
84	1219
85	1359
86	942
87	866
88	61
89	7225
90	2723
91	224
93	49
95	46
96	107
97	416
98	46
99	1475
100	108
101	451
102	192
103	218
104	89
110	70
116	90
117	163
118	60
119	146
123	422
124	1079
125	9999
126	1136
127	3110
128	283
129	58
141	89
143	138
151	66
153	56
169	3383
171	3283
172	265
179	83
203	606
204	5079
205	1136
206	6446
207	717
208	1574
209	140
