Mass Spectrum: 2-Cyclohexene-1-methanol, 2,6,6-trimethyl-
Formula: C10 H18 O
CAS: 6627-74-3
Molecular weight: 154
Origin: NIST Mass Spectrometry Data Center
m/z	RELATIVE INTENSITY
26	10
27	280
29	340
31	230
38	40
39	921
40	210
41	2072
42	200
43	1461
44	80
45	30
50	80
51	370
52	160
53	981
54	150
55	1812
56	561
57	861
58	40
61	10
62	30
63	140
64	50
65	851
66	210
67	1912
68	480
69	4134
70	1381
71	260
74	20
75	20
76	10
77	1491
78	250
79	2012
80	721
81	6696
82	530
83	1932
84	160
85	80
89	40
90	10
91	1712
92	841
93	3013
94	811
95	1451
96	150
97	430
98	400
99	40
102	20
103	150
104	40
105	901
106	210
107	1241
108	631
109	731
110	130
115	30
117	20
119	140
120	40
121	5955
122	641
123	9999
124	1031
125	70
128	10
136	1882
137	130
138	20
139	611
140	60
154	831
155	70
