Mass Spectrum: 6-Ethoxyquinaldine
Formula: C12 H13 N O
CAS: 6628-28-0
Molecular weight: 187
Origin: Japan AIST/NIMC Database- Spectrum MS-NW-9293
m/z	RELATIVE INTENSITY
15	20
18	20
26	40
27	349
28	60
29	289
30	10
31	50
37	10
38	60
39	299
40	20
41	30
42	20
43	30
44	10
45	30
46	10
50	169
51	409
52	239
53	129
54	20
55	20
57	30
61	20
62	149
63	419
64	109
65	129
66	30
70	30
71	10
74	99
75	149
76	169
77	899
78	229
79	50
80	70
81	10
86	30
87	50
88	80
89	419
90	119
91	50
92	40
93	10
98	10
99	20
100	30
101	90
102	249
103	949
104	219
105	50
106	20
108	30
109	20
113	50
114	90
115	409
116	209
117	60
118	20
120	10
127	40
128	179
129	119
130	2029
131	929
132	209
133	99
134	10
136	20
137	20
140	109
141	70
142	149
143	99
144	369
145	60
156	40
157	40
158	1019
159	9999
160	1119
161	80
165	10
172	60
173	10
185	10
186	80
187	4909
188	689
189	50
