Mass Spectrum: Cyclohexanamine, N-2-propenyl-
Formula: C9 H17 N
CAS: 6628-00-8
Molecular weight: 139
Origin: Chuck Anderson, Aldrich Chemical Co.
m/z	RELATIVE INTENSITY
15	41
18	21
26	49
27	450
28	918
29	436
30	818
31	12
37	5
38	33
39	906
40	113
41	2632
42	351
43	301
44	73
50	16
51	52
52	43
53	199
54	450
55	785
56	918
57	87
58	87
65	43
66	23
67	309
68	1526
69	251
70	392
71	28
77	96
78	11
79	312
80	235
81	392
82	1194
83	1327
84	98
91	6
93	16
94	271
96	9999
97	597
98	138
99	5
108	26
110	525
111	43
112	94
122	9
124	132
125	6
136	1
138	105
139	1083
140	110
