Mass Spectrum: 2-Methyl-4-decanone
Formula: C11 H22 O
CAS: 6628-25-7
Molecular weight: 170
Origin: NIST Mass Spectrometry Data Center, 1990.
m/z	RELATIVE INTENSITY
15	62
27	1363
28	558
29	1813
30	61
31	68
32	27
39	1345
41	5361
42	1309
43	6750
44	237
45	81
51	81
53	326
54	143
55	1431
56	807
57	9999
58	7068
59	721
65	48
67	211
68	255
69	643
70	164
71	929
72	760
79	71
81	95
83	133
85	9999
86	693
95	399
97	52
100	1583
101	444
113	4863
114	420
127	158
128	181
155	454
170	257
