Mass Spectrum: 4-Aminoquinaldine
Formula: C10 H10 N2
CAS: 6628-04-2
Molecular weight: 158
Origin: NIST Mass Spectrometry Data Center, 1990.
m/z	RELATIVE INTENSITY
15	60
26	80
27	157
28	50
29	40
30	155
37	134
38	195
39	589
40	127
41	173
42	317
43	35
49	40
50	374
51	524
52	330
53	71
54	107
57	30
58	38
61	103
62	277
63	646
64	257
65	489
66	457
67	154
71	36
73	44
74	210
75	421
76	407
77	600
78	271
79	353
85	36
86	49
87	102
88	246
89	1123
90	433
91	202
92	443
93	135
100	70
101	201
102	379
103	567
104	535
105	172
113	80
114	221
115	267
116	1269
117	461
118	355
119	522
120	50
127	35
128	175
129	324
130	2253
131	623
132	120
139	45
140	247
141	157
142	218
143	391
144	35
155	165
157	1873
158	9999
159	1211
160	90
