Mass Spectrum: Cyclohexanol, 2-chloro-, trans-
Formula: C6 H11 Cl O
CAS: 6628-80-4
Molecular weight: 134
Origin: A.CAMBON LAB. OF STRUCTURAL CHEM., UNIV. OF NICE, NICE, FRANCE
m/z	RELATIVE INTENSITY
28	1000
29	500
39	800
41	1600
42	700
44	700
45	1400
54	5600
55	900
56	100
57	9999
58	400
67	500
69	1100
79	400
80	3200
81	2100
88	1300
90	400
98	1200
99	200
116	500
118	100
134	2700
136	700
