Mass Spectrum: 2,2',5,5'-Tetramethyldiphenylsulfone
Formula: C16 H18 O2 S
CAS: 6632-44-6
Molecular weight: 274
Origin: V.A.Korolev, Moscow, Russia
m/z	RELATIVE INTENSITY
38	146
39	2274
40	303
41	446
43	81
45	420
48	59
50	545
51	2123
52	767
53	1265
55	59
62	234
63	1420
64	333
65	1685
66	207
74	185
75	251
76	499
77	6371
78	5028
79	4942
80	320
89	764
90	246
91	4074
92	1217
93	272
101	104
102	950
103	5054
104	4147
105	5499
106	2851
107	144
110	74
115	140
117	161
118	4500
119	323
121	710
122	127
123	364
125	2916
127	80
128	89
133	136
135	166
139	65
150	99
151	5407
152	340
153	463
165	3306
166	532
167	683
168	75
178	2189
179	3462
180	4409
181	921
182	53
193	4921
194	191
195	5092
196	74
206	436
207	459
208	7173
209	704
210	267
225	1032
226	108
227	65
238	98
239	4103
240	513
241	3104
242	352
255	184
256	3148
257	2101
258	255
259	5429
260	1021
261	361
262	49
273	215
274	9999
275	1890
276	650
277	97
