Mass Spectrum: Flutolanil
Formula: C17 H16 F3 N O2
CAS: 66332-96-5
Molecular weight: 323
Origin: Richard Turcotte. Direction des laboratoires d'expertises et d'analyses alimentaires, Quebec, Canada.
m/z	RELATIVE INTENSITY
41	210
42	30
43	210
44	20
50	40
51	50
52	70
53	70
57	20
62	20
63	80
64	90
65	70
68	30
69	20
74	20
75	120
76	40
78	20
79	30
80	70
81	140
83	20
91	40
92	50
93	30
94	20
95	250
96	20
99	20
107	30
108	30
109	130
110	70
119	30
125	190
126	150
127	20
130	20
135	40
143	30
144	70
145	2742
146	200
152	50
154	40
172	70
173	9999
174	841
175	50
184	30
212	20
232	20
242	20
252	90
260	20
261	70
262	30
280	20
281	1802
282	280
283	30
304	70
308	20
323	1121
324	210
325	20
