Mass Spectrum: 2-Amino-4-methyl-3-nitropyridine
Formula: C6 H7 N3 O2
CAS: 6635-86-5
Molecular weight: 153
Origin: Div. of Experiment Therapeutics WRAIR, WRAMC, Washington DC 20307
m/z	RELATIVE INTENSITY
41	802
42	455
43	1685
44	154
46	172
49	155
50	696
51	1628
52	2447
53	7594
54	813
55	211
56	69
61	80
62	226
63	787
64	561
65	1003
66	912
67	528
68	422
69	106
70	55
75	88
76	196
77	77
78	1089
79	745
80	9030
81	1872
82	203
84	17
90	104
91	104
92	513
93	531
94	343
95	511
96	187
105	620
106	393
107	1262
108	744
109	921
110	20
111	19
118	69
119	118
123	87
136	8307
137	441
153	9999
154	1094
155	94
