Mass Spectrum: Ranitidine
Formula: C13 H22 N4 O3 S
CAS: 66357-35-5
Molecular weight: 314
Origin: Finnigan MAT: Toxicological Library (LIBR-TX)
m/z	RELATIVE INTENSITY
56	5783
58	8254
81	2676
84	2653
85	2767
94	7869
95	3032
97	5122
108	1586
110	7031
117	1751
125	4898
130	6305
131	5646
137	9999
138	5522
139	1692
151	1642
152	3896
160	7115
168	3525
169	6099
176	1967
191	615
192	501
195	672
213	268
223	1518
224	1224
225	393
234	483
236	1162
237	254
252	252
254	1646
255	224
266	956
267	1268
269	5036
279	374
281	418
284	368
297	9155
298	1111
299	392
314	3669
315	493
