Mass Spectrum: 2-Nitrobenzaldoxime
Formula: C7 H6 N2 O3
CAS: 6635-41-2
Molecular weight: 166
Origin: Japan AIST/NIMC Database- Spectrum MS-NW-9889
m/z	RELATIVE INTENSITY
16	20
26	60
27	369
28	619
29	129
30	769
31	10
36	10
37	189
38	369
39	2259
40	139
41	289
42	30
43	40
44	139
45	40
46	30
48	10
49	90
50	1859
51	2279
52	1179
53	439
54	40
55	40
60	10
61	119
62	409
63	1409
64	1539
65	3599
66	349
67	40
68	20
73	70
74	479
75	1259
76	2569
77	1599
78	2109
79	1949
80	249
81	60
85	20
86	70
87	90
88	179
89	429
90	999
91	2499
92	1199
93	389
94	30
99	40
100	30
101	30
102	1889
103	779
104	669
105	659
106	80
107	129
108	50
117	20
118	249
119	469
120	90
121	40
132	269
133	60
134	499
135	9999
136	1619
137	139
138	10
148	299
149	409
150	50
166	1529
167	339
168	30
