Mass Spectrum: 2-Chloro-3-pyridinol
Formula: C5 H4 Cl N O
CAS: 6636-78-8
Molecular weight: 129
Origin: NIST Mass Spectrometry Data Center
m/z	RELATIVE INTENSITY
11	40
12	200
13	90
14	520
15	40
16	70
17	240
18	220
25	130
26	981
27	731
28	420
29	961
31	100
33	50
35	571
36	470
37	2482
38	6276
39	6406
40	841
41	40
42	290
44	50
47	771
48	140
49	811
50	751
51	470
52	80
53	470
54	120
62	530
63	561
64	2402
65	8538
66	1692
67	1031
72	30
73	701
74	260
75	581
76	420
93	9999
94	891
100	160
129	9869
130	791
131	3303
