Mass Spectrum: 7-Nitro-3,4-benzocoumarin
Formula: C13 H7 N O4
CAS: 6638-64-8
Molecular weight: 241
Origin: Japan AIST/NIMC Database- Spectrum MS-NW-6747
m/z	RELATIVE INTENSITY
16	10
26	60
27	99
28	99
29	20
30	599
36	10
37	139
38	309
39	709
40	40
41	40
43	30
44	30
45	10
46	99
49	70
50	629
51	589
52	99
53	189
54	10
55	139
56	189
57	40
58	10
60	20
61	319
62	899
63	1769
64	189
65	369
66	50
67	70
68	70
69	2079
70	289
71	10
72	10
73	109
74	929
75	919
76	259
77	329
78	30
79	20
82	10
83	99
84	40
85	269
86	839
87	1119
88	569
89	1419
90	129
91	259
92	199
93	20
97	159
98	469
99	329
100	169
101	689
102	109
103	20
104	20
105	20
108	10
109	109
110	299
111	409
112	219
113	1129
114	229
115	50
116	20
117	10
120	20
121	20
122	50
123	40
124	30
125	50
126	369
127	1489
128	189
129	179
130	30
131	10
132	20
133	20
134	50
135	20
136	20
137	769
138	1269
139	9999
140	1309
141	90
142	20
143	10
144	10
145	10
146	10
147	10
148	10
149	20
150	80
151	40
152	20
153	70
154	70
155	1029
156	149
157	20
158	20
159	10
160	10
161	10
162	10
163	10
164	10
165	10
166	139
167	5729
168	809
169	80
170	10
173	10
174	10
177	10
179	10
180	20
181	20
182	30
183	4629
184	659
185	70
186	20
187	10
189	10
193	10
194	70
195	1069
196	189
197	30
205	10
207	10
209	30
210	10
211	909
212	159
213	30
217	10
219	10
225	109
226	20
240	50
241	9899
242	1499
243	209
244	20
245	10
