Mass Spectrum: Chloranthalactone A
Formula: C15 H16 O2
CAS: 66395-02-6
Molecular weight: 228
Origin: J. KAWABATA, DEP. AGRIC. CHEM., HOKKAIDO UNIV., SAPPORO, JAP
m/z	RELATIVE INTENSITY
39	1149
41	1428
53	1541
77	1671
79	1216
81	1224
91	9999
105	2333
115	1221
117	1289
118	1146
119	2588
129	1178
131	1190
142	1453
157	1871
159	1180
161	2234
174	1207
175	1164
185	2127
199	1229
200	8713
213	4276
228	1404
