Mass Spectrum: Carbamic acid, dimethyl-, 2,4-dichlorophenyl ester
Formula: C9 H9 Cl2 N O2
CAS: 6639-32-3
Molecular weight: 233
Origin: NIST Mass Spectrometry Data Center, 1994
m/z	RELATIVE INTENSITY
12	7
13	11
14	46
15	1405
16	12
17	7
18	911
19	4
25	7
26	5
27	41
28	388
30	11
35	18
36	29
37	107
38	106
39	41
40	44
41	76
42	883
43	209
44	125
47	31
48	12
49	65
50	50
51	23
53	43
54	7
56	376
57	19
60	27
61	100
62	196
63	402
64	26
65	13
66	6
72	9999
73	673
74	145
75	202
76	12
77	7
83	65
84	48
85	60
86	20
87	15
96	17
97	94
98	49
99	39
100	14
107	72
109	147
110	25
111	46
112	8
113	5
126	23
128	9
133	256
135	175
136	9
137	27
141	6
145	73
146	8
147	52
149	9
161	57
162	37
163	40
164	26
165	7
175	8
177	6
182	4
186	4
189	8
191	7
198	508
199	55
200	171
201	17
233	6
235	5
