Mass Spectrum: O-Methyl-N-methylcarbamate
Formula: C3 H7 N O2
CAS: 6642-30-4
Molecular weight: 89
Origin: A.Pleshkova, Nesmeyanov Inst.Org.Elem.Cpds, Moscow
m/z	RELATIVE INTENSITY
27	3483
28	961
29	1631
30	360
41	360
42	180
43	2522
44	240
56	250
57	9999
58	2642
59	100
74	4134
75	160
89	6366
90	240
91	30
