Mass Spectrum: Methyl ethylphosphonofluoridate
Formula: C3 H8 F O2 P
CAS: 665-03-2
Molecular weight: 126
Origin: VERIFIN - Methodology B1-1979
m/z	RELATIVE INTENSITY
26	100
27	400
29	800
31	1101
32	600
41	100
47	300
49	60
67	1101
68	800
69	100
78	100
79	100
80	700
81	400
83	300
84	60
91	200
93	100
95	200
96	1301
97	500
98	9999
99	300
105	80
125	1701
126	1401
127	50
