Mass Spectrum: Syringaldehyde, TMS derivative
Formula: C12 H18 O4 Si
CAS: 6651-62-3
Molecular weight: 254
Origin: NIST Mass Spectrometry Data Center, 2012
m/z	RELATIVE INTENSITY
15	90
26	10
27	30
29	170
30	20
31	50
37	10
38	50
39	240
40	20
41	30
42	40
43	430
44	210
45	1211
46	80
47	90
48	10
49	10
50	110
51	260
52	50
53	200
54	40
55	130
56	20
57	90
58	220
59	1221
60	110
61	150
62	70
63	130
64	40
65	180
66	120
67	140
68	30
69	130
70	40
71	60
72	80
73	2803
74	280
75	550
76	70
77	240
78	100
79	230
80	40
81	90
82	70
83	230
84	30
85	80
86	10
87	20
88	20
89	340
90	90
91	240
92	60
93	200
94	50
95	330
96	200
97	180
98	50
99	120
100	10
101	20
102	10
103	20
104	260
105	140
106	40
107	160
108	60
109	150
110	160
111	100
112	40
113	10
115	10
117	10
118	10
119	230
121	280
122	80
123	300
124	70
125	150
126	20
127	10
131	10
133	40
134	50
135	240
136	160
137	520
138	110
139	100
140	10
147	50
148	40
149	180
150	110
151	290
152	100
153	1031
154	140
155	50
161	20
162	10
163	130
164	80
165	340
166	140
167	200
168	30
169	10
175	10
176	10
177	60
178	30
179	320
180	200
181	300
182	50
183	10
189	10
191	20
192	10
193	450
194	340
195	340
196	220
197	40
198	10
205	10
207	120
208	50
209	520
210	100
211	40
212	10
221	30
222	20
223	2642
224	9999
225	1782
226	561
227	60
228	10
235	10
237	80
238	40
239	4194
240	731
241	240
242	30
253	30
254	2923
255	540
256	160
257	20
