Mass Spectrum: Chloromethyl hexanoate
Formula: C7 H13 Cl O2
CAS: 66542-51-6
Molecular weight: 164
Origin: ASES Database, Dalian Institute, P.R. China
m/z	RELATIVE INTENSITY
39	1381
41	4293
42	3413
43	7676
44	690
49	1851
51	680
55	4053
56	1361
57	1221
69	1501
70	1361
71	2061
72	7056
73	610
83	130
85	1371
98	750
99	6976
100	330
108	9999
109	830
110	3212
111	70
121	1591
123	400
135	140
