Mass Spectrum: Naphthalene, decahydro-1,5-dimethyl-
Formula: C12 H22
CAS: 66552-62-3
Molecular weight: 166
Origin: G.A.M.S., PARIS, FRANCE.
m/z	RELATIVE INTENSITY
15	30
26	40
27	970
29	1270
30	20
38	10
39	1210
40	240
41	3530
42	360
43	550
50	20
51	160
52	110
53	960
54	1020
55	4190
56	420
57	240
58	10
59	10
62	10
63	30
64	10
65	300
66	310
67	4390
68	1700
69	1880
70	190
71	40
75	10
77	460
78	100
79	710
80	390
81	5620
82	4660
83	2200
84	160
85	20
89	10
91	290
92	30
93	310
94	540
95	9999
96	4550
97	720
98	40
103	10
105	40
106	10
107	80
108	170
109	2850
110	1850
111	310
112	20
113	10
114	20
115	10
116	10
117	10
121	40
122	40
123	750
124	330
125	170
126	10
135	20
136	10
137	470
138	260
139	20
149	10
150	10
151	1630
152	930
153	90
164	10
165	30
166	6550
167	850
168	50
