Mass Spectrum: 2-Isopropyl-10-methylphenanthrene
Formula: C18 H18
CAS: 66552-97-4
Molecular weight: 234
Origin: Japan AIST/NIMC Database- Spectrum MS-IW-6453
m/z	RELATIVE INTENSITY
27	30
39	30
41	30
51	20
62	10
63	40
65	10
69	20
74	10
75	30
76	80
77	20
81	50
82	109
83	20
86	10
87	30
88	119
89	369
91	10
93	60
94	339
95	189
96	40
98	10
99	10
100	90
101	569
102	569
103	299
105	10
106	129
107	169
108	189
109	459
110	90
113	30
114	20
115	50
116	20
117	249
126	20
127	10
128	10
137	10
139	50
141	10
149	10
150	40
151	50
152	90
153	20
161	10
162	20
163	109
164	50
165	289
166	40
174	20
175	30
176	129
177	60
178	489
179	229
180	30
186	10
187	109
188	99
189	899
190	329
191	779
192	359
193	90
194	10
198	10
199	10
200	109
201	139
202	1229
203	1649
204	2179
205	489
206	10
211	20
212	10
213	139
214	60
215	439
216	179
217	459
218	349
219	9999
220	1929
221	179
222	10
232	40
233	229
234	9829
235	1939
236	179
237	10
