Mass Spectrum: Cyclopentane, 1-methyl-2-(4-methylpentyl)-, trans-
Formula: C12 H24
CAS: 66553-50-2
Molecular weight: 168
Origin: NIST Mass Spectrometry Data Center, 1990.
m/z	RELATIVE INTENSITY
27	1874
28	970
29	2194
32	135
39	2555
40	633
41	7625
42	1371
43	4086
44	211
51	188
52	141
53	1170
54	1312
55	9999
56	8544
57	4706
58	183
65	290
66	240
67	2590
68	1038
69	6138
70	3370
71	911
77	278
79	437
80	107
81	949
82	2521
83	6039
84	2323
85	584
95	232
96	453
97	2825
98	841
110	411
111	1294
112	1844
113	187
124	259
125	903
126	393
140	1312
141	150
153	754
168	1052
169	145
