Mass Spectrum: 2,3,4-Trimethyl-2-pentanol
Formula: C8 H18 O
CAS: 66576-26-9
Molecular weight: 130
Origin: K.Yu ET AL.,Biomed. Mass Spectrom.,14,639(1987)
m/z	RELATIVE INTENSITY
40	90
41	140
43	420
55	470
57	90
58	280
59	9999
60	90
66	90
69	90
70	230
71	1501
73	190
97	370
115	280
