Mass Spectrum: Acetone-D6
Formula: C3 D6 O
CAS: 666-52-4
Molecular weight: 64
m/z	RELATIVE INTENSITY
14	70
16	267
18	1841
26	51
28	457
29	19
30	476
31	13
32	89
33	6
34	140
36	25
38	121
40	165
42	381
44	514
45	10
46	9999
47	221
48	22
62	121
63	10
64	3682
65	121
66	10
