Mass Spectrum: Diphosphine, 1,1-dimethyl-2,2-bis(trifluoromethyl)-
Formula: C4 H6 F6 P2
CAS: 666-62-6
Molecular weight: 230
Origin: A.Pleshkova, Nesmeyanov Inst.Org.Elem.Cpds, Moscow
m/z	RELATIVE INTENSITY
31	1802
32	20
45	4264
46	711
50	1561
51	20
57	2582
58	60
59	4564
60	100
61	8167
62	190
65	3783
66	40
69	3723
70	40
75	721
76	10
77	841
78	10
79	1682
80	961
81	20
92	601
93	10
111	3603
112	10
131	901
132	20
161	9999
162	340
163	10
230	6546
231	290
232	10
