Mass Spectrum: p-Toluic acid, decyl ester
Formula: C18 H28 O2
CAS: 66606-01-7
Molecular weight: 276
Origin: Zaikin V.G., TIPS RAS, Moscow, Russia
m/z	RELATIVE INTENSITY
27	90
28	20
29	180
39	150
41	480
42	150
43	390
44	30
51	40
53	40
54	70
55	530
56	360
57	210
63	60
65	380
66	20
67	100
68	140
69	360
70	390
71	70
77	60
81	40
82	100
83	300
84	210
85	40
89	140
90	160
91	1962
92	270
93	280
96	50
97	220
98	110
105	40
107	40
111	130
112	120
118	60
119	6005
120	510
121	50
135	40
136	7026
137	9999
138	751
139	60
140	240
149	50
177	30
259	30
276	100
277	30
