Mass Spectrum: Benzene, (1,1-dimethylethoxy)-
Formula: C10 H14 O
CAS: 6669-13-2
Molecular weight: 150
Origin: NIST Mass Spectrometry Data Center, 1994
m/z	RELATIVE INTENSITY
12	5
15	248
16	9
18	17
25	9
26	92
27	627
28	190
29	982
30	19
32	6
37	98
38	337
39	2298
40	346
41	1462
42	114
43	236
44	9
50	213
51	567
52	52
53	114
55	251
56	152
57	801
58	34
60	10
61	32
62	97
63	277
64	140
65	992
66	1017
67	96
73	7
74	33
75	31
77	611
78	56
79	35
91	86
94	9999
95	914
96	54
97	5
103	5
105	20
107	268
108	25
115	10
120	5
135	515
136	56
137	4
150	163
151	15
