Mass Spectrum: Allococaine
Formula: C17 H21 N O4
CAS: 668-19-9
Molecular weight: 303
Origin: Dr. Jiri Zamecnik, DCIEM, North York, Canada, GP Library
m/z	RELATIVE INTENSITY
42	1780
44	470
55	560
67	310
68	320
77	1200
81	530
82	9999
83	3860
94	1650
96	2320
97	880
105	1510
108	370
119	200
122	560
138	80
140	60
150	140
152	1060
153	150
166	180
182	5440
183	520
184	30
198	690
199	60
200	10
244	10
259	0
272	220
273	20
303	720
304	110
