Mass Spectrum: 1H-Imidazole, 4,5-diphenyl-
Formula: C15 H12 N2
CAS: 668-94-0
Molecular weight: 220
Origin: Japan AIST/NIMC Database- Spectrum MS-NW-6307
m/z	RELATIVE INTENSITY
26	20
27	70
28	119
37	30
38	70
39	369
40	30
41	20
43	10
44	20
49	10
50	189
51	369
52	70
53	10
55	10
57	10
61	50
62	219
63	589
64	119
65	50
66	10
68	10
69	50
70	20
71	10
72	10
73	20
74	90
75	99
76	129
77	439
78	50
81	80
82	349
83	60
84	10
85	30
86	70
87	119
88	119
89	1049
90	269
91	40
94	20
95	169
96	109
97	50
98	30
99	30
100	30
101	30
102	40
103	60
104	99
105	20
108	80
109	469
110	339
111	20
112	10
113	70
114	90
115	129
116	159
117	99
118	20
122	10
124	10
125	20
126	50
127	40
128	20
129	10
137	40
138	50
139	209
140	99
141	30
142	10
149	20
150	30
151	60
152	50
153	30
154	10
155	10
161	10
162	30
163	249
164	299
165	3289
166	529
167	50
168	20
175	10
176	60
177	70
178	60
179	20
185	10
188	40
189	40
190	359
191	159
192	179
193	169
194	30
201	10
202	40
203	20
204	10
205	129
206	20
215	10
216	30
217	50
218	569
219	6179
220	9999
221	1599
222	139
223	10
