Mass Spectrum: 1H-Inden-1-one, 2,3-dihydro-5,7-dimethyl-
Formula: C11 H12 O
CAS: 6682-69-5
Molecular weight: 160
m/z	RELATIVE INTENSITY
12	10
13	20
14	80
15	330
16	10
17	10
18	30
26	460
27	1922
28	360
29	240
30	10
31	40
36	10
37	150
38	400
39	1832
40	210
41	310
42	220
43	70
44	30
45	20
49	60
50	761
51	1702
52	500
53	601
54	60
55	120
56	20
57	70
58	120
59	30
60	10
61	150
62	490
63	1341
64	771
65	851
66	150
67	40
69	10
70	30
71	30
72	100
73	70
74	400
75	390
76	260
77	1241
78	641
79	400
80	210
81	10
84	10
85	50
86	140
87	190
88	70
89	400
90	100
91	1571
92	210
93	20
96	20
97	20
98	80
99	40
100	20
101	90
102	400
103	761
104	871
105	530
106	110
109	50
110	60
111	40
113	70
114	110
115	2252
116	1141
117	4874
118	821
119	90
120	20
126	70
127	310
128	641
129	500
130	190
131	1531
132	2632
133	450
134	40
139	20
141	30
142	20
143	50
144	110
145	641
146	70
147	10
157	30
158	160
159	2372
160	9999
161	1191
162	90
163	10
