Mass Spectrum: Norethandrolone, TMS derivative
Formula: C23 H38 O2 Si
CAS: 6689-89-0
Molecular weight: 374
Origin: H. ALDERCREUTZ, UNIVERSITY OF HELSINKI, HELSINKI, FINLAND
m/z	RELATIVE INTENSITY
73	1233
74	116
75	405
77	14
95	19
105	74
107	82
109	59
110	48
115	55
117	59
119	72
121	68
122	40
123	51
129	422
130	85
131	167
133	38
135	80
143	472
144	3329
145	531
146	167
147	73
155	72
156	63
157	9999
158	1963
159	560
160	93
161	108
162	54
163	41
169	48
171	88
172	12
173	97
174	72
175	96
180	54
181	99
182	246
183	105
184	57
185	83
186	63
187	66
188	38
189	55
194	49
195	72
196	40
197	42
199	124
200	104
201	51
210	40
213	214
214	70
215	172
216	59
217	41
218	43
221	43
222	114
223	43
226	46
227	158
228	360
229	96
230	52
231	124
232	40
233	74
234	43
235	54
237	68
240	52
241	41
242	71
253	46
254	51
255	1505
256	324
257	48
261	86
262	161
263	40
266	41
267	49
269	88
275	186
276	59
282	59
283	27
284	1515
285	354
286	51
287	66
288	40
289	144
290	1267
291	347
292	110
302	60
303	1500
304	450
305	100
306	20
343	46
345	3876
346	1093
347	313
348	60
359	316
360	105
361	40
373	40
374	562
375	158
376	46
