Mass Spectrum: Guaiacol, TMS derivative
Formula: C10 H16 O2 Si
CAS: 6689-37-8
Molecular weight: 196
Origin: NIST Mass Spectrometry Data Center
m/z	RELATIVE INTENSITY
15	110
26	20
27	40
28	20
29	80
30	10
31	30
37	10
38	40
39	90
40	10
41	70
42	40
43	320
44	110
45	651
46	40
47	50
50	100
51	220
52	250
53	140
54	50
55	100
56	20
57	60
58	110
59	611
60	60
61	70
62	50
63	230
64	170
65	230
66	50
67	70
68	10
69	50
70	20
71	30
72	50
73	1251
74	140
75	200
76	90
77	340
78	110
79	100
80	130
81	40
82	50
83	120
84	10
85	40
87	10
89	350
91	390
92	230
93	110
94	20
95	160
96	10
97	10
99	10
103	20
104	10
105	80
106	20
107	110
108	110
109	40
110	10
111	10
119	10
120	30
121	230
122	30
123	70
124	10
131	10
133	20
134	20
135	290
136	2252
137	450
138	120
139	20
147	50
148	30
149	300
151	3863
152	550
153	180
154	20
161	40
162	10
163	30
166	9999
167	2292
168	741
169	60
178	10
179	110
181	4094
182	651
183	200
184	20
196	3193
197	530
198	160
199	20
