Mass Spectrum: iso-Amyl tiglate
Formula: C10 H18 O2
CAS: 66917-62-2
Molecular weight: 170
Origin: W.Jennings, T.Shibamoto
m/z	RELATIVE INTENSITY
25	90
27	210
29	1221
36	320
39	320
41	751
42	1431
43	4434
44	90
45	210
53	190
54	520
55	9128
56	751
57	420
69	651
70	9999
71	1551
72	80
73	80
82	530
83	7527
84	751
85	420
99	80
100	1131
101	5925
102	320
113	80
127	80
