Mass Spectrum: 2-Butenoic acid, 2-methyl-, 2-methylpropyl ester
Formula: C9 H16 O2
CAS: 66917-61-1
Molecular weight: 156
Origin: W.Jennings, T.Shibamoto
m/z	RELATIVE INTENSITY
29	1191
41	1191
55	6276
56	3453
57	1511
82	70
83	9999
84	490
85	70
100	480
101	6676
102	70
