Mass Spectrum: Benzyl 2-chloroethyl sulfone
Formula: C9 H11 Cl O2 S
CAS: 66998-67-2
Molecular weight: 218
Origin: NIST Mass Spectrometry Data Center, 1994
m/z	RELATIVE INTENSITY
26	197
27	1193
38	156
39	877
40	75
41	185
45	13
48	76
49	49
50	202
51	452
52	151
61	55
62	198
63	806
64	230
65	1946
66	116
74	7
75	31
76	31
77	94
78	42
89	447
91	9999
92	835
93	38
105	60
126	126
128	47
218	137
219	14
220	51
221	6
