Mass Spectrum: Dimethyl-(allyl)-silyloxybenzene
Formula: C11 H16 O Si
CAS: 66998-68-3
Molecular weight: 192
Origin: Zaikin V.G., TIPS RAS, Moscow, Russia
m/z	RELATIVE INTENSITY
28	10
39	70
43	110
44	30
45	100
47	50
51	140
55	30
59	110
61	60
65	60
69	30
75	500
76	60
77	420
78	40
79	30
81	40
83	50
91	290
95	250
97	30
121	180
123	80
133	30
135	340
136	40
137	100
149	110
150	30
151	9999
152	1131
153	340
177	140
192	691
193	110
