Mass Spectrum: Pentetic Acid
Formula: C14 H23 N3 O10
CAS: 67-43-6
Molecular weight: 393
Origin: Japan AIST/NIMC Database- Spectrum MS-NW-5772
m/z	RELATIVE INTENSITY
12	469
13	80
14	339
15	1889
16	389
17	599
18	1639
19	20
24	20
25	40
26	329
27	1119
28	2829
29	869
30	1229
31	679
32	10
36	30
37	40
38	169
39	559
40	529
41	1979
42	9999
43	1869
44	5519
45	649
46	50
49	60
50	70
51	169
52	239
53	219
54	789
55	1039
56	5449
57	1569
58	3339
59	189
60	509
61	30
62	30
63	70
64	50
65	159
66	159
67	199
68	449
69	339
70	1419
71	699
72	409
73	119
74	679
75	50
76	40
77	109
78	80
79	129
80	149
81	229
82	339
83	469
84	489
85	769
86	1729
87	209
88	979
89	139
90	50
91	119
92	90
93	99
94	149
95	359
96	309
97	509
98	529
99	1699
100	329
101	759
102	1039
103	99
104	50
105	60
106	80
107	139
108	109
109	179
110	149
111	519
112	219
113	549
114	1339
115	419
116	129
117	90
118	80
119	80
120	109
121	149
122	129
123	149
124	209
125	329
126	209
127	889
128	349
129	269
130	80
131	119
132	139
133	99
134	80
135	129
136	109
137	139
138	149
139	259
140	339
141	279
142	179
143	2679
144	269
145	149
146	389
147	99
148	80
149	99
150	119
151	119
152	169
153	159
154	109
155	169
156	70
157	539
158	269
159	249
160	109
161	80
162	80
163	80
164	70
165	119
166	90
167	70
168	70
169	139
170	129
171	2919
172	919
173	209
174	99
175	199
176	90
177	80
178	60
179	60
180	70
181	60
182	60
183	90
184	199
185	309
186	119
187	239
188	80
189	139
190	90
191	50
192	40
193	50
194	30
195	70
196	70
197	70
198	99
199	70
200	80
201	60
202	80
203	80
204	50
205	40
206	60
207	30
208	40
209	50
210	70
211	60
212	60
213	60
214	60
215	80
216	90
217	40
218	40
219	40
220	50
221	30
222	30
223	20
224	40
225	60
226	80
227	109
228	60
229	70
230	60
231	40
232	20
233	40
234	40
235	40
236	30
237	30
238	20
239	60
240	60
241	50
242	80
243	40
244	50
245	30
246	40
247	20
249	30
250	30
251	30
253	50
254	70
255	99
256	50
257	30
258	30
259	40
260	70
261	20
262	20
263	30
264	20
265	30
266	20
267	20
268	40
269	30
270	20
271	30
272	30
273	70
274	20
275	30
276	20
277	30
278	40
279	20
280	30
281	30
282	30
283	40
284	20
285	20
286	30
287	20
290	20
291	20
293	20
294	30
295	20
296	20
297	30
298	50
299	80
300	30
301	20
303	20
304	20
305	30
306	20
308	40
309	20
310	30
311	20
312	70
313	20
318	20
319	20
320	20
321	20
322	20
323	20
324	40
326	40
328	20
329	20
331	30
334	30
335	20
336	20
338	30
339	30
340	20
341	20
342	20
344	20
345	20
353	20
355	30
356	60
357	20
376	20
377	20
