Mass Spectrum: 5-Hydroxymethylfurfural
Formula: C6 H6 O3
CAS: 67-47-0
Molecular weight: 126
Origin: Japan AIST/NIMC Database- Spectrum MS-NW-4745
m/z	RELATIVE INTENSITY
12	20
13	30
14	80
15	159
16	10
17	40
18	159
24	20
25	70
26	309
27	669
28	459
29	1719
30	90
31	749
32	99
33	20
34	40
35	10
36	80
37	539
38	1019
39	3589
40	319
41	7329
42	369
43	379
44	60
45	20
48	30
49	199
50	619
51	1159
52	719
53	1459
54	99
55	229
56	30
57	10
58	20
60	20
61	40
62	40
63	20
64	10
65	40
66	179
67	199
68	369
69	3269
70	199
71	50
75	20
77	20
79	299
80	289
81	559
82	50
83	10
84	30
91	10
93	30
94	30
95	999
96	129
97	9999
98	629
99	70
108	30
109	1349
110	349
111	30
112	20
123	369
124	249
125	1459
126	7799
127	569
128	70
