Mass Spectrum: Ethane, hexachloro-
Formula: C2 Cl6
CAS: 67-72-1
Molecular weight: 234
Origin: NIST Mass Spectrometry Data Center, 1998.
m/z	RELATIVE INTENSITY
12	20
24	110
35	990
36	30
37	330
38	20
47	2360
48	30
49	800
59	1140
60	30
61	370
64	20
70	100
72	70
82	2090
83	700
84	1370
85	80
86	180
94	3320
95	80
96	2180
97	50
98	360
100	10
117	9999
118	120
119	9579
120	110
121	3070
122	30
123	330
129	1560
130	40
131	1570
132	40
133	490
135	50
164	3540
165	90
166	4550
167	110
168	2170
169	50
170	460
172	40
199	4350
200	120
201	6859
202	160
203	4380
204	100
205	1390
206	30
207	230
209	10
