Mass Spectrum: Tetracyanoethylene
Formula: C6 N4
CAS: 670-54-2
Molecular weight: 128
Origin: Japan AIST/NIMC Database- Spectrum MS-NW-1390
m/z	RELATIVE INTENSITY
12	199
14	30
24	159
26	279
28	80
36	289
37	10
38	2049
39	30
48	309
49	10
50	949
51	70
52	80
62	319
63	10
64	1099
65	40
66	50
74	10
76	8369
77	459
78	20
88	40
102	1039
103	179
104	10
128	9999
129	799
130	20
