Mass Spectrum: (SR)- or (RS)-4-methyl-2,3-pentanediol
Formula: C6 H14 O2
CAS: 6702-10-9
Molecular weight: 118
Origin: R.ERRA BALSELLS,DEP. QUIM. ORG.,CITY UNIV. BUENOS AIRES,ARGENT
m/z	RELATIVE INTENSITY
27	2800
41	2600
43	5300
44	500
45	4500
55	6800
57	3500
59	2600
71	500
72	2600
73	9999
84	600
85	3900
