Mass Spectrum: Heneicosane, 11-phenyl-
Formula: C27 H48
CAS: 6703-80-6
Molecular weight: 372
Origin: C.E.A., C.E.N., GRENOBLE, FRANCE
m/z	RELATIVE INTENSITY
27	180
28	210
29	480
36	20
39	100
40	20
41	820
42	120
43	1400
44	30
50	10
51	20
52	10
53	40
54	40
55	650
56	110
57	1000
58	40
65	40
67	80
68	20
69	330
70	50
71	640
72	30
77	60
78	90
79	80
80	10
81	50
82	20
83	270
84	30
85	400
86	20
89	10
90	20
91	9999
92	990
93	50
95	20
96	10
97	150
98	10
99	40
101	10
102	10
103	80
104	890
105	2160
106	200
107	10
109	10
111	30
113	20
115	100
116	40
117	630
118	430
119	1310
120	140
121	10
125	10
127	90
128	30
129	50
130	30
131	170
132	30
133	1030
134	120
135	10
136	10
141	10
143	20
145	40
146	10
147	980
148	120
155	10
159	10
161	670
162	80
165	10
167	10
175	370
176	50
181	30
189	140
190	20
201	20
202	90
203	20
217	10
229	40
230	210
231	3100
232	780
233	80
234	10
243	10
244	20
245	60
246	20
257	10
259	10
273	10
356	10
358	20
364	20
370	20
372	500
373	150
374	20
