Mass Spectrum: Cyclopentane, (2-decyldodecyl)-
Formula: C27 H54
CAS: 6703-79-3
Molecular weight: 378
m/z	RELATIVE INTENSITY
12	60
13	80
15	400
16	370
17	300
19	20
20	30
24	50
25	170
26	971
27	2682
29	3333
30	150
31	20
36	30
37	130
38	240
39	1842
40	500
41	8207
42	2342
43	9849
44	360
49	30
50	110
51	150
52	90
53	581
54	1041
55	7727
56	3073
57	9999
58	460
63	10
65	90
66	360
67	2582
68	1531
69	6846
70	1441
71	5035
72	280
73	10
77	80
78	30
79	230
80	130
81	1071
82	2312
83	7377
84	961
85	3393
86	220
87	10
91	130
92	20
93	80
94	80
95	1061
96	641
97	5225
98	631
99	821
100	60
103	10
104	10
105	20
106	10
107	20
108	40
109	380
110	240
111	2512
112	370
113	490
114	40
115	10
117	10
118	10
119	10
120	10
121	20
122	40
123	220
124	190
125	1191
126	260
127	340
128	40
135	10
136	30
137	160
138	120
139	601
140	190
141	300
142	40
147	40
148	10
149	10
150	10
151	40
152	60
153	410
154	150
155	270
156	30
165	30
166	70
167	340
168	160
169	160
170	30
179	40
180	70
181	200
182	140
183	150
184	30
193	20
194	60
195	90
196	40
197	100
198	20
207	20
208	130
209	80
210	90
211	90
212	20
221	10
222	120
223	170
224	60
225	80
226	10
233	10
234	10
235	80
236	3813
237	3643
238	631
239	110
240	10
250	110
251	100
252	60
253	50
254	10
264	10
265	40
266	60
267	30
268	10
278	20
279	20
280	40
281	50
282	10
292	20
293	20
294	1401
295	1641
296	340
297	40
300	10
301	10
302	10
306	10
307	10
308	80
309	100
310	20
319	10
320	10
321	10
358	10
359	10
376	20
377	10
378	80
379	20
