Mass Spectrum: Cyclopentane, heneicosyl-
Formula: C26 H52
CAS: 6703-82-8
Molecular weight: 364
Origin: SHELL OIL CO., HOUSTON, TEXAS, USA
m/z	RELATIVE INTENSITY
38	14
39	734
40	199
41	7339
42	1712
43	9736
44	68
45	4
50	7
51	23
52	23
53	491
54	1047
55	7554
56	2701
57	6977
58	308
59	6
62	1
63	4
65	66
66	115
67	1693
68	9785
69	9999
70	1996
71	2906
72	157
73	3
76	3
77	46
78	13
79	108
80	64
81	473
82	3160
83	6830
84	1243
85	1663
86	107
87	3
88	1
90	2
91	20
92	3
93	24
94	29
95	415
96	672
97	3151
98	677
99	260
100	19
101	1
104	1
105	3
106	1
107	6
108	8
109	131
110	223
111	1282
112	416
113	155
114	12
121	3
122	5
123	55
124	127
125	563
128	260
129	98
130	9
131	2
135	1
136	3
137	31
138	90
139	239
140	175
141	68
142	7
149	2
150	1
151	10
152	60
153	134
154	129
155	49
156	5
165	4
166	43
167	86
168	99
169	37
170	4
175	2
176	1
179	4
180	35
181	60
182	77
183	29
184	4
190	2
193	2
194	31
195	47
196	62
197	23
198	3
199	1
200	2
201	1
202	2
207	2
208	30
209	37
210	52
211	20
212	3
221	1
222	28
223	31
224	44
225	17
226	2
236	26
237	26
238	38
239	14
240	2
249	2
250	24
251	22
252	37
253	12
254	1
264	20
265	19
266	38
267	12
268	1
272	2
278	19
279	17
280	34
281	13
282	2
292	16
293	16
294	49
295	47
296	11
306	12
307	14
308	21
309	6
320	5
321	7
322	11
323	4
334	4
335	3
336	123
337	31
338	4
362	12
363	2
364	471
365	128
366	17
367	1
