Mass Spectrum: 1,1-Diethoxy-1-silacyclo-3-pentene
Formula: C8 H16 O2 Si
CAS: 67059-49-8
Molecular weight: 172
Origin: V.A.KOPTYUG, ATLAS OF MASS SPECTRA OF ORGANIC COMPOUNDS
m/z	RELATIVE INTENSITY
45	2700
53	600
54	3200
55	200
62	4500
63	2100
64	100
73	5199
74	1100
75	100
89	1500
90	4200
91	3000
92	200
93	100
98	3300
99	3400
100	900
101	200
103	4800
104	300
105	200
113	900
114	100
115	1200
116	2100
117	2800
118	4700
119	2200
120	200
126	9999
127	4500
128	1500
129	1800
130	100
143	2400
144	3600
145	500
146	100
157	2100
158	300
159	100
171	900
172	7799
173	1100
174	300
