Mass Spectrum: m-Toluic acid, hexyl ester
Formula: C14 H20 O2
CAS: 67101-63-7
Molecular weight: 220
Origin: Zaikin V.G., TIPS RAS, Moscow, Russia
m/z	RELATIVE INTENSITY
26	30
27	200
28	80
29	220
39	290
40	40
41	510
42	270
43	390
44	30
50	40
51	90
52	30
53	50
54	40
55	470
56	731
57	70
62	30
63	160
64	60
65	821
66	50
67	40
69	310
70	30
77	110
83	70
84	420
85	30
89	290
90	250
91	4214
92	530
93	490
94	30
105	60
118	120
119	9999
120	801
121	70
135	100
136	9629
137	7727
138	550
139	40
149	120
177	50
220	350
221	60
