Mass Spectrum: Metazachlor
Formula: C14 H16 Cl N3 O
CAS: 67129-08-2
Molecular weight: 277
Origin: ACCUSTANDARD Chemicals / NIST MS Data Center.
m/z	RELATIVE INTENSITY
12	29
15	185
18	19
26	495
27	2397
28	139
29	121
30	279
35	59
36	121
37	116
38	354
39	1520
40	329
41	764
42	628
43	202
44	11
49	1190
50	327
51	1298
52	1068
53	2210
54	2151
55	218
56	63
61	27
62	134
63	439
64	236
65	904
66	200
67	127
68	312
69	502
74	58
75	112
76	454
77	2898
78	845
79	1574
80	58
81	9999
82	523
87	34
89	364
90	352
91	1298
92	251
93	129
94	34
95	59
97	24
101	49
102	293
103	973
104	435
105	1549
106	231
107	67
115	188
116	430
117	2270
118	1065
119	414
120	181
121	279
122	52
127	19
128	69
130	854
132	6935
133	8249
134	3310
135	280
141	35
142	145
143	66
144	237
145	139
146	383
147	151
148	308
149	24
155	23
156	57
157	59
158	60
159	23
160	1253
161	170
166	46
167	39
168	39
170	40
171	135
172	185
173	141
174	395
175	75
178	41
179	37
180	46
181	31
182	48
183	46
184	77
185	108
186	33
194	23
196	70
197	91
198	63
199	57
200	86
209	5523
210	836
211	1842
212	233
228	505
229	63
242	65
243	29
262	50
277	680
278	144
279	244
280	50
