Mass Spectrum: 5-Hepten-2-one
Formula: C7 H12 O
CAS: 6714-00-7
Molecular weight: 112
Origin: CARL DJERASSI DEPT OF CHEM STANFORD UNIV STANFORD CALIF 94305
m/z	RELATIVE INTENSITY
41	2500
42	200
43	9999
44	300
51	100
53	300
54	200
55	1800
56	100
58	1100
67	300
68	400
69	1100
70	100
71	200
79	200
83	200
94	700
97	1200
112	1400
113	100
