Mass Spectrum: Daniquidone
Formula: C15 H11 N3 O
CAS: 67199-66-0
Molecular weight: 249
Origin: OGDEN BioServices Corp., NCI, Rockville, MD 20852
m/z	RELATIVE INTENSITY
41	1222
42	469
43	173
44	69
45	80
46	34
47	26
48	16
49	161
50	1116
51	1505
52	1192
53	384
54	282
55	96
56	87
57	75
58	29
59	20
60	13
61	86
62	423
63	1264
64	965
65	1591
66	387
67	96
68	29
69	197
71	129
73	32
74	332
75	913
76	884
77	947
78	232
79	229
80	40
81	13
83	267
84	404
86	73
87	79
88	143
89	223
90	516
91	853
92	497
93	74
94	10
97	822
99	42
100	53
101	103
102	1188
103	274
104	136
105	82
106	10
110	1101
112	13
113	47
114	63
115	92
116	97
117	186
118	308
119	111
120	15
124	1029
126	25
127	29
128	40
129	157
130	394
131	36
132	11
137	15
138	53
139	175
140	196
141	47
142	25
143	104
144	47
145	8
147	15
149	19
150	17
151	40
152	43
153	42
154	15
155	15
163	11
164	150
165	105
166	305
167	105
168	35
169	11
175	17
176	112
177	79
178	29
179	32
180	19
189	7
190	14
191	135
192	533
193	187
194	90
195	16
202	27
203	157
204	42
205	47
206	8
212	19
217	27
218	74
219	162
220	738
221	400
222	57
230	8
231	73
232	14
233	210
234	30
246	24
247	79
248	9999
249	8754
250	1589
251	151
252	10
