Mass Spectrum: Benzaldehyde, 2-hydroxy-5-methoxy-
Formula: C8 H8 O3
CAS: 672-13-9
Molecular weight: 152
Origin: NIST Mass Spectrometry Data Center
m/z	RELATIVE INTENSITY
14	10
15	100
25	20
26	150
27	310
28	60
29	390
30	20
31	30
36	10
37	100
38	220
39	561
40	50
41	180
42	50
43	60
44	10
45	30
46	10
47	20
48	10
49	60
50	360
51	621
52	881
53	2572
54	430
55	1071
56	40
57	10
59	10
60	40
61	180
62	370
63	811
64	190
65	470
66	150
67	90
68	20
69	210
70	10
71	10
73	30
74	150
75	130
76	70
77	100
78	30
79	300
80	260
81	1832
82	160
83	30
90	20
91	80
92	120
93	150
94	50
95	561
96	60
97	10
103	10
104	10
106	651
107	350
108	550
109	1922
110	140
111	10
119	40
120	20
121	80
122	60
123	330
124	70
125	10
134	170
135	130
137	6626
138	540
139	60
149	10
150	180
151	1682
152	9999
153	941
154	100
155	10
