Mass Spectrum: 2,4(1H,3H)-Pyrimidinedione, 6-(trifluoromethyl)-
Formula: C5 H3 F3 N2 O2
CAS: 672-45-7
Molecular weight: 180
Origin: TAT 0091
m/z	RELATIVE INTENSITY
18	200
27	100
28	500
29	100
31	400
38	200
39	500
40	1401
41	300
42	300
43	701
44	400
50	200
51	100
53	100
55	100
58	200
67	500
68	9999
69	1501
70	500
74	200
75	300
76	100
77	100
89	100
90	100
91	100
96	200
108	601
133	500
137	2202
138	300
161	400
180	5805
181	400
