Mass Spectrum: Nitrobenzene, 3-(2-cyano-2-phenylethenyl)
Formula: C15 H10 N2 O2
CAS: 6720-37-2
Molecular weight: 250
Origin: USAF ACADEMY, COLORADO SPRINGS, COLORADO 80840, J LLOYD PFLUG
m/z	RELATIVE INTENSITY
27	293
30	467
38	174
39	737
46	110
50	880
51	1815
52	380
53	79
56	79
61	174
62	563
63	1189
64	206
65	166
69	87
74	737
75	1839
76	1038
77	1387
78	301
82	142
86	245
87	991
88	4060
89	991
90	103
96	119
97	87
98	285
99	380
100	372
101	864
102	1007
103	174
110	134
111	126
112	103
113	285
114	245
115	174
116	119
117	119
123	103
124	95
125	285
126	547
127	491
128	142
137	158
138	150
139	253
140	333
149	333
150	1189
151	1966
152	959
153	285
163	325
164	602
165	650
166	166
174	396
175	1125
176	4837
177	3235
178	1125
179	230
188	126
189	142
190	1276
191	594
192	301
193	103
201	1221
202	2323
203	9999
204	4036
205	2125
206	475
207	182
215	690
216	872
217	214
218	119
219	531
220	610
221	134
231	824
232	364
233	1736
234	325
249	126
250	8271
251	1490
252	158
