Mass Spectrum: Copper iodide trimer
Formula: Cu3 I3
CAS: 67244-68-2
Molecular weight: 570
Origin: K. MATSUMOTO, DEP. SYNTH. CHEM., NAGOYA UNIV., CHIKUSA-KU,JPo
m/z	RELATIVE INTENSITY
63	4100
65	1800
126	2600
127	5200
128	1500
130	700
190	9999
192	4800
253	7600
254	4700
255	6500
257	1200
380	900
382	700
384	200
443	4400
445	5700
447	2500
449	300
570	6600
572	8500
574	3800
576	500
