Mass Spectrum: 1H-Imidazole-4-ethanamine, N,N-dimethyl-
Formula: C7 H13 N3
CAS: 673-46-1
Molecular weight: 139
m/z	RELATIVE INTENSITY
28	1800
29	300
30	1300
39	600
41	800
42	2100
43	600
44	600
54	500
55	200
56	300
57	800
58	9999
59	1400
67	200
68	500
69	100
81	500
82	200
83	100
93	200
94	400
95	1200
96	200
107	100
108	100
109	100
122	100
123	100
124	100
139	1000
140	100
