Mass Spectrum: Ethyl methylphosphonofluoridate
Formula: C3 H8 F O2 P
CAS: 673-97-2
Molecular weight: 126
Origin: VERIFIN - Methodology B1-1979
m/z	RELATIVE INTENSITY
26	200
27	800
28	400
29	600
31	100
43	200
45	600
47	800
49	60
50	100
67	800
78	90
79	500
80	400
81	5304
82	2302
83	700
84	300
86	200
98	400
99	9999
100	90
101	50
111	2502
125	300
