Mass Spectrum: 2,4,6-Octatriene, 2,6-dimethyl-
Formula: C10 H16
CAS: 673-84-7
Molecular weight: 136
m/z	RELATIVE INTENSITY
28	232
41	348
43	551
53	116
55	377
67	261
77	667
78	200
79	1811
80	246
81	261
91	1666
92	362
93	1840
94	217
96	72
103	116
105	2826
106	667
107	725
108	116
117	174
119	217
121	9999
122	1014
132	72
134	478
136	5159
137	652
