Mass Spectrum: Chloromethyl decanoate
Formula: C11 H21 Cl O2
CAS: 67317-62-8
Molecular weight: 220
Origin: ASES Database, Dalian Institute, P.R. China
m/z	RELATIVE INTENSITY
41	6325
43	7346
49	950
51	230
55	8117
56	1841
57	4764
58	170
67	890
68	960
69	3573
70	1511
71	3593
72	6275
73	790
81	1151
82	650
83	2462
84	2382
85	3663
86	120
95	600
97	1741
98	4774
99	410
108	9999
109	1371
110	4253
111	1901
112	3112
121	4053
122	300
123	1321
135	700
136	590
137	110
149	300
151	50
154	1791
155	5374
156	590
163	410
165	50
177	2222
178	180
179	710
191	170
193	50
220	590
222	110
