Mass Spectrum: p-Cyanobenzylidine p-nonyloxyaniline
Formula: C23 H28 N2 O
CAS: 67363-89-7
Molecular weight: 348
Origin: NIST Mass Spectrometry Data Center, 1994
m/z	RELATIVE INTENSITY
27	232
28	28
29	806
30	42
39	438
41	1443
42	187
43	1479
44	99
50	85
51	117
53	91
55	616
56	91
57	369
63	197
64	191
65	519
66	54
67	58
69	199
71	171
75	56
76	127
77	141
83	74
85	99
91	74
93	412
94	73
102	55
114	125
115	98
119	68
120	794
121	60
139	89
140	201
141	85
151	118
152	51
164	42
166	167
167	60
177	54
178	72
192	613
193	139
205	77
207	75
221	2906
222	9999
223	1755
224	190
235	78
348	3552
349	1000
350	120
