Mass Spectrum: 1,3-Bis(diphenylphosphino)propane
Formula: C27 H26 P2
CAS: 6737-42-4
Molecular weight: 412
Origin: NIST Mass Spectrometry Data Center, 1994
m/z	RELATIVE INTENSITY
12	1
13	19
26	13
37	10
39	162
40	16
41	68
42	16
45	34
50	93
51	338
52	52
56	40
57	169
58	17
63	64
65	235
66	14
68	17
69	54
70	14
71	25
74	22
75	36
77	549
78	280
79	86
80	46
81	103
82	58
83	129
88	16
89	57
91	685
92	77
93	12
94	23
95	158
96	16
101	10
102	38
103	40
104	20
105	28
107	659
108	636
109	542
110	38
115	353
116	133
117	517
118	61
121	1265
122	135
123	49
124	12
126	26
127	19
128	82
129	9
131	19
133	339
134	51
135	21
139	143
140	28
141	119
142	12
144	26
145	40
146	33
147	88
148	27
149	118
150	33
151	98
152	465
153	115
154	38
155	9
157	177
158	18
159	25
165	241
166	90
167	77
168	14
169	35
170	155
171	40
178	19
179	15
180	17
181	61
182	14
183	3495
184	615
185	1277
186	218
187	29
191	11
193	9
194	24
195	45
196	57
197	90
198	9
199	911
200	164
201	15
206	265
211	21
213	277
214	54
215	40
217	23
225	88
226	86
227	259
228	66
229	14
257	32
258	16
259	14
260	23
261	166
262	663
263	133
264	15
275	103
276	24
289	499
290	106
291	14
292	12
293	54
294	115
295	21
303	327
304	79
305	18
335	9999
336	2206
337	231
338	20
369	28
370	10
383	12
412	1332
413	356
414	47
