Mass Spectrum: Dimethylthexylsilyl chloride
Formula: C8 H19 Cl Si
CAS: 67373-56-2
Molecular weight: 178
Origin: V.Zaikin,Topchiev Inst.Petrochem.Synth.,Moscow
m/z	RELATIVE INTENSITY
26	110
27	1201
28	50
29	490
30	20
31	70
36	40
37	60
38	160
39	1611
40	280
41	3253
42	791
43	6816
44	340
45	420
46	40
47	200
48	20
49	20
50	50
51	150
52	60
53	520
54	140
55	1601
56	420
57	1361
58	380
59	651
60	140
61	160
62	20
63	1271
64	180
65	1712
66	210
67	771
68	90
69	5675
70	3183
71	240
72	130
73	2062
74	230
75	3954
76	310
77	280
78	550
79	741
80	270
81	330
82	50
83	340
84	9969
85	8918
86	550
87	30
89	20
91	40
92	240
93	9999
94	1081
95	4894
96	340
97	200
99	80
100	550
101	90
102	60
103	1201
104	130
105	320
106	80
107	90
108	40
109	20
111	70
113	90
115	60
117	40
119	440
120	180
121	180
122	70
123	30
127	30
133	30
134	60
136	60
137	40
143	260
144	40
145	40
161	30
163	320
164	50
165	110
177	30
178	390
179	40
180	130
181	20
