Mass Spectrum: 1-Methylallyl acetate
Formula: C6 H10 O2
CAS: 6737-11-7
Molecular weight: 114
Origin: NIST Mass Spectrometry Data Center
m/z	RELATIVE INTENSITY
14	40
15	280
19	10
25	10
26	200
27	1101
28	300
29	871
30	20
31	30
37	40
38	100
39	1471
40	100
41	110
42	300
43	9999
44	270
45	170
49	30
50	190
51	240
52	100
53	711
54	1271
55	2742
56	140
57	751
58	70
61	460
62	10
68	10
70	20
71	1321
72	3914
73	190
74	10
85	20
86	80
87	60
99	611
100	30
