Mass Spectrum: 2,4-Dimethylanisole
Formula: C9 H12 O
CAS: 6738-23-4
Molecular weight: 136
Origin: Chuck Anderson, Aldrich Chemical Co.
m/z	RELATIVE INTENSITY
14	9
15	103
25	8
26	75
27	691
28	58
29	111
30	16
31	20
32	6
36	6
37	64
38	222
39	1600
40	237
41	518
42	31
43	85
44	14
45	36
46	22
49	23
50	333
51	839
52	392
53	511
54	43
55	98
56	7
57	8
59	11
60	20
61	74
62	190
63	548
64	147
65	1047
66	172
67	101
68	128
69	13
73	18
74	119
75	93
76	90
77	3715
78	909
79	580
80	51
81	24
82	7
85	20
86	48
87	44
88	10
89	249
91	5809
92	652
93	1225
94	121
95	29
96	18
98	22
99	8
101	18
102	135
103	780
104	298
105	1323
106	335
107	101
108	22
109	9
115	12
117	10
118	12
119	95
120	116
121	9248
122	770
123	51
133	28
134	24
135	1630
136	9999
137	948
138	65
