Mass Spectrum: 2-Oxetanone, 4-methylene-
Formula: C4 H4 O2
CAS: 674-82-8
Molecular weight: 84
Origin: NIST Mass Spectrometry Data Center
m/z	RELATIVE INTENSITY
14	240
15	40
16	10
19	10
24	40
25	170
26	681
27	581
28	1041
29	260
30	10
36	160
37	701
38	941
39	3033
40	2542
41	490
42	9999
43	571
44	250
45	50
48	10
49	30
50	20
52	40
53	120
54	10
56	5605
57	200
58	20
68	10
69	80
84	591
85	30
