Mass Spectrum: 1,3-Dithiolo[4,5-b]furan, tetrahydro-3a-methyl-
Formula: C6 H10 O S2
CAS: 67411-25-0
Molecular weight: 162
Origin: JAFCAU, 26(5)1173(1978); R. SEIFERT, ET AL
m/z	RELATIVE INTENSITY
39	900
41	600
43	9999
44	400
45	1400
46	500
47	300
53	400
55	700
58	200
59	300
69	300
71	400
73	400
74	200
83	1200
84	3400
99	100
116	150
117	100
162	400
163	40
164	40
