Mass Spectrum: Methyl isobutyl disulphide
Formula: C5 H12 S2
CAS: 67421-83-4
Molecular weight: 136
Origin: D. GUPTA, DEP. CHEM., GOV. COLL., AJMER, INDIA
m/z	RELATIVE INTENSITY
27	1900
29	5600
32	1600
38	400
39	2200
40	500
41	8300
42	800
43	1400
44	2200
45	2200
46	1000
47	1400
48	500
53	300
55	1200
56	1600
57	9999
58	400
61	300
64	600
73	500
79	1200
80	5500
82	500
87	400
93	500
94	600
136	5700
137	400
138	700
