Mass Spectrum: Isopropyl isobutyl disulfide
Formula: C7 H16 S2
CAS: 67421-82-3
Molecular weight: 164
Origin: D. GUPTA, DEP. CHEM., GOV. COLL., AMJER, INDIA
m/z	RELATIVE INTENSITY
27	2100
29	3500
39	2000
40	500
41	7000
42	1000
43	6000
45	800
46	300
47	500
55	600
56	600
57	9999
58	500
59	500
66	500
76	300
108	1100
122	1400
164	2300
