Mass Spectrum: Methyl sec-butyl disulphide
Formula: C5 H12 S2
CAS: 67421-87-8
Molecular weight: 136
Origin: Frank Antolasic, RMIT Applied Chemistry Department, Victoria Australia 3001
m/z	RELATIVE INTENSITY
16	30
17	30
18	20
27	1862
29	4984
30	150
32	70
33	60
34	50
35	100
37	30
39	1531
41	5815
42	240
43	60
45	2232
46	671
47	711
48	130
49	130
50	130
51	120
52	60
53	280
55	821
57	3093
58	571
59	1291
60	310
61	520
64	1081
65	150
66	130
67	20
71	110
72	30
73	130
75	30
77	30
79	1722
80	9999
81	410
82	981
83	40
84	30
85	30
87	80
88	100
89	20
93	30
94	20
95	30
99	20
103	50
105	30
107	210
109	40
131	20
134	20
136	4264
137	360
138	450
