Mass Spectrum: 2,5-Dimethyl-para-anisaldehyde
Formula: C10 H12 O2
CAS: 6745-75-1
Molecular weight: 164
Origin: NIST Mass Spectrometry Data Center, 1990.
m/z	RELATIVE INTENSITY
14	32
15	285
26	64
27	352
28	50
29	238
31	31
37	54
38	144
39	880
40	108
41	289
42	25
43	156
44	29
46	31
49	47
50	455
51	1037
52	348
53	405
54	36
55	143
57	60
61	63
62	198
63	505
64	160
65	1045
66	160
67	99
68	40
69	34
74	175
75	171
76	173
77	1874
78	510
79	871
80	85
81	31
82	62
86	38
87	34
89	211
91	2449
92	397
93	199
94	23
101	31
102	140
103	756
104	229
105	1233
106	141
107	50
115	44
118	31
119	189
120	389
121	533
122	49
131	44
132	44
133	139
134	31
135	2386
136	388
137	49
147	22
148	37
149	222
150	22
160	18
163	9999
164	6111
165	596
166	53
