Mass Spectrum: Sinapinic acid, (E)-, 2TMS derivative
Formula: C17 H28 O5 Si2
CAS: 67460-48-4
Molecular weight: 368
Origin: H. Ohashi, Dep. Botany, Univ. British Columbia, Vancouver, Canada
m/z	RELATIVE INTENSITY
43	1500
45	7500
58	1600
59	2500
73	9900
74	2500
75	2400
89	1400
162	2400
218	1000
249	1800
279	5100
280	1200
323	4800
324	1300
338	9999
339	2500
340	2300
353	6900
354	3000
355	1300
368	8500
369	4000
370	1000
