Mass Spectrum: 2,5-Dichlorobenzhydrazide
Formula: C7 H6 Cl2 N2 O
CAS: 67487-35-8
Molecular weight: 204
Origin: NIST Mass Spectrometry Data Center, 1994
m/z	RELATIVE INTENSITY
14	7
16	99
17	51
26	58
27	34
28	126
29	396
30	256
31	907
35	54
36	116
37	268
38	179
39	59
43	59
44	78
47	61
48	43
49	259
50	786
51	230
52	35
53	72
55	84
56	36
60	89
61	184
62	149
63	186
72	121
73	579
74	2077
75	2033
76	185
77	61
84	489
85	314
86	185
87	163
88	49
90	48
97	52
98	47
99	62
100	75
109	2211
110	833
111	901
112	249
113	88
119	61
121	38
124	46
133	32
136	39
138	130
139	59
140	43
145	4024
146	356
147	2498
148	204
149	376
169	568
170	63
171	261
172	63
173	9999
174	780
175	6326
176	542
177	993
178	94
189	107
191	63
204	1191
205	115
206	757
207	71
208	114
