Mass Spectrum: 1,3,5-Triazine, 2,4,6-trifluoro-
Formula: C3 F3 N3
CAS: 675-14-9
Molecular weight: 135
Origin: NIST Mass Spectrometry Data Center, 1994
m/z	RELATIVE INTENSITY
12	421
14	63
19	86
24	158
26	473
28	44
31	4475
43	77
45	3482
46	49
50	65
52	290
53	9
54	9
57	140
58	22
59	15
62	73
64	8
66	33
67	12
69	30
71	3705
72	101
76	167
77	8
78	32
87	5
88	21
90	5542
91	155
114	6
116	1291
117	54
131	3
135	9999
136	404
137	9
