Mass Spectrum: 2H-Pyran-2-one, 4,6-dimethyl-
Formula: C7 H8 O2
CAS: 675-09-2
Molecular weight: 124
Origin: TAT 0219
m/z	RELATIVE INTENSITY
15	400
26	500
27	1702
28	400
37	601
38	1001
39	1802
40	400
41	801
42	601
43	4304
44	300
49	400
50	1301
51	1601
52	901
53	8207
54	500
55	100
62	400
63	500
64	100
65	500
66	801
67	2402
68	1601
69	701
81	1802
82	400
85	701
94	500
95	2602
96	9999
97	901
98	200
109	3403
110	300
124	5805
125	500
