Mass Spectrum: 2,4-Nonadienal
Formula: C9 H14 O
CAS: 6750-03-4
Molecular weight: 138
m/z	RELATIVE INTENSITY
15	250
18	140
26	250
27	3253
28	480
29	1481
31	120
38	70
39	2702
40	490
41	4244
42	310
43	1151
44	120
50	200
51	480
52	240
53	1181
54	1071
55	1021
56	591
57	170
63	130
65	490
66	480
67	1692
68	701
69	210
70	180
77	370
78	120
79	510
80	80
81	9999
82	1071
83	951
84	100
91	140
94	120
95	721
96	190
109	270
138	681
139	70
