Mass Spectrum: 1-Dodecanol, 3,7,11-trimethyl-
Formula: C15 H32 O
CAS: 6750-34-1
Molecular weight: 228
Origin: NIST Mass Spectrometry Data Center, 1990.
m/z	RELATIVE INTENSITY
27	976
28	1322
29	1719
31	1646
32	355
39	1308
41	7340
42	1959
43	8405
44	480
45	298
53	834
55	9999
56	5386
57	8382
58	351
67	1443
68	1312
69	9343
70	5924
71	6021
72	355
79	302
81	1516
82	1051
83	5061
84	1825
85	1232
95	745
96	1487
97	3545
98	1003
99	299
109	240
110	230
111	1533
112	1071
113	309
123	234
124	394
125	1805
126	1301
127	271
140	336
