Mass Spectrum: 4-Fluoro-3-(trifluoromethyl)benzamide
Formula: C8 H5 F4 N O
CAS: 67515-57-5
Molecular weight: 207
Origin: NIST Mass Spectrometry Data Center, 1994
m/z	RELATIVE INTENSITY
14	128
16	299
17	92
18	130
28	1405
31	382
32	443
37	137
38	133
39	71
40	47
44	2011
45	75
47	35
49	71
50	650
51	321
52	71
53	69
56	119
57	238
61	199
62	547
63	546
64	53
65	42
68	488
69	1197
70	57
72	189
73	132
74	636
75	1134
76	90
79	54
80	100
81	166
82	56
83	58
85	46
86	140
87	58
88	82
90	97
92	195
93	771
94	648
95	186
99	340
100	83
101	113
104	36
105	34
112	295
113	1227
114	224
117	89
118	64
119	54
120	99
122	34
123	104
125	261
137	83
138	59
139	77
140	95
141	73
142	59
143	1289
144	544
145	215
151	99
158	64
161	84
163	8160
164	643
168	80
170	73
173	48
178	79
188	1110
189	231
191	9999
192	874
193	69
207	4759
208	453
209	31
