Mass Spectrum: 4-Fluoro-3-(trifluoromethyl)benzylamine
Formula: C8 H7 F4 N
CAS: 67515-74-6
Molecular weight: 193
Origin: NIST Mass Spectrometry Data Center, 1994
m/z	RELATIVE INTENSITY
15	14
16	129
17	125
18	54
26	20
28	9999
29	4419
30	9719
31	480
32	3
37	203
38	272
39	407
40	63
41	130
42	39
48	239
49	112
50	918
51	719
52	291
53	60
54	135
56	143
57	624
58	43
61	265
62	437
63	599
64	81
65	72
68	517
69	2030
70	238
71	112
73	123
74	586
75	1607
76	259
77	357
78	72
79	55
80	150
81	468
82	67
83	53
85	85
87	349
88	150
89	70
92	159
93	561
94	708
95	753
96	443
97	439
98	84
99	425
100	158
101	315
102	146
104	129
105	164
106	129
107	645
108	121
112	132
113	474
114	331
117	71
118	58
119	97
121	43
122	430
124	7473
125	1212
126	342
127	1293
128	99
132	103
134	149
137	301
138	90
143	542
144	319
145	3635
146	423
150	55
151	73
152	331
153	295
154	286
155	60
156	153
157	179
158	74
163	743
164	191
165	42
170	155
172	647
173	2214
174	2119
175	240
176	156
177	1573
178	123
189	62
190	741
192	6132
193	1434
194	95
