Mass Spectrum: 4-Fluoro-3-(trifluoromethyl)benzaldehyde
Formula: C8 H4 F4 O
CAS: 67515-60-0
Molecular weight: 192
Origin: NIST Mass Spectrometry Data Center, 1994
m/z	RELATIVE INTENSITY
16	3
18	42
20	49
26	44
28	254
29	1706
30	41
31	531
32	23
36	48
37	380
38	311
39	181
44	49
47	57
48	33
49	208
50	1349
51	578
52	36
53	98
55	45
56	175
57	480
61	440
62	717
63	797
64	62
68	895
69	1910
70	78
72	164
73	258
74	1058
75	2309
76	180
79	89
80	186
81	204
85	112
86	191
87	147
88	171
91	32
92	368
93	1060
94	982
95	629
96	53
99	572
100	65
101	34
103	49
104	80
105	91
106	43
107	61
111	67
112	256
113	1285
114	1004
115	71
117	98
118	97
119	107
122	40
123	185
125	622
126	74
137	110
143	1413
144	717
145	1143
146	85
161	76
163	8973
164	851
173	1834
174	174
191	9999
192	6642
193	591
194	47
