Mass Spectrum: 4-Fluoro-3-(trifluomethyl)benzoic acid
Formula: C8 H4 F4 O2
CAS: 67515-55-3
Molecular weight: 208
Origin: NIST Mass Spectrometry Data Center, 1994
m/z	RELATIVE INTENSITY
17	8
36	104
37	228
38	198
39	108
49	102
50	960
51	328
53	112
56	156
57	354
61	280
62	601
63	702
64	69
68	657
69	1370
72	138
73	59
75	1284
80	107
81	225
83	143
86	186
87	81
88	120
92	231
93	919
94	811
95	192
99	362
100	50
101	163
104	64
111	80
112	256
113	1155
114	401
117	101
123	118
125	267
130	55
131	90
132	127
137	76
143	1319
144	578
145	368
161	120
163	6697
164	606
180	117
189	1423
191	9999
192	936
193	51
208	5510
209	510
210	66
