Mass Spectrum: 4-Fluoro-3-(trifluoromethyl)benzoyl chloride
Formula: C8 H3 Cl F4 O
CAS: 67515-56-4
Molecular weight: 226
Origin: NIST Mass Spectrometry Data Center
m/z	RELATIVE INTENSITY
12	10
17	10
18	40
20	20
25	30
26	60
28	350
29	30
31	771
32	70
33	10
35	270
36	90
37	410
38	210
39	40
43	10
44	30
45	40
47	70
48	30
49	160
50	971
51	310
52	20
53	80
55	40
56	180
57	180
58	10
60	50
61	350
62	741
63	691
64	40
65	50
68	721
69	1772
70	40
72	250
73	240
74	911
75	1101
76	60
77	20
79	50
80	110
81	100
84	30
85	80
86	330
87	90
88	40
89	50
90	20
92	270
93	821
94	881
95	140
97	10
99	390
100	30
101	10
103	30
104	50
105	60
106	30
109	20
110	20
111	60
112	290
113	1021
114	60
117	80
118	50
119	30
122	130
123	110
125	210
126	10
129	10
130	10
132	20
136	10
137	70
141	20
143	1051
144	490
145	30
161	70
163	6446
164	480
165	10
172	20
175	10
179	130
181	40
191	9999
192	791
193	60
197	20
198	10
199	10
207	641
208	70
209	210
210	20
226	90
227	10
228	20
