Mass Spectrum: 5,7-Octadien-4-one, 2,6-dimethyl-, (E)-
Formula: C10 H16 O
CAS: 6752-80-3
Molecular weight: 152
Origin: NIST Mass Spectrometry Data Center, 2010
m/z	RELATIVE INTENSITY
26	30
27	400
29	260
37	20
38	110
39	1762
40	310
41	3263
42	250
50	120
51	340
52	180
53	230
62	50
63	130
64	20
65	1451
66	410
67	5805
68	611
77	120
79	110
90	10
91	120
94	40
95	9999
96	911
107	90
109	1181
110	641
111	70
123	80
124	120
137	721
138	60
151	60
152	510
153	30
