Mass Spectrum: Methylphosphonyl dichloride
Formula: C H3 Cl2 O P
CAS: 676-97-1
Molecular weight: 132
Origin: VERIFIN - Methodology B4-1983
m/z	RELATIVE INTENSITY
35	300
36	1301
37	70
38	300
47	5204
66	200
67	80
68	70
82	60
83	400
96	400
97	9999
98	300
99	3403
101	70
103	70
117	1501
119	1000
132	3302
134	2101
136	300
