Mass Spectrum: Methyldichlorophosphine
Formula: C H3 Cl2 P
CAS: 676-83-5
Molecular weight: 116
Origin: CBDCOM/ERDEC, Edgewood, MD
m/z	RELATIVE INTENSITY
15	190
31	190
35	190
36	990
38	190
43	90
44	1391
45	3993
46	40
47	90
62	40
66	490
67	40
68	90
69	40
78	40
79	390
80	490
81	690
82	190
83	260
101	9999
103	5995
105	990
115	10
116	4994
117	90
118	3493
119	40
120	490
