Mass Spectrum: Methylphosphonothioic dichloride
Formula: C H3 Cl2 P S
CAS: 676-98-2
Molecular weight: 148
Origin: Dennis Rohrbaugh, CBDCOM/ERDEC, Edgewood, MD
m/z	RELATIVE INTENSITY
15	299
31	299
35	289
36	409
38	199
43	199
44	909
45	2409
46	409
47	399
48	99
49	199
63	2809
65	189
66	399
67	199
68	199
75	409
76	299
77	3989
79	589
81	399
83	409
85	199
98	599
101	699
103	409
113	9999
115	3919
119	309
133	1389
135	799
137	299
148	6989
150	5009
152	1099
