Mass Spectrum: Dimethylarsine bromide
Formula: C2 H6 As Br
CAS: 676-71-1
Molecular weight: 184
Origin: Dennis Rohrbaugh, CBDCOM/ERDEC, Edgewood, MD
m/z	RELATIVE INTENSITY
75	749
76	189
77	189
79	149
87	139
88	1519
89	6549
90	879
100	159
101	1129
102	399
103	1239
105	9999
106	219
120	119
125	109
140	119
154	439
155	139
156	409
157	129
169	2569
171	2419
184	4059
185	209
186	3899
187	179
