Mass Spectrum: Dimethylphosphine
Formula: C2 H7 P
CAS: 676-59-5
Molecular weight: 62
m/z	RELATIVE INTENSITY
15	133
27	667
29	333
32	200
33	333
34	333
44	1200
45	5333
46	9999
47	2333
56	133
57	1800
58	667
59	2533
60	200
61	1533
62	7866
