Mass Spectrum: Methylphosphonyldifluoride
Formula: C H3 F2 O P
CAS: 676-99-3
Molecular weight: 100
Origin: VERIFIN - Methodology B4-1983
m/z	RELATIVE INTENSITY
29	800
31	800
36	300
44	200
47	600
50	400
52	900
67	600
69	2602
71	600
80	4604
81	500
85	1601
86	30
99	1501
100	9999
