Mass Spectrum: 1-Heptadecene
Formula: C17 H34
CAS: 6765-39-5
Molecular weight: 238
m/z	RELATIVE INTENSITY
14	210
15	200
24	10
25	20
26	160
27	2772
28	2002
29	6626
30	120
36	40
37	30
38	70
39	2132
40	440
41	9999
42	2312
43	9599
44	340
50	40
51	90
52	70
53	771
54	1521
55	8668
56	4624
57	7196
58	330
59	10
63	20
64	10
65	110
66	130
67	1391
68	1401
69	5895
70	4214
71	3373
72	190
73	20
74	10
75	10
76	10
77	80
78	30
79	140
80	70
81	671
82	1852
83	7016
84	3113
85	2002
86	130
87	10
91	70
92	20
93	40
94	40
95	410
96	1031
97	6716
98	2422
99	400
100	30
104	10
105	20
106	10
107	20
108	20
109	150
110	440
111	2803
112	1461
113	230
114	20
115	10
117	10
119	10
120	10
121	10
122	20
123	60
124	220
125	1101
126	891
127	140
128	20
129	10
136	10
137	30
138	140
139	350
140	530
141	90
142	10
151	20
152	100
153	190
154	370
155	60
156	10
165	10
166	60
167	120
168	280
169	50
170	10
180	40
181	60
182	140
183	30
184	10
185	10
194	30
195	40
196	160
197	40
198	10
200	10
202	10
210	250
211	50
212	10
236	10
237	10
238	611
239	120
240	20
