Mass Spectrum: Propanoic acid, 2,2-dimethyl-, 2-phenylethyl ester
Formula: C13 H18 O2
CAS: 67662-96-8
Molecular weight: 206
Origin: V.G. Zaikin, TIPS RAS, Moscow, Russia
m/z	RELATIVE INTENSITY
26	170
27	891
28	50
29	1351
31	30
36	80
37	80
38	130
39	1621
40	140
41	2172
42	380
43	140
44	260
45	80
50	440
51	951
52	330
53	250
55	220
56	140
57	6095
58	270
62	150
63	350
64	170
65	681
66	60
69	150
70	60
74	130
75	80
76	130
77	1291
78	651
79	681
83	20
85	160
89	180
90	110
91	1371
92	270
93	80
102	80
103	691
104	9999
105	2883
106	190
121	20
