Mass Spectrum: 2,5-Diamino-2'-fluorobenzophenone
Formula: C13 H11 F N2 O
CAS: 67739-74-6
Molecular weight: 230
Origin: H.Maurer ET AL.J.Chromatogr. 222,409(1981)
m/z	RELATIVE INTENSITY
52	340
53	1131
54	951
63	520
75	520
80	1531
90	520
105	550
106	921
107	3333
115	310
123	1531
135	520
181	520
182	310
184	310
209	340
210	2923
211	3133
212	921
213	921
214	340
229	5945
230	9999
231	1942
