Mass Spectrum: 5-Amino-2'-fluoro-2-methylaminobenzophenone
Formula: C14 H13 F N2 O
CAS: 67739-73-5
Molecular weight: 244
Origin: H.Maurer ET AL.J.Chromatogr. 222,409(1981)
m/z	RELATIVE INTENSITY
44	3503
52	310
57	1121
65	741
77	540
79	340
92	370
93	540
94	340
95	340
105	340
106	540
119	571
120	370
121	571
122	571
123	971
149	771
209	801
210	801
211	1001
212	370
224	1001
225	1581
226	801
227	4394
228	1201
229	601
230	370
243	2582
244	9999
245	1601
