Mass Spectrum: Prochloraz
Formula: C15 H16 Cl3 N3 O2
CAS: 67747-09-5
Molecular weight: 375
Origin: NIST Mass Spectrometry Data Center, 1995
m/z	RELATIVE INTENSITY
11	13
12	19
13	21
15	386
17	34
18	149
27	1955
28	1010
29	482
30	471
35	29
36	90
37	49
38	94
39	463
40	1987
41	3642
42	2523
43	9999
44	951
45	6
48	13
49	34
50	38
51	30
52	47
53	106
54	261
55	189
56	1596
57	233
58	45
60	21
61	109
62	199
63	135
65	31
66	56
67	288
68	1524
69	782
70	8129
71	375
72	233
73	164
74	123
75	98
77	10
79	20
81	761
82	126
83	140
84	354
85	461
86	201
87	37
89	60
90	27
93	23
94	105
95	884
96	131
97	532
98	150
99	228
100	58
101	15
106	35
107	206
108	84
109	315
110	85
111	127
112	102
113	45
118	15
119	20
120	18
121	22
123	73
124	50
125	115
126	58
127	34
128	26
131	43
132	217
133	170
134	161
135	107
136	72
137	43
138	574
139	113
143	175
144	76
145	177
146	105
147	80
148	58
149	26
150	46
151	24
152	31
153	45
158	20
159	148
160	111
161	163
162	293
163	76
164	156
165	27
166	20
167	386
168	20
169	358
170	35
171	123
172	20
173	56
174	29
175	72
176	24
177	44
178	125
179	20
180	6635
181	824
182	105
183	57
184	26
187	44
188	96
189	61
190	71
191	32
192	18
193	62
194	18
195	366
196	633
197	497
198	614
199	294
200	223
201	79
202	114
203	32
204	58
205	20
206	17
207	33
208	14
209	57
210	22
211	40
212	14
216	106
218	63
219	15
220	17
222	36
223	544
224	70
225	512
226	58
227	200
228	40
229	34
230	42
231	24
232	26
238	35
240	43
242	23
244	101
245	64
246	77
247	48
248	18
252	38
254	38
255	12
256	19
263	16
264	12
266	2264
267	328
268	2167
269	265
270	696
271	88
272	68
273	42
275	20
280	53
281	22
282	43
308	6035
309	881
310	5970
311	806
312	2059
313	278
314	237
315	35
319	50
321	41
323	21
