Mass Spectrum: 2,5-Dimethyl-5-hexen-3-ol
Formula: C8 H16 O
CAS: 67760-91-2
Molecular weight: 128
Origin: NIST Mass Spectrometry Data Center, 1990.
m/z	RELATIVE INTENSITY
15	321
27	2869
28	1538
29	3189
31	826
32	214
39	3674
40	945
41	6840
42	760
43	4913
44	569
45	1533
50	205
51	394
53	740
55	8028
56	9999
57	4742
58	238
67	942
68	224
69	580
70	935
71	2768
72	902
73	6171
74	255
83	211
84	175
85	1533
95	549
