Mass Spectrum: Ethyl N-phenylformimidate
Formula: C9 H11 N O
CAS: 6780-49-0
Molecular weight: 149
Origin: NIST Mass Spectrometry Data Center, 1994
m/z	RELATIVE INTENSITY
12	25
13	28
14	110
15	379
16	28
17	19
18	60
19	40
26	614
27	2879
28	1008
29	2751
30	187
37	385
38	919
39	2908
40	532
41	342
42	109
43	206
44	34
46	27
49	109
50	1395
51	3411
52	752
53	152
54	198
55	22
56	22
61	111
62	296
63	1019
64	1192
65	3020
66	4559
67	482
68	29
73	42
74	211
75	253
76	639
77	4260
78	1304
79	325
80	44
87	19
88	41
89	22
90	91
91	708
92	989
93	9999
94	1102
95	53
104	4449
105	1222
106	1225
107	149
118	56
119	194
120	1259
121	4671
122	397
123	27
130	75
131	144
132	390
133	27
134	480
135	59
149	2814
150	309
151	25
