Mass Spectrum: Benzene, 2-chloro-1,3-dimethyl-
Formula: C8 H9 Cl
CAS: 6781-98-2
Molecular weight: 140
Origin: Japan AIST/NIMC Database- Spectrum MS-NW-9931
m/z	RELATIVE INTENSITY
26	20
27	199
28	10
29	10
36	20
37	40
38	109
39	459
40	30
41	30
43	10
49	50
50	309
51	1189
52	229
53	149
60	10
61	80
62	179
63	429
64	70
65	139
66	20
68	20
69	169
70	90
71	10
72	10
73	109
74	139
75	209
76	119
77	1399
78	799
79	799
80	50
84	10
85	30
86	40
87	60
88	10
89	209
90	40
91	99
92	20
97	20
98	30
99	80
100	10
101	90
102	239
103	1489
104	629
105	9999
106	899
107	80
111	10
112	10
113	10
121	20
122	60
123	10
125	599
126	50
127	189
128	10
138	20
139	519
140	4419
141	549
142	1419
143	129
