Mass Spectrum: 2,3,6-Trifluoroaniline
Formula: C6 H4 F3 N
CAS: 67815-56-9
Molecular weight: 147
Origin: NIST Mass Spectrometry Data Center, 1994
m/z	RELATIVE INTENSITY
12	32
13	24
16	98
17	6
18	39
19	23
20	87
24	22
25	63
26	77
27	6
28	923
31	2831
32	17
33	128
36	117
37	610
38	544
39	246
40	71
44	163
46	314
47	41
48	136
49	244
50	1170
51	1373
52	738
53	82
55	212
56	861
57	831
58	110
60	109
61	440
62	287
63	263
64	212
65	105
66	33
67	35
68	488
69	1093
70	1465
71	127
72	118
73	33
74	836
75	1290
76	1010
77	419
78	101
79	258
80	565
81	834
82	268
83	137
84	24
85	25
86	79
87	122
88	226
89	101
90	124
92	49
93	396
94	258
95	87
96	248
97	47
98	24
99	1668
100	3670
101	1035
102	110
103	89
105	22
106	139
107	1022
108	390
109	39
114	36
116	375
117	72
119	2254
120	1606
121	147
124	19
126	693
127	1628
128	253
129	18
130	33
131	16
147	9999
148	678
149	24
