Mass Spectrum: Ethyl 2,4,6-trimethoxycinnamate
Formula: C14 H18 O5
CAS: 67827-53-6
Molecular weight: 266
Origin: NIST Mass Spectrometry Data Center, 1994
m/z	RELATIVE INTENSITY
14	101
15	1290
18	69
26	146
27	887
28	519
29	2301
30	87
31	84
32	21
37	39
38	185
39	392
40	59
41	171
42	96
43	385
44	81
45	241
50	341
51	517
52	167
53	396
54	72
55	301
57	65
59	364
61	52
62	321
63	782
64	365
65	551
66	334
67	144
68	52
69	1120
70	53
74	186
75	375
76	739
77	1381
78	450
79	719
80	113
81	95
82	61
83	93
84	53
85	551
86	101
87	182
88	152
89	557
90	329
91	1055
92	884
93	207
94	126
95	215
96	113
102	93
103	488
104	219
105	763
106	236
107	521
108	149
109	206
110	93
111	411
113	120
115	59
116	99
117	101
118	249
119	621
120	636
121	1678
122	269
123	116
125	132
131	142
132	169
133	661
134	282
135	1526
136	360
137	258
138	104
139	91
145	63
146	148
147	474
148	552
149	824
150	360
151	1926
152	181
153	77
154	46
161	440
162	292
163	2144
164	743
165	628
166	181
167	239
168	216
175	159
176	279
177	721
178	3591
179	8431
180	873
181	230
189	74
190	124
191	933
192	840
193	499
194	2194
195	490
196	81
206	1937
207	3688
208	520
209	126
219	85
221	5936
222	718
223	194
235	2706
236	418
237	162
238	232
251	232
266	9999
267	1571
268	115
