Mass Spectrum: Stigmasta-7,25-dien-3-ol, (3.beta.,5.alpha.)-
Formula: C29 H48 O
CAS: 6785-58-6
Molecular weight: 412
Origin: DR GLENN PATTERSON
m/z	RELATIVE INTENSITY
39	800
41	3300
43	1800
53	600
55	6799
57	1000
67	2100
68	600
69	2800
79	2300
81	4100
83	1800
91	2900
92	600
93	2500
94	800
95	3100
97	800
99	1100
105	2900
106	700
107	3300
108	600
109	1800
117	900
119	2600
120	1000
121	1800
122	500
123	900
131	1500
132	500
133	2000
134	1000
135	1300
137	700
143	800
145	1900
146	600
147	2000
148	500
149	800
157	600
159	1500
160	500
161	1500
171	600
173	1000
199	500
201	600
213	1800
215	600
227	1300
228	600
229	1200
231	1800
232	600
245	600
246	1400
255	3100
256	700
257	600
269	500
271	9999
272	2500
397	1000
412	4400
413	1300
