Mass Spectrum: 6.beta.-Hydroxymethandienone, 2TMS derivative
Formula: C26 H44 O3 Si2
CAS: 67896-65-5
Molecular weight: 460
Origin: S.Rendic ET AL., J. Chrom., B, 735,73,(1999)
m/z	RELATIVE INTENSITY
44	110
47	961
56	210
57	160
58	611
61	400
63	190
67	170
68	550
69	350
70	230
73	5895
74	961
75	2532
76	440
77	460
79	761
81	260
91	601
95	360
96	320
98	210
100	170
103	380
105	691
113	210
115	1161
116	170
121	210
125	460
126	250
128	561
129	1131
130	1071
134	190
141	230
143	9999
144	1281
145	811
146	170
147	340
148	240
157	190
162	190
164	170
165	550
167	170
171	170
173	230
175	170
177	230
183	200
186	190
191	1021
192	250
193	1031
194	330
195	651
197	190
207	741
208	1301
209	5875
210	1571
211	340
217	180
219	190
221	210
222	190
249	240
251	290
252	360
259	230
265	911
268	160
281	9809
282	2732
283	540
284	230
299	160
313	1201
314	380
337	190
339	410
340	180
341	190
354	691
355	260
370	691
372	190
402	170
444	200
445	741
446	500
447	190
460	761
461	180
