Mass Spectrum: 4-Benzyloxybromobenzene
Formula: C13 H11 Br O
CAS: 6793-92-6
Molecular weight: 262
Origin: NIST Mass Spectrometry Data Center, 1994
m/z	RELATIVE INTENSITY
14	2
18	10
26	33
27	58
28	70
29	17
32	15
37	59
38	298
39	681
40	58
41	163
42	7
46	8
50	284
51	347
52	98
53	34
61	58
62	218
63	850
64	379
65	1522
66	94
73	12
74	93
75	143
76	145
77	115
78	21
79	18
81	6
85	5
86	9
87	12
89	272
91	9999
92	845
93	47
95	9
105	18
115	10
117	77
119	66
128	8
143	137
145	135
146	7
151	8
152	26
153	21
154	13
155	22
157	11
171	40
173	46
174	9
181	18
262	203
263	32
264	206
265	28
