Mass Spectrum: 1,2-Dimethyldiaziridine
Formula: C3 H8 N2
CAS: 6794-95-2
Molecular weight: 72
Origin: A.Pleshkova, Nesmeyanov Inst.Org.Elem.Cpds, Moscow
m/z	RELATIVE INTENSITY
27	941
28	1251
29	350
30	3313
31	140
41	430
42	7867
43	2012
44	651
57	3803
58	270
70	450
71	9999
72	4454
73	250
74	30
