Mass Spectrum: 2,3-Dichlorophenol, TMS derivative
Formula: C9 H12 Cl2 O Si
CAS: 67947-14-2
Molecular weight: 234
Origin: V.G. Zaikin, TIPS RAS, Moscow, Russia
m/z	RELATIVE INTENSITY
26	130
27	280
29	420
30	60
31	120
35	80
36	90
37	180
38	170
39	280
41	120
42	280
43	1071
44	380
45	1381
46	70
47	150
49	90
50	190
51	280
52	80
53	380
54	90
55	190
56	80
57	150
58	180
59	160
60	80
61	190
62	450
63	1431
64	120
65	1291
66	120
67	320
68	50
69	90
70	50
71	80
72	320
73	3153
74	651
75	550
76	110
77	310
78	220
79	681
80	120
81	250
82	50
83	70
84	140
85	90
86	80
87	90
89	230
90	90
91	180
92	180
93	9999
94	851
95	3673
96	320
97	370
98	260
99	150
100	140
101	60
102	60
103	130
105	180
106	50
107	160
108	230
109	370
110	140
111	320
112	130
113	260
115	220
116	50
117	70
119	70
121	70
123	70
125	410
126	270
127	170
128	110
129	50
133	380
134	60
135	220
136	60
137	110
139	80
141	50
143	50
147	170
148	150
149	180
150	50
153	50
155	180
157	80
159	80
161	240
162	80
163	140
164	110
165	50
167	50
168	50
169	150
171	90
181	50
183	561
184	140
185	230
186	80
189	140
191	50
218	130
219	6095
220	961
221	4314
222	591
223	921
224	120
225	50
234	1631
235	250
236	1071
237	150
238	190
239	50
