Mass Spectrum: Butane, 2-methoxy-
Formula: C5 H12 O
CAS: 6795-87-5
Molecular weight: 88
m/z	RELATIVE INTENSITY
2	40
12	20
13	60
14	230
15	1631
16	40
17	10
18	10
24	10
25	30
26	400
27	1912
28	571
29	3503
30	140
31	1171
32	20
33	100
34	10
35	10
36	10
37	50
38	100
39	771
40	100
41	1752
42	260
43	1151
44	60
45	1131
46	20
47	10
48	10
49	20
50	70
51	70
52	20
53	90
54	30
55	320
56	350
57	530
58	490
59	9999
60	320
61	20
69	10
70	10
71	40
72	20
73	1321
74	50
85	10
86	10
87	110
88	140
89	10
