Mass Spectrum: Pentane, 2-methoxy-
Formula: C6 H14 O
CAS: 6795-88-6
Molecular weight: 102
Origin: NIST Mass Spectrometry Data Center
m/z	RELATIVE INTENSITY
15	70
26	40
27	380
28	100
29	761
30	30
31	621
32	10
33	60
37	10
38	50
39	480
40	100
41	711
42	330
43	1031
44	40
45	1581
46	30
47	10
50	10
51	30
52	10
53	80
54	20
55	721
56	40
57	130
58	480
59	9999
60	320
61	20
63	10
65	10
67	10
69	30
70	150
71	150
72	30
73	50
85	20
87	530
88	20
101	40
102	60
