Mass Spectrum: Pentane, 3,3-bis(bromomethyl)-
Formula: C7 H14 Br2
CAS: 67969-84-0
Molecular weight: 256
Origin: RADIAN CORP
m/z	RELATIVE INTENSITY
15	130
26	220
27	4010
29	3950
30	30
37	20
38	150
39	3890
40	630
41	9850
42	670
43	2360
44	60
50	110
51	440
52	230
53	1960
54	370
55	9999
56	630
57	1030
58	40
63	40
65	890
66	250
67	5600
68	590
69	2030
70	130
71	40
77	90
79	210
80	90
81	250
82	130
83	6100
84	1490
85	80
93	520
94	10
95	550
97	6470
98	510
105	30
107	530
108	10
109	470
117	20
119	590
121	1330
122	20
123	730
133	50
135	320
137	260
147	1360
148	130
149	1330
150	140
163	2640
164	60
165	2620
166	110
177	220
179	210
187	10
227	60
229	140
231	60
256	30
258	80
260	10
