Mass Spectrum: Ethanaminium, N,N,N-triethyl-, iodide
Formula: C8 H20 I N
CAS: 68-05-3
Molecular weight: 257
Origin: J.T. CLERC, ORGANIC CHEM. LAB., ETH, ZURICH, SWITZ.
m/z	RELATIVE INTENSITY
26	694
27	4566
28	1561
29	7745
30	4046
41	347
42	1272
43	347
44	1445
56	636
57	173
58	3468
59	289
70	231
72	347
86	9999
87	578
100	636
101	1792
102	173
127	809
128	347
156	5028
157	173
