Mass Spectrum: Formamide, N,N-dimethyl-
Formula: C3 H7 N O
CAS: 68-12-2
Molecular weight: 73
Origin: NIST Mass Spectrometry Data Center, 1990.
m/z	RELATIVE INTENSITY
13	140
14	205
15	1583
16	55
17	55
18	1617
26	93
27	609
28	2855
29	1605
30	2480
31	113
32	39
38	153
39	341
40	779
41	818
42	4222
43	1148
44	8872
45	246
52	61
55	53
56	258
58	657
72	972
73	9999
74	407
