Mass Spectrum: Benzene, 1,4-bis(trichloromethyl)-
Formula: C8 H4 Cl6
CAS: 68-36-0
Molecular weight: 310
Origin: Japan AIST/NIMC Database- Spectrum MS-NW-9551
m/z	RELATIVE INTENSITY
35	30
36	249
37	50
38	80
39	20
47	20
49	129
50	199
51	70
54	10
60	20
61	109
62	139
63	90
66	119
67	249
68	80
71	10
72	80
73	159
74	239
75	139
76	10
80	10
82	10
83	10
84	229
85	959
86	579
87	159
88	10
90	10
95	10
96	40
97	119
98	199
99	369
100	50
102	339
103	339
104	109
105	10
107	90
108	119
109	199
110	60
111	70
112	10
117	10
118	10
119	50
120	1319
121	1669
122	809
123	269
124	20
125	30
131	10
132	20
133	269
134	179
135	359
136	80
137	139
138	99
139	60
140	20
142	10
143	30
144	20
145	30
146	30
147	10
148	10
157	10
158	10
159	20
160	10
161	10
167	10
168	20
169	239
170	1429
171	269
172	929
173	99
174	149
175	10
180	30
182	20
184	10
193	40
195	40
197	10
204	119
205	239
206	139
207	229
208	60
209	70
210	10
211	10
239	50
240	3869
241	419
242	4929
243	499
244	2379
245	219
246	519
247	40
248	40
274	20
275	6249
276	589
277	9999
278	909
279	6389
280	559
281	2049
282	179
283	329
284	20
285	20
309	20
310	389
311	70
312	739
313	99
314	589
315	60
316	249
317	20
318	60
