Mass Spectrum: Hydroxyzine
Formula: C21 H27 Cl N2 O2
CAS: 68-88-2
Molecular weight: 374
Origin: Virginia Division of Forensic Science
m/z	RELATIVE INTENSITY
15	20
16	10
17	10
19	30
26	10
27	120
28	200
29	210
30	80
31	120
32	10
39	40
40	10
41	140
42	750
43	290
44	310
45	1271
46	10
50	30
51	50
52	10
54	140
55	310
56	1010
57	210
58	620
59	40
62	10
63	50
65	70
66	10
67	10
68	110
69	120
70	320
71	160
72	200
73	110
74	40
75	90
76	30
77	90
78	30
79	20
80	10
81	30
82	110
83	240
84	230
85	170
86	130
87	580
88	80
89	130
90	30
91	230
92	10
93	10
94	30
95	10
97	290
98	430
99	160
100	100
101	40
102	50
103	60
104	100
105	80
106	10
107	10
109	10
110	10
111	430
112	50
113	70
114	40
115	170
116	50
118	920
119	60
120	10
123	10
125	190
126	40
127	90
128	40
129	30
130	170
132	1000
133	100
134	30
135	10
136	10
137	40
138	90
139	220
140	60
141	20
143	30
144	70
145	10
146	100
147	10
148	10
149	50
150	40
151	60
152	90
153	40
154	10
156	10
157	10
158	10
159	30
160	10
161	10
163	290
165	4594
166	3252
167	500
168	50
169	10
170	10
171	80
173	550
174	40
175	20
177	10
178	40
179	50
180	40
183	10
186	10
187	10
188	10
189	10
190	10
191	10
192	10
193	20
194	40
195	10
196	10
197	10
199	170
201	9999
202	1531
203	3302
204	480
205	40
206	70
207	30
208	10
209	10
211	10
214	10
216	110
217	10
218	30
219	10
228	630
229	630
230	240
231	210
232	30
235	10
236	10
240	220
241	500
242	940
243	270
244	280
245	50
246	10
254	10
256	60
257	10
258	20
263	10
264	20
265	10
268	10
271	270
272	50
273	80
274	10
278	10
283	70
284	120
285	170
286	80
287	40
288	20
297	30
299	1741
300	390
301	590
302	130
303	10
311	10
312	30
313	100
314	30
315	30
343	90
344	30
345	30
346	10
374	640
375	150
376	230
377	30
