Mass Spectrum: 17.alpha.-Hydroxyprogesterone
Formula: C21 H30 O3
CAS: 68-96-2
Molecular weight: 330
m/z	RELATIVE INTENSITY
39	1610
40	442
41	6363
42	519
43	9869
44	3896
45	909
51	312
53	2805
54	519
55	6155
56	519
57	1247
58	1117
59	831
65	1558
66	649
67	5506
68	1039
69	1636
70	208
71	2208
72	390
77	4883
78	1169
79	7064
80	1039
81	4026
82	519
83	1636
84	338
85	597
87	2285
91	7272
92	1351
93	4935
94	1169
95	3584
96	753
97	3948
98	390
99	312
100	831
101	208
103	727
104	493
105	5246
106	1091
107	4103
108	1376
109	3584
110	779
111	987
113	519
115	909
116	390
117	1766
118	649
119	3117
120	1506
121	4155
122	2415
123	4623
124	4026
125	779
128	597
129	1117
130	701
131	2026
132	519
133	2285
134	1039
135	1480
136	1870
137	1247
141	312
142	260
143	987
144	519
145	3324
146	779
147	2337
148	1117
149	1688
150	467
155	545
157	831
158	312
159	1870
160	649
161	1766
162	649
163	779
169	467
171	857
172	312
173	1325
174	987
175	753
176	208
177	260
179	338
183	467
184	208
185	649
186	208
187	1039
188	467
189	727
197	208
199	519
200	312
201	987
202	519
203	390
207	52
209	234
211	831
212	208
213	779
214	312
215	545
216	260
217	338
225	286
226	467
227	831
228	312
229	6285
230	1247
231	519
241	208
242	1039
243	1299
244	3246
245	1247
246	312
251	416
269	2285
270	467
271	467
284	519
285	467
287	9999
288	2078
289	519
297	260
302	1376
303	338
312	1091
313	208
315	649
330	7662
331	1351
332	727
