Mass Spectrum: Hexa(methoxymethyl)melamine
Formula: C15 H30 N6 O6
CAS: 68002-20-0
Molecular weight: 390
Origin: NIST Mass Spectrometry Data Center, 1994
m/z	RELATIVE INTENSITY
14	43
15	248
28	84
29	442
30	120
31	70
32	47
41	46
42	526
43	56
44	46
45	9999
46	229
54	35
55	341
57	94
68	100
69	802
70	43
71	47
72	128
75	76
80	152
81	52
82	113
84	51
85	350
96	145
98	83
99	134
107	48
109	30
110	130
121	37
122	27
123	74
134	103
148	60
149	45
150	62
151	38
161	78
163	4040
164	392
165	83
166	52
175	47
177	3343
178	434
179	97
180	110
191	155
192	58
193	533
194	73
195	51
205	59
207	6283
208	747
209	168
210	48
221	70
222	206
223	237
224	40
237	2845
238	414
239	1163
240	140
251	57
252	382
253	280
254	54
267	7508
268	1072
269	200
281	67
283	2479
284	401
285	55
297	50
298	76
299	55
311	61
312	146
313	1248
314	216
315	40
327	56
328	518
329	173
343	9923
344	1651
345	351
346	42
358	250
359	1932
360	464
361	68
375	3358
376	585
377	95
390	43
