Mass Spectrum: 5-Methyl-5-hexen-3-yn-2-ol
Formula: C7 H10 O
CAS: 68017-33-4
Molecular weight: 110
Origin: NIST Mass Spectrometry Data Center, 1990.
m/z	RELATIVE INTENSITY
14	219
15	696
16	229
18	153
26	343
27	1464
28	756
29	1097
31	140
32	44
37	499
38	942
39	4758
40	1154
41	6106
42	677
43	6189
44	478
45	338
48	109
49	327
50	1719
51	2627
52	831
53	1593
54	238
55	845
60	74
61	482
62	822
63	1398
64	74
65	3738
66	1500
67	6360
68	536
69	262
73	131
74	452
75	193
76	156
77	1615
78	369
79	657
80	133
81	258
82	117
91	1097
92	343
93	586
94	117
95	9999
96	625
109	1292
110	1271
111	112
