Mass Spectrum: 2-Butenoic acid, 3,7-dimethyl-6-octenyl ester
Formula: C14 H24 O2
CAS: 68039-38-3
Molecular weight: 224
Origin: N.W. Davies, Centr. Sci. Lab., Univ. Tasmania, Hobart, Australia
m/z	RELATIVE INTENSITY
27	760
30	230
31	120
38	150
39	2230
41	9560
42	600
43	2090
45	60
51	210
52	70
53	790
54	210
55	2010
56	660
57	760
59	180
63	90
65	130
66	90
67	2810
68	2200
69	9999
70	960
79	310
80	300
81	5030
82	4720
83	780
87	810
91	60
94	300
95	4130
96	1210
97	520
99	160
103	130
105	120
107	100
109	1140
110	310
112	90
121	70
123	2750
124	400
132	60
135	70
137	120
138	2010
139	360
149	60
165	70
183	70
