Mass Spectrum: 1-Benzocyclobutenecarbonitrile
Formula: C9 H7 N
CAS: 6809-91-2
Molecular weight: 129
Origin: Chuck Anderson, Aldrich Chemical Co.
m/z	RELATIVE INTENSITY
26	134
27	203
28	53
36	12
37	143
38	184
39	711
40	30
41	16
49	12
50	902
51	937
52	256
53	30
61	113
62	230
63	607
64	127
65	47
73	39
74	423
75	598
76	911
77	542
78	412
79	45
85	40
86	52
87	105
88	48
89	247
90	21
98	61
99	106
100	72
102	5693
103	1050
104	66
114	20
129	9999
130	483
131	23
