Mass Spectrum: 4-(n-Decyloxy)benzoic acid,4-(n-hexyloxy)phenyl ether
Formula: C29 H42 O4
CAS: 68162-09-4
Molecular weight: 454
Origin: Tony Mujsce
m/z	RELATIVE INTENSITY
21	20
22	10
23	20
24	20
26	20
28	140
29	290
30	10
31	10
32	10
33	10
34	10
38	10
39	100
40	10
41	610
42	100
43	1141
44	110
50	10
51	10
52	10
53	70
54	20
55	440
56	60
57	360
58	10
62	10
63	10
64	50
65	210
66	30
67	30
68	10
69	150
70	30
71	90
73	10
76	50
77	30
78	10
79	30
81	100
83	60
85	150
86	10
91	30
92	160
93	430
94	90
95	10
97	10
104	130
105	90
106	50
107	30
109	380
110	340
111	30
115	10
119	10
120	380
121	6305
122	500
123	70
131	10
132	10
133	90
134	40
135	40
136	10
147	40
161	30
175	10
189	30
193	30
194	30
207	20
258	80
261	9999
262	1781
263	200
454	350
455	110
456	20
