Mass Spectrum: Methyl desoxycholate, 2TMS derivative
Formula: C31 H58 O4 Si2
CAS: 6818-41-3
Molecular weight: 550
Origin: STER CHOL MTMS 00 0000 E M.HORN
m/z	RELATIVE INTENSITY
41	600
43	700
45	500
47	200
53	150
55	2000
56	150
57	200
59	750
61	400
67	1000
69	600
71	150
72	200
73	7600
74	1350
75	5200
76	400
77	400
79	900
80	150
81	2100
82	200
83	700
85	200
87	200
89	400
91	1200
92	200
93	1700
94	400
95	1400
96	150
97	200
99	200
101	300
103	300
105	1400
106	400
107	1700
108	300
109	800
111	150
115	600
116	200
117	600
118	200
119	1000
120	350
121	900
122	200
123	300
129	800
130	200
131	700
132	200
133	900
134	300
135	550
141	200
142	200
143	600
144	200
145	900
146	300
147	1600
148	300
149	600
154	300
155	300
156	200
157	400
159	800
160	200
161	750
162	150
163	250
169	200
171	250
173	600
174	200
175	450
183	200
185	250
187	300
189	200
195	300
197	150
199	350
200	150
201	500
202	150
207	200
208	2250
209	600
211	150
213	500
214	300
215	400
216	200
221	300
227	250
228	250
229	300
253	150
254	450
255	9999
256	2200
257	250
261	150
283	200
303	150
316	200
334	200
335	1700
336	500
337	150
345	350
370	2600
371	800
372	150
430	200
431	79
432	29
445	100
446	29
459	39
460	450
461	179
462	59
463	29
535	989
536	400
537	150
538	39
550	29
