Mass Spectrum: 1H-1,2,4-Triazole, 3-chloro-
Formula: C2 H2 Cl N3
CAS: 6818-99-1
Molecular weight: 103
Origin: A.A.Kutin, Moscow, Russia
m/z	RELATIVE INTENSITY
33	527
35	692
36	290
38	1421
39	1207
40	1114
42	9999
44	121
47	3347
48	1715
49	837
50	491
53	428
54	79
55	68
56	64
57	91
59	252
61	181
62	632
64	230
67	133
68	78
69	135
70	37
71	65
73	189
76	6204
78	1805
79	16
80	1
81	17
82	33
83	41
84	88
85	54
86	66
87	3
88	7
89	1
90	1
91	7
94	18
95	10
96	23
97	58
98	24
100	102
102	238
103	9562
105	3148
107	53
