Mass Spectrum: Cholan-24-oic acid, 3,7,12-tris(acetyloxy)-, methyl ester, (3.alpha.,5.beta.,7.alpha.,12.alpha.)-
Formula: C31 H48 O8
CAS: 6818-44-6
Molecular weight: 548
Origin: Div. of Experiment Therapeutics WRAIR, WRAMC, Washington DC 20307
m/z	RELATIVE INTENSITY
41	494
43	9999
44	206
45	71
49	23
51	10
53	125
55	1633
57	258
59	293
61	484
65	54
67	509
68	23
69	236
71	84
73	466
74	601
75	23
77	144
79	374
81	755
82	40
83	467
84	82
85	97
87	107
88	19
91	428
93	836
94	292
95	668
96	80
97	87
99	67
101	20
103	50
105	757
106	180
107	476
108	75
109	176
110	34
111	41
112	12
113	25
115	308
116	47
117	218
118	137
119	238
120	81
121	218
122	73
123	121
124	34
125	43
126	23
127	25
128	43
129	88
130	62
131	297
132	109
133	269
134	90
135	150
136	32
137	42
141	125
142	71
143	335
144	211
145	541
146	127
147	229
148	29
149	49
151	10
153	16
154	157
155	177
156	110
157	332
158	127
159	162
160	39
161	74
162	23
163	51
164	10
165	23
167	39
169	119
170	44
171	162
172	96
173	134
174	45
175	67
176	21
177	31
179	12
180	11
181	35
182	23
183	117
184	70
185	174
186	61
187	99
188	18
189	19
193	20
194	12
195	69
197	220
198	60
199	138
200	30
201	44
202	12
203	13
205	10
206	13
207	35
208	33
209	51
211	210
212	98
213	149
214	89
215	74
216	17
217	13
221	13
223	38
225	113
226	406
227	275
228	61
229	50
230	17
231	16
235	13
236	12
237	46
238	21
239	40
240	17
241	22
243	16
244	10
245	18
247	33
251	23
253	1016
254	239
255	60
256	10
257	19
258	12
259	30
260	27
261	121
262	32
263	12
265	16
267	13
269	13
271	32
272	23
273	19
274	63
275	28
277	11
279	20
281	69
282	21
285	16
286	79
287	23
290	11
294	15
295	47
296	10
297	12
299	11
309	9
311	11
313	491
314	217
315	53
316	9
319	11
321	31
325	13
326	15
327	26
335	13
336	12
337	72
338	17
339	16
341	10
343	14
353	148
354	65
355	68
356	18
357	22
367	53
368	772
369	567
370	107
371	19
373	22
385	20
386	49
387	18
397	35
413	33
414	18
415	13
427	30
428	955
429	580
430	111
431	13
446	14
457	14
489	30
