Mass Spectrum: Methyl cholate, 3TMS derivative
Formula: C34 H66 O5 Si3
CAS: 6818-43-5
Molecular weight: 638
m/z	RELATIVE INTENSITY
41	906
42	209
43	871
44	383
45	383
47	35
50	35
51	35
53	244
54	35
55	2404
56	279
57	592
58	279
59	592
60	279
61	279
65	35
67	1080
68	279
69	1045
70	209
71	279
72	70
73	8640
74	976
75	3101
76	314
77	383
79	871
80	174
81	2021
82	279
83	976
84	35
85	906
86	35
87	35
89	279
91	976
92	209
93	1568
94	453
95	1742
96	244
97	314
98	35
99	314
101	383
102	35
103	592
104	35
105	1533
106	348
107	1533
108	279
109	976
110	35
111	209
112	70
113	209
115	941
116	279
117	906
118	279
119	1289
120	383
121	1080
122	244
123	383
124	35
125	209
126	35
127	209
128	35
129	1568
130	418
131	1045
132	279
133	976
134	279
135	592
136	35
137	209
141	348
142	453
143	1359
144	383
145	1533
146	383
147	1568
148	279
149	488
150	35
151	70
152	70
153	70
154	70
155	453
156	314
157	1045
158	279
159	1185
160	279
161	488
162	70
163	244
164	70
165	70
166	70
167	209
168	209
169	557
170	174
171	766
172	383
173	627
174	209
175	383
176	70
177	209
178	70
179	70
180	70
181	279
182	209
183	488
184	209
185	592
186	209
187	383
188	70
189	244
191	70
192	70
193	314
194	209
195	662
196	209
197	453
198	209
199	906
200	279
201	383
203	70
205	70
206	70
207	383
208	383
209	488
210	209
211	732
212	383
213	662
214	279
215	279
216	35
217	35
218	35
219	209
220	70
221	279
222	209
223	279
224	35
225	453
226	1533
227	1428
228	383
229	279
230	35
231	70
232	105
233	209
234	70
235	279
236	35
237	279
238	35
239	383
240	139
241	105
242	70
243	1045
244	453
245	383
247	279
248	209
249	209
250	35
251	209
252	139
253	9999
254	2369
255	418
256	662
257	279
258	209
259	488
260	488
261	1428
262	766
263	279
264	70
265	70
266	70
267	70
269	209
270	35
271	2299
272	592
273	418
274	279
275	279
279	35
280	35
281	1045
282	314
286	70
287	209
288	209
289	279
290	35
291	35
293	35
294	35
295	209
296	35
297	279
298	35
299	209
300	35
301	383
302	70
303	70
304	70
307	70
309	279
310	70
311	70
312	70
313	453
314	418
315	209
316	70
317	209
318	70
319	279
320	70
321	70
325	70
326	70
327	383
328	70
329	70
337	418
338	209
339	35
340	70
341	70
342	139
343	244
344	766
345	209
350	70
351	35
352	209
353	35
354	1324
355	418
356	801
357	209
358	70
361	35
367	174
368	6898
369	3902
370	906
371	592
372	70
373	70
385	35
386	1428
387	488
388	35
391	70
392	70
427	523
428	209
429	70
431	35
432	209
433	70
439	209
440	209
441	70
443	592
444	209
445	244
446	244
447	70
457	70
458	2996
459	1080
460	314
461	244
548	279
549	105
550	70
623	592
624	279
625	70
