Mass Spectrum: 1,1'-Biphenyl, 2,2',3,4,5,6'-Hexachloro-
Formula: C12 H4 Cl6
CAS: 68194-15-0
Molecular weight: 358
Origin: Organic Synthesis Lab, MSU, Moscow.TRC 1243
m/z	RELATIVE INTENSITY
43	18
44	167
45	14
47	80
48	19
49	118
50	137
51	74
55	18
59	15
60	95
61	279
62	112
63	44
66	15
71	52
72	140
73	471
74	353
75	176
76	18
78	104
79	71
82	18
83	55
84	232
85	259
86	173
87	68
94	28
95	42
96	222
97	243
98	342
99	161
100	18
106	35
107	108
108	409
109	800
110	633
111	138
112	11
113	18
115	41
116	15
118	89
119	56
120	193
121	187
122	296
123	128
124	25
126	462
127	465
130	23
131	104
132	231
133	214
134	144
135	71
136	15
141	18
142	44
143	135
144	1336
145	1521
146	916
147	419
148	185
149	46
154	19
155	29
156	89
157	95
158	108
159	41
160	22
162	216
163	170
165	60
167	35
168	59
169	88
170	51
171	52
172	29
174	13
178	22
179	223
180	414
181	387
182	412
183	362
184	141
185	123
191	17
192	104
193	51
194	87
195	25
196	40
202	22
203	32
204	61
205	54
206	49
215	47
216	53
217	218
218	1321
219	277
220	989
221	154
222	139
223	20
225	35
227	33
228	37
229	38
230	39
240	27
241	30
250	16
251	24
252	338
253	381
254	302
255	347
256	152
257	151
258	36
259	20
262	38
264	35
266	19
288	3970
289	517
290	5012
291	683
292	2322
293	304
294	535
295	52
296	50
322	66
323	1884
324	348
325	2915
326	490
327	1804
328	308
329	580
330	70
331	100
358	5122
359	674
360	9999
361	1325
362	8227
363	1107
364	3402
365	455
366	882
367	126
368	80
