Mass Spectrum: 2,2',4,6'-Tetrachloro-1,1'-biphenyl
Formula: C12 H6 Cl4
CAS: 68194-04-7
Molecular weight: 290
Origin: Organic Synthesis Lab, MSU, Moscow.TRC 1336
m/z	RELATIVE INTENSITY
51	288
60	88
61	459
62	351
63	170
67	56
68	52
72	131
73	647
74	1137
75	1083
76	82
79	154
84	285
85	402
86	391
87	306
92	1421
96	76
97	350
98	852
99	576
100	127
108	153
109	737
110	2455
111	1457
112	360
113	55
114	71
115	73
119	28
120	79
121	224
122	489
123	661
124	168
125	91
127	805
128	747
130	48
132	126
133	217
134	74
135	178
136	59
137	122
138	40
145	423
146	737
147	825
148	321
149	811
150	2257
151	258
158	72
159	184
160	104
161	82
169	66
170	146
171	47
172	97
181	62
183	189
184	1056
185	1092
186	459
187	264
194	146
196	138
204	60
206	57
218	100
220	6589
221	912
222	4695
223	624
224	820
225	98
254	238
255	2663
256	559
257	2751
258	538
259	966
260	149
261	78
290	7108
291	1254
292	9999
293	1426
294	5025
295	711
296	1238
297	143
298	125
