Mass Spectrum: 2,2',3,4',6-Pentachloro-1,1'-biphenyl
Formula: C12 H5 Cl5
CAS: 68194-05-8
Molecular weight: 324
Origin: Organic Synthesis Lab, MSU, Moscow.TRC 1295
m/z	RELATIVE INTENSITY
51	90
55	47
60	106
61	368
62	276
63	122
66	39
67	36
71	44
72	163
73	621
74	951
75	337
76	49
79	192
80	92
83	65
84	340
85	436
86	330
87	162
92	733
93	264
94	20
95	43
96	194
97	379
98	615
99	313
100	84
103	54
107	132
108	324
109	1527
110	1196
111	389
112	50
114	100
115	125
116	23
119	45
120	129
121	195
122	489
123	336
124	114
127	2198
128	1934
129	628
130	112
131	81
132	153
133	302
134	183
135	164
136	52
137	24
138	25
143	58
144	451
145	666
146	949
147	537
148	362
149	474
150	49
156	58
157	133
158	139
159	92
160	70
161	43
162	391
163	832
164	494
165	182
166	42
168	35
169	100
170	94
171	65
172	52
173	47
180	47
181	61
182	206
183	470
184	1812
185	312
186	509
187	78
192	61
193	42
194	112
195	55
196	74
204	99
205	35
206	80
217	53
218	524
219	617
220	437
221	412
222	123
223	60
228	61
230	54
231	39
252	42
254	4001
255	842
256	4224
257	653
258	1511
259	202
260	158
289	1867
290	472
291	2416
292	384
293	1136
294	205
295	324
296	55
324	5912
325	830
326	9999
327	1033
328	4890
329	899
330	1792
331	179
332	266
333	46
