Mass Spectrum: 1,1'-Biphenyl, 2,3',4,5,5'-pentachloro-
Formula: C12 H5 Cl5
CAS: 68194-12-7
Molecular weight: 324
Origin: Organic Synthesis Lab, MSU, Moscow.TRC 1267
m/z	RELATIVE INTENSITY
44	252
47	67
49	178
50	431
51	148
60	168
61	606
62	401
63	197
72	220
73	813
74	1315
75	444
79	186
83	83
84	423
85	574
86	419
87	216
92	1215
93	389
94	41
96	217
97	509
98	930
99	549
100	68
107	145
108	405
109	2152
110	1439
111	431
114	194
115	102
116	57
120	153
121	220
122	391
123	436
124	100
127	2610
128	2387
129	838
130	145
131	82
132	137
133	324
134	169
135	205
143	78
144	635
145	787
146	627
147	488
148	347
149	449
150	81
157	90
158	116
159	105
162	454
163	705
164	447
165	193
166	85
169	134
170	94
171	148
182	193
183	424
184	1613
185	372
186	601
194	121
195	68
204	150
206	116
217	110
218	729
219	449
220	500
221	392
222	128
230	54
254	3568
255	574
256	3289
257	425
258	1232
259	176
260	144
288	119
290	184
291	93
292	115
293	75
324	6393
325	933
326	9999
327	1077
328	4579
329	855
330	1774
331	248
332	324
