Mass Spectrum: 2,2',3,4',5,6-Hexachloro-1,1'-biphenyl
Formula: C12 H4 Cl6
CAS: 68194-13-8
Molecular weight: 358
Origin: Organic Synthesis Lab, MSU, Moscow.TRC 1241
m/z	RELATIVE INTENSITY
44	328
47	143
48	92
49	226
50	397
51	150
60	199
61	690
62	301
63	104
67	156
72	371
73	1341
74	989
75	380
83	118
84	610
85	587
86	505
87	169
91	575
96	578
97	640
98	1065
99	253
107	311
108	928
109	2702
110	1536
111	423
114	202
115	165
119	128
120	424
121	417
122	707
123	242
126	1435
127	1362
131	258
132	598
133	411
134	301
135	171
144	3653
145	4640
146	2709
147	928
148	433
149	123
156	149
157	222
158	151
159	98
161	392
162	719
168	121
169	154
171	118
179	761
180	1377
181	1269
182	981
183	800
184	234
185	242
192	151
193	99
194	195
204	108
205	118
216	179
217	481
218	2724
219	526
220	1575
221	317
222	241
228	106
230	114
252	556
253	676
254	637
255	653
256	264
257	243
288	5089
289	843
290	6391
291	1045
292	3233
293	533
294	776
295	114
296	91
322	92
323	2213
324	438
325	3250
326	468
327	1738
328	248
329	637
331	146
358	5343
359	911
360	9999
361	1451
362	8429
363	1178
364	3614
365	426
366	901
368	133
