Mass Spectrum: 1,1'-Biphenyl, 2,2',4,5,6'-pentachloro-
Formula: C12 H5 Cl5
CAS: 68194-06-9
Molecular weight: 324
Origin: Organic Synthesis Lab, MSU, Moscow.TRC 1285
m/z	RELATIVE INTENSITY
51	263
55	53
56	21
59	20
60	137
61	875
62	434
63	199
66	50
67	86
68	37
71	59
72	289
73	1108
74	1423
75	565
76	32
80	107
83	102
84	466
85	583
86	509
87	251
89	37
92	1173
95	83
96	290
97	581
98	913
99	619
100	117
102	41
103	49
104	21
106	32
107	184
108	496
109	2358
110	1587
111	461
112	56
114	187
115	134
116	82
118	43
119	65
120	141
121	293
122	622
123	469
124	103
125	54
127	3019
128	2906
129	913
130	146
131	80
132	290
133	352
134	204
135	184
136	52
137	35
143	75
145	804
146	743
147	517
148	421
149	546
150	82
156	105
157	125
158	178
159	123
160	73
161	60
162	638
163	819
164	542
165	179
166	57
168	57
169	112
170	108
171	86
172	62
173	35
179	34
180	42
181	108
182	187
183	578
184	2326
185	430
186	725
187	92
192	27
193	84
194	129
195	98
196	72
203	59
204	177
205	47
206	100
207	39
208	64
216	42
217	75
218	677
219	688
220	622
221	429
222	174
223	82
228	75
230	81
232	32
240	34
249	31
252	48
254	4721
255	882
256	6091
257	800
258	1712
259	252
260	235
261	31
289	1582
290	339
291	2216
292	340
293	1245
294	190
295	205
296	43
324	6190
325	949
326	9999
327	1305
328	6275
329	858
330	1671
331	232
332	306
