Mass Spectrum: 1,1'-Biphenyl, 2,2',3,3',4,5,5',6-Octachloro-
Formula: C12 H2 Cl8
CAS: 68194-17-2
Molecular weight: 426
Origin: Organic Synthesis Lab, MSU, Moscow.TRC 1189
m/z	RELATIVE INTENSITY
41	21
44	155
47	38
50	29
56	15
57	19
60	44
61	53
62	20
69	11
71	29
72	74
73	129
74	75
78	40
83	35
84	134
85	87
86	42
90	124
94	15
95	85
96	76
97	80
98	33
106	33
107	110
108	237
109	166
110	74
111	18
113	24
115	12
118	56
119	68
120	185
121	76
122	36
130	28
131	55
132	149
133	80
134	47
141	24
142	115
143	425
144	576
145	303
146	183
147	36
148	12
149	23
155	34
156	102
157	30
158	33
160	128
161	201
165	11
166	60
167	43
168	70
169	44
177	38
178	472
179	911
180	880
181	400
182	144
183	42
190	40
191	29
192	42
193	31
194	22
195	52
196	80
201	20
202	25
203	38
204	21
205	24
212	14
213	116
214	273
215	407
216	496
217	179
218	221
219	29
220	38
226	33
228	37
230	12
238	38
239	47
240	38
241	32
242	15
249	22
250	138
251	231
252	175
253	196
254	66
255	81
261	21
262	38
264	33
265	19
273	23
274	28
276	19
284	15
285	63
286	1133
287	202
288	1484
289	198
290	612
291	72
292	154
293	25
296	28
298	29
300	28
308	22
309	26
311	26
313	24
320	121
321	359
322	215
323	524
324	188
325	348
326	101
327	105
328	22
329	23
356	2206
357	341
358	4686
359	628
360	3803
361	457
362	1559
363	181
364	430
365	53
366	56
390	24
391	1108
392	175
393	2688
394	335
395	2610
396	352
397	1357
398	197
399	448
400	60
401	87
426	3421
427	4700
428	8525
429	1105
430	9999
431	1269
432	6093
433	831
434	2367
435	287
436	651
437	97
438	92
