Mass Spectrum: Phosphoramidous dichloride, dimethyl-
Formula: C2 H6 Cl2 N P
CAS: 683-85-2
Molecular weight: 145
Origin: A.Pleshkova, Nesmeyanov Inst.Org.Elem.Cpds, Moscow
m/z	RELATIVE INTENSITY
15	7026
16	320
18	911
26	250
27	631
28	2562
29	320
30	1722
31	2462
32	771
33	611
35	1932
36	1511
37	631
38	530
39	320
40	601
41	911
42	9999
43	2913
44	2182
45	811
46	320
47	460
50	250
58	380
59	450
60	1531
61	200
66	1852
67	591
68	651
69	310
81	480
85	520
94	1051
101	4904
102	130
103	3223
104	80
105	540
106	10
109	250
110	9699
111	520
112	3123
113	160
129	320
131	210
133	30
144	330
145	2772
146	290
147	1792
148	90
149	310
150	10
