Mass Spectrum: 2-Bromoacetamide
Formula: C2 H4 Br N O
CAS: 683-57-8
Molecular weight: 137
Origin: NIST Mass Spectrometry Data Center, 1994
m/z	RELATIVE INTENSITY
5	42
12	182
13	370
14	973
15	78
16	639
17	63
18	101
25	95
26	10
28	1971
30	3709
32	1
38	164
39	192
40	521
41	731
42	3576
43	377
44	9999
46	35
58	233
79	834
80	253
81	848
82	232
91	248
92	285
93	1445
94	752
95	1292
96	492
119	59
120	128
121	168
122	123
123	118
137	2674
138	69
139	2623
140	69
