Mass Spectrum: Acetamide, 2,2-dichloro-
Formula: C2 H3 Cl2 N O
CAS: 683-72-7
Molecular weight: 127
Origin: Japan AIST/NIMC Database- Spectrum MS-NW-4909
m/z	RELATIVE INTENSITY
12	20
13	60
14	20
15	10
16	109
17	10
26	10
27	119
28	419
29	80
35	80
36	159
37	30
38	50
39	20
40	20
41	60
42	10
43	99
44	9999
45	149
46	20
47	139
48	379
49	179
50	119
51	50
62	20
63	10
64	159
66	50
74	10
75	10
76	209
78	60
82	30
83	259
84	20
85	159
87	20
92	50
94	10
110	20
112	10
127	239
128	10
129	139
131	20
