Mass Spectrum: Diethyl methanephosphonate
Formula: C5 H13 O3 P
CAS: 683-08-9
Molecular weight: 152
Origin: NIST Mass Spectrometry Data Center, 1994
m/z	RELATIVE INTENSITY
4	24
13	20
14	91
15	847
16	43
19	37
26	379
27	1915
28	823
29	2241
30	126
31	407
32	44
33	35
39	27
41	51
42	167
43	685
44	134
45	1283
46	27
47	1776
48	264
49	331
51	44
59	23
61	78
62	178
63	229
64	23
65	1714
77	178
79	9999
80	3843
81	1915
82	36
91	576
92	66
93	517
94	19
95	82
96	19
97	9864
98	126
99	66
107	2147
108	2334
109	756
110	34
123	936
125	7244
126	251
127	52
137	667
138	31
151	176
152	377
153	122
