Mass Spectrum: N-Methylpivalamide
Formula: C6 H13 N O
CAS: 6830-83-7
Molecular weight: 115
Origin: NIST Mass Spectrometry Data Center
m/z	RELATIVE INTENSITY
15	591
16	10
26	80
27	781
28	210
29	2402
30	691
31	170
32	330
37	50
38	150
39	1972
40	330
41	6015
42	851
43	220
44	310
45	30
49	10
50	70
51	90
52	40
53	180
54	70
55	480
56	1141
57	9999
58	5495
59	430
60	2853
61	70
66	10
67	10
68	20
69	470
70	210
71	30
72	1792
73	1071
74	30
82	40
83	70
84	40
85	70
86	10
98	20
100	1181
101	70
114	120
115	2873
116	250
117	10
