Mass Spectrum: 1,2,4,5-Tetrazine, 3,6-diphenyl-
Formula: C14 H10 N4
CAS: 6830-78-0
Molecular weight: 234
Origin: V.I. COHEN, 38 MODABER AVE., TEHRAN, IRA
m/z	RELATIVE INTENSITY
39	300
50	600
51	400
52	300
75	300
76	2100
77	400
103	9999
104	1000
234	1000
