Mass Spectrum: Benzeneacetamide, N-methyl-
Formula: C9 H11 N O
CAS: 6830-82-6
Molecular weight: 149
Origin: L.N.Kulikova, V.G. Zaikin, Peoples' Friendship University of Russia, Moscow
m/z	RELATIVE INTENSITY
15	150
18	50
26	10
27	30
28	20
29	60
30	110
37	20
38	130
39	701
40	70
41	160
42	110
43	30
45	80
46	10
50	230
51	410
52	120
53	40
55	10
56	20
58	5405
59	160
60	20
61	60
62	250
63	731
64	230
65	1952
66	120
70	20
73	20
74	70
75	50
76	30
77	100
78	40
79	20
85	20
86	40
87	60
89	871
90	420
91	8338
92	9999
93	791
94	30
103	10
104	30
106	20
107	10
116	10
117	10
118	110
119	30
120	30
146	20
147	30
148	10
149	1081
150	130
151	10
