Mass Spectrum: 3-Bromo-4-fluorobenzotrifluoride
Formula: C7 H3 Br F4
CAS: 68322-84-9
Molecular weight: 242
Origin: NIST Mass Spectrometry Data Center
m/z	RELATIVE INTENSITY
14	20
17	10
19	130
26	140
28	370
31	1201
32	60
33	50
37	480
38	230
40	10
47	100
49	270
50	1231
51	300
55	80
56	370
57	360
60	90
61	490
62	721
63	1001
68	1071
69	1962
70	70
71	80
72	150
73	440
74	1451
75	1421
76	100
79	460
80	210
81	671
86	120
87	160
91	120
92	470
93	1311
94	1782
95	130
98	90
99	370
103	110
104	110
105	60
106	70
112	681
113	1782
114	120
117	270
118	130
121	70
122	80
123	250
125	340
132	60
137	100
143	1822
144	1401
145	90
163	5525
164	400
173	120
175	80
192	1481
193	150
194	1511
195	130
223	2783
225	2913
226	180
242	9999
243	1361
244	9318
245	731
