Mass Spectrum: p-(1H-1,2,4-Triazol-1-yl) phenol
Formula: C8 H7 N3 O
CAS: 68337-15-5
Molecular weight: 161
Origin: NIST Mass Spectrometry Data Center, 1994
m/z	RELATIVE INTENSITY
13	130
14	43
15	113
16	173
17	45
18	72
26	675
27	1036
28	1396
29	233
30	45
37	276
38	624
39	1542
40	349
41	120
42	136
43	104
44	29
50	539
51	1480
52	5303
53	1748
54	520
55	317
61	239
62	405
63	692
64	334
65	630
66	146
67	129
74	108
75	110
76	158
77	241
78	675
79	3176
80	1752
81	473
93	150
107	9623
108	791
133	287
134	1213
161	9999
162	863
