Mass Spectrum: Eburnamenine-14-carboxylic acid, 14,15-dihydro-14-hydroxy-, methyl ester, (3.alpha.,14.alpha.,16.alpha.)-
Formula: C21 H26 N2 O3
CAS: 6835-99-0
Molecular weight: 354
m/z	RELATIVE INTENSITY
29	1143
30	476
31	571
39	444
41	1174
42	1778
43	889
44	381
45	222
53	381
54	222
55	730
56	159
57	127
59	952
68	508
69	254
70	190
71	381
78	286
79	127
80	127
81	222
89	159
90	159
91	159
92	159
95	190
96	286
101	159
102	159
103	159
104	159
110	254
111	159
114	159
115	571
116	127
117	127
127	127
128	508
129	159
130	508
131	127
132	190
133	571
140	349
141	190
142	286
143	603
144	635
147	762
152	381
153	190
154	571
155	222
156	444
166	190
167	2222
168	1841
169	1079
170	317
171	190
179	444
180	1905
181	889
182	762
192	317
193	381
194	635
195	508
196	952
197	762
198	127
206	444
207	381
208	571
209	1428
210	571
220	190
221	254
222	889
223	952
224	2984
225	825
226	127
236	571
237	2159
238	825
239	222
251	2159
252	9999
253	2666
254	254
264	381
265	889
266	1587
267	1651
268	1174
278	317
279	190
284	1079
285	190
293	2032
294	1905
295	2603
296	476
307	3174
308	730
325	571
326	159
339	222
353	6095
354	8888
355	2222
356	317
357	37
