Mass Spectrum: 6-Tetradecanone
Formula: C14 H28 O
CAS: 6836-42-6
Molecular weight: 212
Origin: NIST Mass Spectrometry Data Center, 1994
m/z	RELATIVE INTENSITY
15	88
17	16
18	35
26	116
27	2582
28	693
29	4241
30	98
39	1404
40	350
41	5593
42	1577
43	9999
44	340
50	17
51	57
52	36
53	415
54	252
55	3104
56	695
57	3565
58	5381
59	1728
60	68
65	64
66	29
67	594
68	190
69	484
70	29
71	7589
72	1430
73	106
77	42
79	75
80	48
81	783
82	325
83	315
84	122
85	963
86	239
87	19
93	27
94	23
95	198
96	834
97	248
98	346
99	3038
100	429
101	31
109	139
110	41
111	28
112	30
113	308
114	762
115	576
116	51
123	191
124	29
127	750
128	115
138	86
139	18
141	2171
142	248
143	20
156	307
157	79
169	223
170	64
183	73
212	99
213	27
