Mass Spectrum: 6-Pentadecanol
Formula: C15 H32 O
CAS: 6836-40-4
Molecular weight: 228
Origin: NIST Mass Spectrometry Data Center, 1994
m/z	RELATIVE INTENSITY
4	2
15	41
18	61
19	39
27	1676
28	387
29	3881
30	145
31	383
39	922
40	247
41	5801
42	1293
43	4951
44	843
45	290
51	32
52	24
53	302
54	396
55	7423
56	1105
57	3303
58	463
59	90
65	51
66	63
67	518
68	266
69	2710
70	575
71	942
72	182
73	41
77	41
79	67
80	40
81	378
82	639
83	9999
84	803
85	216
86	23
95	122
96	218
97	1864
98	205
99	154
100	314
101	2491
102	153
109	36
110	94
111	229
112	78
113	33
114	31
115	29
124	22
125	86
126	48
127	37
138	49
139	69
140	27
152	16
154	16
155	61
157	770
158	92
182	28
210	104
211	19
227	14
