Mass Spectrum: 3-Penten-2-one, 3,4-dimethyl-
Formula: C7 H12 O
CAS: 684-94-6
Molecular weight: 112
Origin: D.D.FAULK CENTRAL MISSOURI STATE COLLEGE, WARRENSBURG, USA
m/z	RELATIVE INTENSITY
13	56
14	552
15	2063
16	65
17	45
18	137
19	7
24	9
25	33
26	312
27	2037
28	1360
29	608
30	20
31	43
32	15
33	5
36	16
37	156
38	346
39	2674
40	457
41	7470
42	846
43	9999
44	345
45	53
46	7
47	4
48	3
49	61
50	316
51	486
52	204
53	913
54	194
55	1075
56	83
57	106
58	166
59	32
60	8
61	38
62	73
63	117
64	28
65	152
66	98
67	448
68	183
69	3611
70	657
71	81
72	47
73	8
74	17
75	18
76	11
77	265
78	60
79	386
80	34
81	129
82	42
83	106
84	37
85	21
86	15
87	7
89	8
91	130
92	27
93	86
94	190
95	78
96	92
97	1452
98	102
99	11
103	7
104	8
105	52
106	11
107	14
108	9
109	43
110	53
111	24
112	1562
113	125
114	12
