Mass Spectrum: 1,3-Butanediol, 2-methyl-
Formula: C5 H12 O2
CAS: 684-84-4
Molecular weight: 104
m/z	RELATIVE INTENSITY
14	30
15	230
16	10
17	20
18	80
19	370
25	10
26	80
27	801
28	280
29	931
30	70
31	1181
32	30
33	10
36	10
37	10
38	40
39	470
40	250
41	2412
42	6516
43	611
44	350
45	9999
46	240
47	90
48	10
49	10
50	30
51	40
52	10
53	160
54	30
55	711
56	1151
57	651
58	220
59	571
60	120
61	80
62	10
63	611
64	10
65	10
66	10
67	60
68	80
69	240
70	30
71	1842
72	110
73	180
74	20
75	210
76	10
77	40
78	10
79	10
80	10
81	10
82	10
83	10
84	10
85	70
86	230
87	160
88	20
89	410
90	20
91	10
95	10
97	10
98	10
99	20
100	10
101	70
102	10
103	80
104	10
105	30
