Mass Spectrum: Silane, dimethoxydiphenyl-
Formula: C14 H16 O2 Si
CAS: 6843-66-9
Molecular weight: 244
Origin: Japan AIST/NIMC Database- Spectrum MS-NW-6643
m/z	RELATIVE INTENSITY
15	60
27	30
28	129
29	50
30	10
31	40
32	30
38	10
39	70
44	10
45	279
46	10
47	20
50	129
51	369
52	50
53	159
54	20
55	40
58	30
59	1479
60	129
61	80
62	10
63	40
65	60
66	10
67	10
71	20
74	40
75	40
76	60
77	299
78	189
79	90
80	20
81	80
82	10
85	30
87	10
89	20
90	80
91	1359
92	179
93	20
95	10
97	10
99	10
101	10
102	20
103	50
104	30
105	539
106	169
107	1689
108	199
109	70
112	20
113	20
115	40
120	30
121	50
122	90
123	159
124	20
125	10
126	20
127	20
128	20
129	40
130	10
131	30
134	10
135	30
136	619
137	2329
138	319
139	119
140	10
141	10
143	10
148	20
149	10
150	10
151	80
152	199
153	529
154	2469
155	389
156	30
157	10
164	10
165	269
166	2859
167	9999
168	1499
169	469
170	40
179	20
180	80
181	359
182	90
183	409
184	80
185	20
188	50
190	20
197	70
198	20
199	30
200	10
211	139
212	80
213	419
214	109
215	20
243	40
244	2599
245	549
246	149
247	20
