Mass Spectrum: 2,4-Imidazolidinedione, 3-methyl-
Formula: C4 H6 N2 O2
CAS: 6843-45-4
Molecular weight: 114
Origin: James Little,Eastman Chem.Co.,Kingsport,TN
m/z	RELATIVE INTENSITY
27	400
28	1682
29	250
30	731
39	120
40	400
41	891
42	9999
43	7267
44	340
56	210
70	350
71	310
86	460
114	4714
115	350
116	30
