Mass Spectrum: Butyl 2-ethylhexanoate
Formula: C12 H24 O2
CAS: 68443-63-0
Molecular weight: 200
Origin: Japan AIST/NIMC Database- Spectrum MS-NW-3653
m/z	RELATIVE INTENSITY
15	50
18	10
26	70
27	1289
28	239
29	3089
30	70
31	99
32	10
33	10
38	20
39	739
40	129
41	3889
42	489
43	2449
44	90
45	259
47	40
50	20
51	40
52	20
53	189
54	109
55	1689
56	3429
57	9999
58	479
59	159
60	40
65	20
66	10
67	80
68	60
69	429
70	489
71	219
72	40
73	2289
74	149
75	50
77	10
79	20
80	20
81	40
82	20
83	189
84	30
85	129
86	30
87	1139
88	4709
89	1129
90	70
91	10
95	20
96	10
97	189
98	199
99	1649
100	129
101	1179
102	99
103	169
104	10
109	40
111	20
113	20
114	30
115	759
116	519
117	269
118	30
125	20
126	30
127	2609
128	249
129	419
130	40
142	10
143	139
144	1609
145	5339
146	509
147	50
157	109
158	20
171	99
172	399
173	50
185	10
200	20
