Mass Spectrum: Trifluoroacetamide, N-benzyl-N-methyl-
Formula: C10 H10 F3 N O
CAS: 68464-36-8
Molecular weight: 217
Origin: Nat. Inst. for Petroleum and Energy Research, Bartlesville, OK
m/z	RELATIVE INTENSITY
36	10
37	20
38	130
39	991
40	80
41	330
42	1401
43	110
44	140
50	410
51	821
52	190
53	30
56	130
57	110
58	20
60	140
62	150
63	550
64	190
65	2052
66	130
69	1902
74	210
75	60
76	100
77	621
78	340
79	1431
80	100
89	550
90	300
91	9999
92	891
93	30
96	390
97	90
103	40
104	150
105	260
106	30
107	991
108	180
109	30
110	811
111	20
112	50
118	300
119	220
120	130
124	10
127	230
131	30
132	340
133	70
134	10
140	330
146	10
147	270
148	1571
149	150
169	10
199	10
200	10
202	941
203	90
215	200
216	2702
217	4594
218	480
219	20
