Mass Spectrum: Phosphoric acid, bis[2-chloro-1-(chloromethyl)ethyl] 2,3-dichloropropyl ester
Formula: C9 H15 Cl6 O4 P
CAS: 68460-03-7
Molecular weight: 428
Origin: Susan Richardson
m/z	RELATIVE INTENSITY
43	70
44	20
47	230
48	30
49	2202
50	100
51	771
53	10
57	711
58	80
59	160
61	340
62	611
63	140
64	270
65	230
68	20
73	80
74	40
75	9999
76	480
77	3233
78	220
79	310
81	430
82	70
83	270
85	130
89	20
90	10
91	250
93	390
94	10
95	40
97	130
98	10
99	8317
109	250
110	330
111	1101
112	100
113	500
114	70
115	80
117	801
119	250
121	100
123	230
125	180
133	10
134	10
135	320
137	1171
138	70
139	260
140	20
141	130
143	80
149	50
151	90
155	2853
156	70
157	941
158	30
159	1191
161	410
163	30
171	70
172	30
173	641
174	10
175	150
177	80
179	10
185	30
189	30
191	8788
192	310
193	5335
194	270
195	931
196	40
199	60
202	10
209	5265
210	210
211	2983
212	70
213	591
215	30
217	40
223	10
229	40
233	60
235	50
237	20
247	230
249	180
251	360
252	10
253	40
255	10
269	540
270	10
271	440
273	200
283	280
284	30
285	210
287	80
296	10
301	1221
302	60
303	1221
304	30
305	671
307	80
309	30
319	2062
320	130
321	3163
322	320
323	1471
324	80
325	300
331	60
333	80
335	70
339	60
340	10
341	40
343	20
345	30
349	10
353	10
357	220
359	340
361	170
367	70
369	70
371	10
373	20
379	3243
380	220
381	5395
382	430
383	3123
384	340
385	1081
386	30
387	150
393	901
394	70
395	1561
396	60
397	871
398	50
399	240
