Mass Spectrum: 3-Chloro-N,N-dimethylaniline
Formula: C8 H10 Cl N
CAS: 6848-13-1
Molecular weight: 155
Origin: NIST Mass Spectrometry Data Center
m/z	RELATIVE INTENSITY
15	200
26	30
27	90
30	30
35	10
37	80
38	180
39	310
40	50
41	120
42	951
43	110
44	240
45	10
46	30
49	80
50	651
51	651
52	230
53	60
54	30
55	20
58	370
59	400
61	110
62	180
63	631
64	190
65	130
66	80
67	10
68	30
69	90
70	30
72	20
73	240
74	440
75	1141
76	340
77	1241
78	390
79	160
80	20
84	50
85	130
86	40
87	70
88	60
89	110
90	170
91	480
92	150
93	40
94	10
97	30
98	20
99	170
100	30
101	60
102	80
103	50
104	611
105	360
106	20
110	20
111	1151
112	380
113	440
114	120
115	20
116	20
117	160
118	1391
119	651
120	130
121	10
124	80
125	200
126	100
127	90
128	40
129	10
137	10
138	1141
139	1041
140	601
141	350
142	80
152	130
154	9999
155	6946
156	3853
157	2282
158	190
