Mass Spectrum: 2-Propenoic acid, 3-(2-furanyl)-, 2-methylpropyl ester
Formula: C11 H14 O3
CAS: 68480-18-2
Molecular weight: 194
Origin: W.Jennings, T.Shibamoto
m/z	RELATIVE INTENSITY
29	751
39	190
41	1251
55	721
56	631
57	2923
58	70
64	190
65	3443
66	1922
68	190
73	70
81	721
82	1251
88	70
92	721
93	1321
94	6456
95	510
96	190
97	70
98	190
109	190
110	3453
111	190
120	70
121	9999
122	1912
123	310
137	70
138	9529
139	2392
140	190
151	70
194	4654
195	851
