Mass Spectrum: 1,3-Butadiene, 1,1,2,3,4,4-hexafluoro-
Formula: C4 F6
CAS: 685-63-2
Molecular weight: 162
m/z	RELATIVE INTENSITY
12	20
19	10
24	20
31	1511
32	40
36	40
43	70
44	20
45	10
50	170
55	270
56	20
57	20
58	10
62	280
63	10
64	10
67	10
69	480
70	10
72	10
74	721
75	190
76	10
77	10
81	210
82	10
85	10
86	20
87	10
92	10
93	9999
94	370
95	30
105	30
106	10
107	10
112	1191
113	60
124	400
125	40
126	40
131	190
132	10
143	550
144	100
145	10
162	4394
163	210
164	10
