Mass Spectrum: 2-Methoxybenzylamine
Formula: C8 H11 N O
CAS: 6850-57-3
Molecular weight: 137
Origin: NIST Mass Spectrometry Data Center
m/z	RELATIVE INTENSITY
11	20
12	10
13	20
14	190
15	1591
16	200
17	160
18	140
26	230
27	711
28	3483
29	851
30	4444
31	320
37	340
38	931
39	2542
40	470
41	771
42	290
43	50
44	40
46	10
49	50
50	1531
51	3193
52	1151
53	651
54	410
55	130
60	10
61	200
62	601
63	1541
64	781
65	2762
66	1842
67	711
73	50
74	571
75	460
76	791
77	4854
78	2612
79	1962
80	210
89	591
90	190
91	4774
92	1261
93	2072
94	1722
95	1431
102	300
104	3543
105	1421
106	5645
107	2632
108	1591
109	1501
110	50
118	10
119	2172
120	3423
121	4784
122	2162
123	90
134	70
136	9999
137	6426
138	621
