Mass Spectrum: Benzene, 1,2,4-trichloro-5-ethoxy-
Formula: C8 H7 Cl3 O
CAS: 6851-44-1
Molecular weight: 224
m/z	RELATIVE INTENSITY
14	20
15	40
17	20
18	70
27	571
28	530
29	1101
30	30
31	10
32	90
36	20
37	90
38	30
39	30
40	10
41	20
42	10
43	60
44	40
45	30
47	40
49	70
50	60
51	20
53	100
55	10
56	10
60	70
61	300
62	500
63	170
64	20
65	30
66	30
67	20
71	50
72	190
73	380
74	310
75	130
76	10
77	10
80	10
81	20
83	220
84	120
85	170
86	40
87	60
90	20
91	40
94	20
95	30
96	170
97	1551
98	160
99	520
100	50
106	20
107	370
108	160
109	450
110	100
111	120
116	10
117	30
118	20
119	50
120	30
121	20
123	20
124	40
125	100
126	50
127	40
128	30
131	80
132	1091
133	701
134	731
135	410
136	140
137	70
143	200
144	140
145	190
146	100
147	60
148	30
149	10
159	40
160	270
161	130
162	210
163	80
164	50
165	10
167	450
168	50
169	430
170	50
171	140
172	10
173	20
176	10
177	20
179	130
180	30
181	130
182	20
183	40
188	40
189	20
190	30
192	20
194	10
195	70
196	9999
197	741
198	9589
199	671
200	3083
201	220
202	340
203	20
209	40
211	40
220	60
221	20
223	30
224	2372
225	240
226	2282
227	210
228	731
229	70
230	80
