Mass Spectrum: Benzaldehyde, 4-pentyl-
Formula: C12 H16 O
CAS: 6853-57-2
Molecular weight: 176
Origin: NIST Mass Spectrometry Data Center, 1994
m/z	RELATIVE INTENSITY
12	26
14	42
15	216
17	47
18	16
27	2143
28	416
29	2881
30	62
37	52
38	209
39	1925
40	221
41	2829
42	229
43	229
44	20
50	475
51	1165
52	238
53	224
54	33
55	268
56	73
57	759
58	62
61	37
62	236
63	810
64	314
65	1610
66	122
67	45
69	46
74	163
75	211
76	314
77	1508
78	474
79	490
80	49
87	88
89	1057
90	1383
91	9999
92	6057
93	461
94	58
101	66
102	177
103	604
104	236
105	941
106	121
107	101
115	524
116	136
117	199
118	526
119	2761
120	4682
121	455
122	52
127	42
128	47
129	105
130	58
131	323
132	101
133	387
134	92
143	59
145	158
147	414
148	78
158	45
161	113
175	1009
176	3161
177	487
