Mass Spectrum: 3-Hydroxymandelic acid, 3TMS derivative
Formula: C17 H32 O4 Si3
CAS: 68595-69-7
Molecular weight: 384
Origin: NIST Mass Spectrometry Data Center
m/z	RELATIVE INTENSITY
29	10
31	10
42	10
43	110
44	90
45	701
46	50
47	60
51	20
52	10
53	10
55	20
56	10
57	40
58	80
59	160
60	20
61	40
62	10
63	20
65	20
66	20
67	10
69	10
70	20
71	30
73	6986
74	611
75	540
76	40
77	110
78	20
79	10
81	10
83	20
85	20
87	20
88	10
89	70
90	10
91	160
92	20
93	20
95	50
96	10
97	10
99	10
101	10
102	20
103	80
104	30
105	160
106	20
107	20
109	20
111	10
113	10
115	60
116	20
117	100
118	20
119	100
120	20
121	40
122	10
123	20
129	10
131	190
132	40
133	480
134	70
135	200
136	30
137	30
143	10
145	40
147	2142
148	360
149	280
150	40
151	200
152	30
153	10
157	10
159	20
161	150
162	40
163	290
164	50
165	50
166	10
167	10
169	60
175	20
176	20
177	170
178	290
179	420
180	70
181	50
182	10
189	10
190	10
191	160
192	70
193	290
194	60
195	40
196	10
203	20
204	10
205	10
206	40
207	60
208	10
209	50
210	10
211	10
217	10
219	30
220	10
221	50
222	10
223	30
224	10
225	10
233	10
235	30
236	20
237	360
238	80
239	40
240	10
249	10
250	10
251	290
252	180
253	110
254	30
255	10
263	10
265	100
267	9999
268	2983
269	1211
270	200
271	30
279	10
280	10
281	10
293	10
295	10
296	10
339	10
341	751
342	230
343	110
344	20
345	10
369	260
370	80
371	40
372	10
384	90
385	30
386	10
