Mass Spectrum: Norepinephrine, (R)-, 4TMS derivative
Formula: C20 H43 N O3 Si4
CAS: 68595-65-3
Molecular weight: 457
Origin: WASHINGTON UNIVERSITY MEDICAL SCHOOL W.R. SHERMAN
m/z	RELATIVE INTENSITY
59	95
72	51
73	5430
74	526
75	457
77	169
100	32
102	2769
103	286
104	115
116	61
117	42
130	51
131	66
132	32
133	105
146	135
147	482
148	86
149	61
177	51
179	164
180	32
181	32
188	56
191	42
192	61
193	115
205	32
207	51
208	32
223	32
237	46
251	144
252	32
264	46
265	174
266	51
267	139
268	32
279	46
280	213
281	247
282	71
295	81
297	66
339	81
340	32
352	252
353	174
355	9999
356	3278
357	1526
358	350
359	86
367	179
368	100
369	32
370	32
442	374
443	149
444	86
