Mass Spectrum: Dopamine, 3TMS derivative
Formula: C17 H35 N O2 Si3
CAS: 68595-54-0
Molecular weight: 369
Origin: NIST Mass Spectrometry Data Center
m/z	RELATIVE INTENSITY
29	10
30	10
31	10
43	60
44	60
45	490
46	40
47	20
51	10
55	10
56	10
57	30
58	90
59	340
60	30
61	20
65	10
69	10
70	20
71	20
72	130
73	4804
74	470
75	260
76	10
77	30
78	20
79	10
83	10
84	10
85	10
86	160
87	70
88	20
89	20
90	10
91	40
95	10
97	10
98	10
99	10
100	40
102	9999
103	1211
104	530
105	70
106	10
107	10
109	10
115	40
116	10
117	40
118	20
119	60
120	10
121	10
123	10
129	10
130	20
131	70
132	20
133	110
134	20
135	30
136	10
137	10
143	10
145	10
146	10
147	120
148	20
149	120
150	20
151	30
159	10
161	30
162	20
163	40
164	10
165	20
166	20
167	10
174	10
175	10
176	10
177	60
178	10
179	390
180	70
181	50
182	10
189	10
190	10
191	10
192	20
193	240
194	40
195	20
205	10
206	10
207	20
208	10
209	30
210	10
218	10
219	10
220	10
221	10
223	10
233	10
234	10
235	10
236	10
237	90
238	20
239	10
248	10
249	20
250	10
251	20
252	10
253	20
265	40
266	200
267	210
268	641
269	160
270	60
271	10
279	10
280	150
281	40
282	20
354	180
355	60
356	30
357	10
367	20
368	20
369	60
370	20
371	10
