Mass Spectrum: Carbamodithioic acid, diethyl-, methyl ester
Formula: C6 H13 N S2
CAS: 686-07-7
Molecular weight: 163
Origin: Finnigan MAT: Toxicological Library (LIBR-TX)
m/z	RELATIVE INTENSITY
45	982
59	978
60	4694
72	1426
74	626
79	614
86	1639
88	7568
90	468
91	4033
106	359
116	6693
117	535
118	357
134	299
148	271
163	9999
164	1052
165	877
