Mass Spectrum: Cyclobutanethiol
Formula: C4 H8 S
CAS: 6861-61-6
Molecular weight: 88
Origin: CARL DJERASSI DEPT OF CHEM STANFORD UNIV STANFORD CALIF 94305
m/z	RELATIVE INTENSITY
42	202
43	101
44	202
45	1010
46	505
47	1212
48	101
49	101
50	101
51	101
53	606
54	1212
55	9999
56	404
58	303
59	505
60	1717
61	202
62	202
73	101
85	303
86	303
87	505
88	1111
89	101
90	101
