Mass Spectrum: 1,2-Bis(2-cyano-2-propyl)-hydrazine
Formula: C8 H14 N4
CAS: 6869-07-4
Molecular weight: 166
Origin: A.Pleshkova, Nesmeyanov Inst.Org.Elem.Cpds, Moscow
m/z	RELATIVE INTENSITY
41	220
42	1011
43	3323
44	190
53	611
54	190
55	2232
56	240
68	9999
69	5145
70	2642
71	240
96	520
97	831
111	631
123	851
124	210
138	621
139	350
166	651
167	240
168	50
