Mass Spectrum: Propanoic acid, 2-hydroxy-, ethyl ester, (L)-
Formula: C5 H10 O3
CAS: 687-47-8
Molecular weight: 118
Origin: NIST Mass Spectrometry Data Center
m/z	RELATIVE INTENSITY
13	20
14	130
15	500
16	30
19	571
25	30
26	340
27	1501
28	390
29	2432
30	240
31	50
41	10
42	190
43	1001
45	9999
46	250
47	190
53	10
55	60
56	90
57	10
58	40
71	10
72	10
73	10
75	721
76	20
89	20
90	10
103	50
