Mass Spectrum: Cyclohexane, 1,2-dimethyl-, trans-
Formula: C8 H16
CAS: 6876-23-9
Molecular weight: 112
Origin: Japan AIST/NIMC Database- Spectrum MS-NW-8340
m/z	RELATIVE INTENSITY
15	60
26	70
27	1259
28	279
29	1239
30	30
37	10
38	60
39	1579
40	279
41	4479
42	2479
43	1539
44	50
45	10
46	10
50	70
51	189
52	80
53	569
54	339
55	9999
56	3689
57	919
58	40
62	10
63	50
65	119
66	50
67	609
68	1099
69	2999
70	2849
71	299
72	10
77	109
78	20
79	90
80	10
81	149
82	329
83	1809
84	839
85	50
93	10
95	50
96	90
97	9189
98	709
99	20
111	90
112	2579
113	229
114	10
