Mass Spectrum: (Z)6-Pentadecen-1-ol
Formula: C15 H30 O
CAS: 68797-95-5
Molecular weight: 226
Origin: B.V. BURGER, DEP. CHEM., UNIV. STELLENBOSCH
m/z	RELATIVE INTENSITY
41	7600
42	1650
43	6370
45	340
53	810
54	5120
55	9570
56	2490
57	3220
58	180
60	200
65	200
66	890
67	9999
68	6350
69	5170
70	1710
71	1050
72	140
73	230
77	270
78	160
79	1140
80	970
81	6370
82	8810
83	3740
84	800
85	570
91	260
93	560
94	450
95	5040
96	4820
97	1870
98	440
99	200
107	160
108	130
109	2230
110	1630
111	550
112	200
121	120
122	130
123	870
124	820
125	170
126	110
137	410
138	460
139	110
151	160
152	330
166	100
180	220
208	550
209	130
226	20
