Mass Spectrum: Tripropyl borate
Formula: C9 H21 B O3
CAS: 688-71-1
Molecular weight: 188
Origin: P.J.FALLON UNIV. OF NEWCASTLE UPON TYNE, UK
m/z	RELATIVE INTENSITY
27	1800
28	600
29	700
31	1500
39	800
41	3100
42	1100
43	9999
44	1300
45	4900
55	500
56	600
57	700
58	800
59	1200
87	8400
101	1000
103	2300
104	300
117	5100
129	2700
145	1300
146	600
159	3800
173	1400
187	600
188	1100
