Mass Spectrum: N-(4-Chlorophenyl)-1,2-phenylenediamine
Formula: C12 H11 Cl N2
CAS: 68817-71-0
Molecular weight: 218
Origin: Chuck Anderson, Aldrich Chemical Co.
m/z	RELATIVE INTENSITY
18	44
27	330
28	563
38	226
39	862
41	187
50	514
51	783
52	862
53	968
54	259
61	47
62	217
63	871
64	563
65	1839
66	347
73	200
74	312
75	1276
76	510
77	1293
78	783
79	556
80	2429
81	341
83	89
85	126
89	156
90	534
91	4013
92	871
93	184
99	244
100	182
101	200
102	266
105	398
106	264
107	1188
108	134
109	259
111	503
112	86
113	211
115	39
117	389
118	774
119	277
126	140
127	464
128	345
129	259
130	40
132	140
138	158
139	228
140	255
143	41
151	147
152	55
153	178
154	695
155	294
156	250
158	41
164	158
166	616
167	532
168	411
179	200
180	167
181	2605
182	5985
183	5985
184	712
190	86
203	2288
204	275
205	712
214	117
215	303
216	224
217	2006
218	9999
219	1971
220	3379
221	404
