Mass Spectrum: cis-Undec-4-enal
Formula: C11 H20 O
CAS: 68820-32-6
Molecular weight: 168
Origin: MASS SPECTRA OF ORGANIC COMPOUNDS, CSIRO, B.H. KENNETT ET AL
m/z	RELATIVE INTENSITY
26	200
27	4100
29	4900
30	100
31	300
39	3300
41	9999
42	2300
43	5300
45	100
50	100
51	300
52	200
53	1400
54	4800
55	7200
56	2300
57	1500
58	100
65	400
66	600
67	3700
68	2000
69	2700
70	2300
71	500
75	100
77	600
78	200
79	1200
80	700
81	1800
82	1900
83	3500
84	8000
85	700
91	200
93	400
94	200
95	1000
96	1000
97	2000
98	1900
107	100
109	200
111	300
112	200
113	300
121	100
124	1600
125	200
150	500
168	50
