Mass Spectrum: trans-Undec-4-enal
Formula: C11 H20 O
CAS: 68820-35-9
Molecular weight: 168
Origin: MASS SPECTRA OF ORGANIC COMPOUNDS, CSIRO, B.H. KENNETT ET AL
m/z	RELATIVE INTENSITY
26	300
27	3100
29	4600
30	100
31	200
39	3400
41	9999
42	2400
43	5800
45	200
50	100
51	300
52	200
53	1500
54	4600
55	8000
56	2500
57	1800
58	100
65	500
66	600
67	4300
68	2300
69	3600
70	2900
71	500
75	300
77	700
78	200
79	1600
80	800
81	2000
82	2100
83	4400
84	9500
85	1000
86	100
91	300
93	400
94	200
95	1200
96	1100
97	2300
98	2200
107	200
109	200
111	400
112	200
113	400
121	200
124	1800
125	300
139	100
150	700
168	100
