Mass Spectrum: cis-Dodec-5-enal
Formula: C12 H22 O
CAS: 68820-33-7
Molecular weight: 182
Origin: MASS SPECTRA OF ORGANIC COMPOUNDS, CSIRO, B.H. KENNETT ET AL
m/z	RELATIVE INTENSITY
26	200
27	3700
29	5500
30	100
31	200
39	2900
41	9999
42	2000
43	5100
51	300
52	200
53	1400
54	8000
55	7100
56	1900
57	1500
58	100
65	500
66	800
67	6000
68	5100
69	2600
70	1700
71	400
75	100
77	600
78	300
79	1800
80	1000
81	3200
82	2800
83	1900
84	2200
85	200
91	400
92	100
93	800
94	500
95	1700
96	3100
97	1500
98	4000
105	100
107	300
108	100
109	1100
110	2000
111	800
112	300
121	300
123	100
138	2800
164	1000
182	80
