Mass Spectrum: trans-Dodec-5-enal
Formula: C12 H22 O
CAS: 68820-34-8
Molecular weight: 182
Origin: MASS SPECTRA OF ORGANIC COMPOUNDS, CSIRO, B.H. KENNETT ET AL
m/z	RELATIVE INTENSITY
26	400
27	4200
29	6100
30	200
31	200
39	3000
41	9999
42	1900
43	6500
45	200
51	100
52	200
53	1300
54	8200
55	7400
56	2000
57	2700
58	200
65	400
66	700
67	5700
68	3600
69	2300
70	1500
71	900
75	300
77	600
78	200
79	1300
80	800
81	2700
82	2300
83	1600
84	1500
85	500
91	300
92	100
93	500
94	300
95	1300
96	2500
97	1100
98	3000
107	200
108	100
109	800
110	1700
111	600
112	200
113	100
121	200
123	100
138	1900
139	300
164	500
182	20
