Mass Spectrum: 4(1H)-Pyridinethione,1-methyl-
Formula: C6 H7 N S
CAS: 6887-59-8
Molecular weight: 125
Origin: James Little,Eastman Chem.Co.,Kingsport,TN
m/z	RELATIVE INTENSITY
27	450
39	2853
41	861
42	3483
45	1481
51	851
52	741
53	711
55	611
57	981
65	400
66	591
68	380
69	2702
70	581
71	651
80	3163
81	9999
82	1321
83	1501
92	520
93	681
97	741
98	330
110	1071
124	1271
125	9278
126	941
127	480
