Mass Spectrum: 1-Buten-3-yne
Formula: C4 H4
CAS: 689-97-4
Molecular weight: 52
m/z	RELATIVE INTENSITY
2	40
12	60
13	30
14	30
15	20
24	50
25	330
26	841
27	180
28	40
29	10
31	10
36	150
37	440
38	160
39	30
40	10
48	290
49	1371
50	4584
51	4794
52	9999
53	440
54	10
