Mass Spectrum: Ethyne, difluoro-
Formula: C2 F2
CAS: 689-99-6
Molecular weight: 62
Origin: HCACAV,61(1)357(1978); G. BIERI ET AL
m/z	RELATIVE INTENSITY
31	700
43	1400
62	9999
