Mass Spectrum: Isopropyl acrylate
Formula: C6 H10 O2
CAS: 689-12-3
Molecular weight: 114
Origin: NIST Mass Spectrometry Data Center, 1994
m/z	RELATIVE INTENSITY
15	424
25	68
26	673
27	2793
28	273
29	324
31	151
32	18
37	51
38	140
39	851
40	193
41	1685
42	843
43	2934
44	150
45	222
53	117
55	9999
56	875
57	30
58	30
59	1554
60	63
68	103
69	240
70	46
71	50
72	30
73	3526
74	132
75	18
81	31
96	69
99	1294
100	69
113	17
114	16
