Mass Spectrum: Methyl sorbate
Formula: C7 H10 O2
CAS: 689-89-4
Molecular weight: 126
Origin: Japan AIST/NIMC Database- Spectrum MS-NW-4690
m/z	RELATIVE INTENSITY
13	20
14	40
15	1229
16	20
17	10
18	30
25	20
26	239
27	969
28	229
29	379
30	90
31	179
32	30
33	20
36	20
37	229
38	609
39	4219
40	919
41	5919
42	289
43	499
44	40
45	99
46	20
47	20
48	10
49	60
50	319
51	609
52	289
53	479
54	99
55	739
56	50
57	109
58	30
59	849
60	50
61	139
62	219
63	399
64	129
65	2059
66	2839
67	9999
68	709
69	159
70	20
71	90
72	359
73	20
74	20
75	50
77	129
78	60
79	219
80	30
81	219
82	90
83	569
84	99
85	139
86	10
87	10
91	99
92	50
93	299
94	439
95	7089
96	579
97	289
98	149
99	20
107	50
108	10
109	80
110	10
111	8499
112	589
113	60
124	10
125	529
126	4919
127	449
128	40
129	50
