Mass Spectrum: HC.$.CCOCH2CH2CH3
Formula: C6 H8 O
CAS: 689-00-9
Molecular weight: 96
Origin: A.Pleshkova, Nesmeyanov Inst.Org.Elem.Cpds, Moscow
m/z	RELATIVE INTENSITY
15	500
25	300
26	801
27	4704
28	500
29	1001
30	20
37	400
38	601
39	2803
40	2102
41	5105
42	1501
43	4004
44	140
50	400
51	400
53	9999
54	1501
55	1501
56	300
66	400
67	2002
68	9979
69	801
70	300
71	300
77	300
78	300
79	300
81	2502
82	300
83	300
95	2502
96	300
