Mass Spectrum: 4-Pyridinol-1-oxide
Formula: C5 H5 N O2
CAS: 6890-62-6
Molecular weight: 111
Origin: A.A.Kutin, Moscow, Russia
m/z	RELATIVE INTENSITY
33	51
34	20
36	79
37	447
38	1027
39	2445
40	1319
41	1697
42	867
43	1027
44	525
45	184
47	145
49	202
50	535
51	629
52	513
53	1127
54	953
55	3226
57	201
58	399
59	43
60	158
61	83
62	108
63	148
64	171
65	171
66	476
67	909
68	1286
69	460
71	874
72	43
73	67
74	63
75	66
76	185
77	52
78	42
79	52
80	19
81	66
82	140
83	345
84	343
85	129
86	4
87	18
91	22
92	33
94	539
95	3543
96	209
97	56
98	12
99	8
101	12
103	5
104	8
105	3
106	18
107	15
108	8
109	56
110	737
111	9999
112	572
113	68
114	10
