Mass Spectrum: Fluphenazine
Formula: C22 H26 F3 N3 O S
CAS: 69-23-8
Molecular weight: 437
Origin: Patti Price, Georgia Bureau of Investigation, Decatur, Georgia
m/z	RELATIVE INTENSITY
41	100
42	670
43	180
44	90
45	130
51	10
54	60
55	120
56	440
57	130
58	230
63	30
65	10
68	80
69	140
70	800
71	170
72	100
73	50
74	120
75	30
81	40
82	100
83	80
84	230
85	60
86	70
88	60
93	30
94	30
95	20
96	150
97	260
98	490
99	230
100	500
101	50
102	30
108	40
109	50
110	20
111	270
112	110
113	620
114	90
115	70
120	30
123	80
124	60
125	370
126	180
127	170
128	160
129	60
133	30
134	30
135	10
139	350
140	60
141	340
142	40
143	1491
144	130
145	40
151	40
152	100
153	420
154	80
155	30
157	660
158	80
164	30
165	30
166	30
167	30
168	30
169	60
170	40
171	510
172	70
176	20
177	40
178	60
179	20
182	20
183	10
184	70
185	30
194	30
195	50
196	180
197	90
198	70
199	40
201	60
202	140
203	630
207	10
208	50
209	40
210	60
211	50
212	40
213	30
214	50
215	60
216	70
219	30
220	50
221	40
222	220
223	90
224	30
226	50
227	50
228	120
229	30
230	30
233	70
234	140
235	210
236	50
238	30
239	70
240	80
241	30
245	30
246	150
247	400
248	2272
249	360
250	20
258	70
259	30
260	230
261	70
262	80
265	60
266	1771
267	1080
268	210
269	50
272	40
274	50
278	70
279	50
280	9999
281	1681
282	630
283	90
291	80
292	250
293	320
294	420
295	80
304	30
306	820
307	490
308	130
309	30
336	80
337	40
348	30
349	30
350	270
351	70
363	180
364	40
365	20
378	90
391	60
392	30
393	40
398	110
399	30
404	40
406	1040
407	900
408	210
409	60
419	690
420	200
421	60
435	50
436	20
437	1331
438	350
439	90
