Mass Spectrum: D-Mannitol
Formula: C6 H14 O6
CAS: 69-65-8
Molecular weight: 182
Origin: Japan AIST/NIMC Database- Spectrum MS-NW-9246
m/z	RELATIVE INTENSITY
14	30
15	749
16	10
17	99
18	519
19	1109
20	10
26	60
27	459
28	1169
29	959
30	139
31	1679
32	99
33	10
36	10
38	10
39	159
40	50
41	419
42	419
43	3329
44	2499
45	2249
46	119
47	129
49	50
51	10
53	40
54	50
55	799
56	2729
57	1879
58	159
59	169
60	1309
61	7959
62	319
63	40
67	10
68	40
69	399
70	40
71	559
72	139
73	9999
74	4739
75	349
76	30
77	30
79	10
81	30
82	10
83	30
84	20
85	1259
86	249
87	149
88	20
89	109
90	10
91	709
92	40
93	10
94	10
95	10
96	10
97	149
98	20
99	50
100	10
101	10
102	60
103	6199
104	509
105	60
110	20
111	40
115	359
116	99
117	20
121	60
128	10
129	99
133	1529
134	90
135	10
146	139
147	80
151	10
165	80
182	10
183	209
184	10
