Mass Spectrum: 2-Pentene, 4,4-dimethyl-, (E)-
Formula: C7 H14
CAS: 690-08-4
Molecular weight: 98
m/z	RELATIVE INTENSITY
1	60
2	30
12	10
13	20
14	80
15	941
16	50
25	10
26	190
27	2262
28	320
29	1581
30	30
31	10
32	10
33	10
37	120
38	260
39	2973
40	480
41	5575
42	380
43	1661
44	60
45	10
46	10
47	10
49	20
50	180
51	340
52	130
53	681
54	160
55	8518
56	801
57	460
58	20
60	10
61	20
62	40
63	100
64	20
65	180
66	90
67	611
68	110
69	671
70	240
71	20
73	10
74	20
75	10
76	10
77	80
78	20
79	80
80	10
81	130
82	140
83	9999
84	651
85	20
91	10
93	10
95	10
96	10
97	10
98	2722
99	200
100	10
