Mass Spectrum: 1-Propene, 1,1,3,3,3-pentafluoro-
Formula: C3 H F5
CAS: 690-27-7
Molecular weight: 132
Origin: THE M.W. KELLOGG CO., JERSEY CITY, N.J., USA
m/z	RELATIVE INTENSITY
19	204
20	21
24	202
25	273
26	8
31	4240
32	413
36	67
37	179
43	263
44	1228
45	35
47	287
50	617
51	1037
52	12
55	175
56	81
62	122
63	1305
69	8610
70	93
74	228
75	232
81	79
82	2924
83	63
93	1111
94	80
112	158
113	9999
114	321
131	28
132	4180
133	130
