Mass Spectrum: Peroxide, dimethyl
Formula: C2 H6 O2
CAS: 690-02-8
Molecular weight: 62
m/z	RELATIVE INTENSITY
2	110
12	160
13	280
14	621
15	3453
16	100
17	90
18	220
19	40
26	10
27	50
28	741
29	9999
30	2442
31	9629
32	1111
33	110
34	10
39	10
40	10
41	20
42	10
43	80
44	50
45	120
46	60
47	10
55	10
56	10
57	10
58	10
59	10
60	40
61	520
62	5845
63	120
64	20
