Mass Spectrum: Isopropyl methyl methylphosphonate
Formula: C5 H13 O3 P
CAS: 690-64-2
Molecular weight: 152
Origin: VERIFIN - Methodology B2-1980
m/z	RELATIVE INTENSITY
27	500
28	100
29	100
32	100
33	80
39	600
41	800
42	300
43	1000
47	800
48	90
63	800
65	400
79	1601
80	900
93	9408
94	800
95	600
110	200
111	9999
112	100
137	4403
151	70
