Mass Spectrum: 5-Hexen-3-yn-2-ol, 2-methyl-
Formula: C7 H10 O
CAS: 690-94-8
Molecular weight: 110
m/z	RELATIVE INTENSITY
12	140
13	110
14	400
15	260
16	110
17	550
18	2552
19	20
20	10
24	40
25	250
26	1111
27	1371
28	3113
29	410
30	30
31	100
35	10
36	110
37	490
38	581
39	1982
40	480
41	791
42	621
43	9999
44	210
45	130
46	30
47	40
48	30
49	200
50	881
51	3263
52	4674
53	5315
54	841
55	70
56	250
57	20
58	70
59	1902
60	120
61	140
62	3483
63	771
64	490
65	1141
66	340
67	470
68	40
69	50
70	10
71	10
72	10
73	70
74	330
75	240
76	110
77	901
78	150
79	320
80	30
81	50
82	40
83	50
84	10
85	40
86	80
87	60
88	20
89	180
90	230
91	3984
92	3553
93	430
94	140
95	3283
96	230
97	20
98	10
105	10
106	10
107	10
108	20
109	270
110	150
111	10
