Mass Spectrum: Furo[2,3-c]pyridine, 2-methyl-
Formula: C8 H7 N O
CAS: 69022-76-0
Molecular weight: 133
Origin: HCACAV,61(7)2542(1978); H. SCHMID ET AL
m/z	RELATIVE INTENSITY
38	900
39	1100
43	900
50	1800
51	2200
52	1900
63	1100
77	1700
78	3900
79	1100
104	3000
132	5600
133	9999
134	1100
