Mass Spectrum: 2-Ethoxycinnamic acid
Formula: C11 H12 O3
CAS: 69038-81-9
Molecular weight: 192
Origin: NIST Mass Spectrometry Data Center
m/z	RELATIVE INTENSITY
12	20
13	20
14	60
15	140
16	30
19	20
26	300
27	1772
28	270
29	1571
30	40
31	20
35	10
36	30
37	90
38	340
39	1651
40	230
41	270
42	50
43	160
44	30
45	380
46	20
50	520
51	1221
52	270
53	360
54	30
55	230
56	30
57	30
59	30
61	80
62	440
63	1481
64	530
65	1401
66	210
67	40
68	20
69	60
72	20
73	40
74	240
75	510
76	240
77	891
78	330
79	280
80	40
81	40
82	40
85	20
86	70
87	110
89	1882
90	2192
91	2492
92	320
93	20
94	170
95	30
98	30
99	40
101	200
102	180
103	420
104	80
105	370
106	80
107	300
108	40
115	60
116	60
118	9999
119	1231
120	240
121	90
122	20
123	60
127	50
128	50
129	50
131	801
132	1161
133	1151
134	100
135	70
146	2202
147	1171
148	200
149	50
159	90
163	30
173	50
174	150
175	20
181	20
192	2152
193	290
194	20
