Mass Spectrum: 3-Trifluoromethylcrotonic acid
Formula: C5 H5 F3 O2
CAS: 69056-67-3
Molecular weight: 154
Origin: NIST Mass Spectrometry Data Center
m/z	RELATIVE INTENSITY
12	50
13	20
15	170
18	50
25	20
26	190
27	370
29	1011
31	911
33	300
35	20
36	100
37	781
38	1672
39	7136
40	841
41	1321
42	490
43	731
44	130
45	2482
46	30
49	110
50	350
51	661
53	120
55	230
56	280
57	1021
58	1972
59	1682
60	160
63	20
64	1061
65	110
66	591
67	2222
68	270
69	1672
70	130
71	20
73	20
74	20
75	901
76	190
77	470
83	50
84	140
86	9999
87	951
88	480
89	2752
90	300
91	100
93	20
95	50
105	300
107	991
108	40
109	300
114	2712
115	250
117	90
134	6916
135	1391
136	390
137	2652
138	150
154	741
