Mass Spectrum: 1,2,3,4,4a,9b-Hexahydrodibenzothiophene
Formula: C12 H14 S
CAS: 69076-07-9
Molecular weight: 190
Origin: Organic Synthesis Lab, MSU, Moscow.TRC 330
m/z	RELATIVE INTENSITY
51	530
53	821
65	1251
66	571
69	571
77	2542
78	711
79	6336
80	9999
81	6836
82	711
91	1211
109	1892
110	7377
111	1141
112	571
123	601
135	4044
136	5045
137	681
190	6516
191	961
192	641
