Mass Spectrum: Isoquinoline, 1-(phenylmethyl)-
Formula: C16 H13 N
CAS: 6907-59-1
Molecular weight: 219
Origin: CARL DJERASSI DEPT OF CHEM STANFORD UNIV STANFORD CALIF 94305
m/z	RELATIVE INTENSITY
38	98
39	490
40	392
41	490
42	98
43	490
50	294
51	490
52	98
53	98
55	392
56	196
57	490
62	196
63	392
64	98
65	392
67	98
69	196
70	98
71	196
74	196
75	294
76	196
77	392
78	98
79	98
81	196
82	98
83	196
84	98
85	98
86	98
87	98
88	98
89	294
90	98
91	392
92	98
93	98
94	98
95	196
96	98
97	196
98	98
99	98
100	98
101	392
102	490
103	98
105	98
107	98
108	98
109	392
110	98
111	98
113	98
114	98
115	588
116	196
117	98
123	196
125	98
126	196
127	98
128	392
129	294
130	196
133	196
135	196
137	196
139	196
140	294
141	392
142	1667
143	1765
144	294
145	196
149	196
150	196
151	196
152	196
153	196
154	196
155	196
156	490
157	392
163	294
164	196
165	294
166	196
167	196
168	196
169	196
170	196
171	294
176	196
177	196
178	196
179	196
183	196
184	196
185	392
186	196
187	196
188	196
189	490
190	294
191	294
192	196
203	196
204	196
214	196
215	392
216	1176
217	3235
218	9999
219	3431
220	588
