Mass Spectrum: Ethanethioic acid, S-(2-methylbutyl) ester
Formula: C7 H14 O S
CAS: 69078-80-4
Molecular weight: 146
Origin: HCACAV,61(7)2351(1978); P. DUBS AND R. STUSSI
m/z	RELATIVE INTENSITY
41	1100
42	400
43	9999
55	800
57	700
70	4100
71	1100
72	500
146	100
