Mass Spectrum: 2-Pentene, 4-methyl-, (Z)-
Formula: C6 H12
CAS: 691-38-3
Molecular weight: 84
Origin: NIST Mass Spectrometry Data Center, 1990.
m/z	RELATIVE INTENSITY
15	585
18	37
26	226
27	1834
28	100
29	611
37	153
38	472
39	3337
40	100
41	9999
42	823
43	580
44	29
49	37
50	267
51	400
52	153
53	876
54	211
55	1001
56	700
57	40
61	43
62	89
63	141
65	243
67	839
69	8875
70	474
77	36
79	27
84	2601
85	188
