Mass Spectrum: 3-Iodobenzonitrile
Formula: C7 H4 I N
CAS: 69113-59-3
Molecular weight: 229
Origin: NIST Mass Spectrometry Data Center, 1994
m/z	RELATIVE INTENSITY
4	31
14	21
18	34
25	42
26	102
27	294
28	149
32	6
36	81
37	482
38	496
39	236
40	15
48	72
49	490
50	2106
51	1637
52	339
60	66
61	203
62	261
63	187
64	102
72	60
73	328
74	986
75	3086
76	1446
77	69
84	28
85	48
86	57
87	43
98	41
99	336
100	194
101	28
102	9999
103	788
104	28
114	309
127	1219
128	80
152	54
164	22
176	25
229	9973
230	771
231	34
