Mass Spectrum: Hexadecane, 5-butyl-
Formula: C20 H42
CAS: 6912-07-8
Molecular weight: 282
m/z	RELATIVE INTENSITY
35	10
36	20
37	20
38	30
39	841
40	180
41	6005
42	1321
43	9999
44	100
45	20
46	10
47	10
48	10
49	10
50	10
51	30
52	30
53	310
54	370
55	3553
56	1581
57	9308
58	440
59	10
60	10
61	10
62	10
63	10
64	10
65	50
66	30
67	360
68	230
69	1491
70	961
71	7247
72	420
73	10
74	10
75	10
76	10
77	40
78	10
79	60
80	20
81	140
82	200
83	901
84	561
85	4794
86	330
87	10
88	10
89	10
90	10
91	30
92	10
93	20
94	10
95	50
96	110
97	681
98	300
99	831
100	70
101	10
102	10
103	10
104	10
105	10
106	10
107	10
108	10
109	20
110	50
111	240
112	140
113	550
114	50
115	10
116	10
117	10
118	10
119	10
120	10
121	10
122	10
123	10
124	30
125	130
126	1551
127	991
128	90
129	10
130	10
131	10
132	10
133	10
134	10
135	10
136	10
137	10
138	20
139	60
140	100
141	340
142	40
143	10
144	10
145	10
146	10
147	10
148	10
149	10
150	10
151	10
152	20
153	40
154	70
155	270
156	40
157	10
158	10
159	10
160	10
161	10
162	10
163	10
164	10
165	10
166	10
167	30
168	40
169	190
170	30
171	10
178	10
179	10
180	10
181	20
182	30
183	100
184	20
185	10
186	10
193	10
194	10
195	10
196	70
197	30
198	10
210	40
211	40
212	10
224	1041
225	1211
226	200
227	20
228	10
237	10
238	30
239	40
240	10
241	10
242	10
252	10
253	20
254	10
255	10
280	10
281	10
282	10
283	10
