Mass Spectrum: p-Toluic acid, octyl ester
Formula: C16 H24 O2
CAS: 69199-34-4
Molecular weight: 248
Origin: Zaikin V.G., TIPS RAS, Moscow, Russia
m/z	RELATIVE INTENSITY
26	20
27	130
28	20
29	210
39	200
40	30
41	540
42	200
43	340
44	30
50	30
51	60
53	50
54	60
55	460
56	430
57	150
63	100
64	30
65	550
66	30
67	70
68	110
69	380
70	450
71	70
77	80
81	50
82	90
83	310
84	290
89	210
90	200
91	2582
92	350
93	340
97	40
105	50
107	60
110	30
112	290
118	80
119	7887
120	651
121	60
135	60
136	8027
137	9999
138	751
139	60
149	70
177	40
231	40
248	140
249	30
