Mass Spectrum: 3-Hexene, 2-methyl-, (E)-
Formula: C7 H14
CAS: 692-24-0
Molecular weight: 98
Origin: NIST Mass Spectrometry Data Center, 1990.
m/z	RELATIVE INTENSITY
14	640
15	1010
16	244
26	408
27	1038
28	2532
29	1538
38	461
39	4886
40	918
41	8731
42	723
43	1445
50	519
51	864
52	348
53	1501
55	8802
56	4008
57	332
63	231
65	559
66	250
67	1505
69	9999
70	1035
77	361
79	297
81	257
83	1634
98	3071
99	261
