Mass Spectrum: 10-Undecenoic acid, ethyl ester
Formula: C13 H24 O2
CAS: 692-86-4
Molecular weight: 212
Origin: W.Jennings, T.Shibamoto
m/z	RELATIVE INTENSITY
29	791
41	691
42	390
43	2192
45	1261
53	70
54	691
55	7277
56	1291
57	691
59	190
60	2582
61	3523
66	70
67	2993
68	2282
69	4714
70	6536
71	991
73	3813
74	480
75	70
78	70
79	390
80	480
81	2712
82	4394
83	4994
84	4894
85	991
86	70
87	691
88	9999
89	1311
90	70
93	480
94	591
95	1591
96	5515
97	3623
98	2993
99	591
100	70
101	6596
102	681
106	70
107	480
108	70
109	791
110	1281
111	791
112	70
113	70
114	70
115	791
116	70
119	390
121	70
122	791
123	1792
124	4334
125	1191
126	70
127	280
128	390
129	390
130	70
133	70
137	991
138	681
143	70
147	70
148	480
149	1481
150	70
151	70
155	190
165	70
166	1281
167	390
169	70
213	70
