Mass Spectrum: 3-Heptene, 2-methyl-, (E)-
Formula: C8 H16
CAS: 692-96-6
Molecular weight: 112
Origin: NIST Mass Spectrometry Data Center, 1990.
m/z	RELATIVE INTENSITY
15	179
26	169
27	1460
28	605
29	1131
39	2904
40	686
41	6464
42	721
43	1000
44	135
50	274
51	513
52	282
53	1437
54	135
55	9521
56	4996
57	1077
63	181
65	449
66	237
67	1472
68	1230
69	9999
70	1970
71	117
77	335
78	83
79	323
80	83
81	326
82	106
83	631
84	562
97	924
112	2375
113	229
