Mass Spectrum: Formic acid, ethenyl ester
Formula: C3 H4 O2
CAS: 692-45-5
Molecular weight: 72
Origin: Japan AIST/NIMC Database- Spectrum MS-NW-4432
m/z	RELATIVE INTENSITY
12	80
13	229
15	2649
17	20
18	70
24	60
25	219
26	1159
27	3149
28	429
29	6929
30	109
31	109
32	10
36	10
39	30
40	40
41	199
42	1179
43	9999
44	8639
45	1539
46	679
47	30
69	20
70	30
71	10
72	979
73	50
74	10
