Mass Spectrum: 1-Propyne, 3,3'-oxybis-
Formula: C6 H6 O
CAS: 6921-27-3
Molecular weight: 94
m/z	RELATIVE INTENSITY
24	210
25	771
26	1571
27	2012
28	851
29	2422
30	130
31	140
32	20
36	230
37	1451
38	2612
39	9999
40	4114
41	240
42	90
43	130
44	70
45	10
48	10
49	30
50	80
51	130
52	170
53	1682
54	180
55	3223
56	130
57	30
58	30
59	10
60	20
61	80
62	180
63	571
64	5185
65	3143
66	350
67	30
68	120
69	20
70	10
73	10
74	20
75	10
76	20
77	10
78	20
79	30
91	30
92	10
93	220
94	30
95	10
