Mass Spectrum: Naphthalene, 1-azido-
Formula: C10 H7 N3
CAS: 6921-40-0
Molecular weight: 169
Origin: MINISTRY OF DEFENCE ERDE, WALTHAM ABBEY, ESSEX, UK
m/z	RELATIVE INTENSITY
26	100
27	300
28	500
37	100
38	700
39	1600
40	100
43	100
49	100
50	1100
51	1100
52	300
57	600
61	400
62	1200
63	2000
64	600
65	200
70	200
71	200
73	100
74	700
75	700
76	400
77	200
85	200
86	400
87	800
88	1000
89	400
90	300
98	100
112	200
113	1500
114	3700
115	1100
116	200
126	100
127	200
139	500
140	6200
141	9999
142	1100
169	2200
170	300
