Mass Spectrum: N,N'-Methylenebis(formamide)
Formula: C3 H6 N2 O2
CAS: 6921-98-8
Molecular weight: 102
Origin: Japan AIST/NIMC Database- Spectrum MS-IW-1778
m/z	RELATIVE INTENSITY
13	20
14	30
15	30
16	109
17	249
18	1449
19	30
26	30
27	309
28	5279
29	2419
30	7289
31	159
32	20
38	30
39	30
40	60
41	99
42	219
43	699
44	519
45	849
46	3509
47	80
53	10
54	20
55	40
56	119
57	329
58	1499
59	979
60	30
69	10
71	70
72	20
73	9999
74	4919
75	199
76	10
84	579
85	30
86	20
101	40
102	489
103	20
