Mass Spectrum: Naphthalene, 1,4-dinitro-
Formula: C10 H6 N2 O4
CAS: 6921-26-2
Molecular weight: 218
m/z	RELATIVE INTENSITY
27	96
28	638
29	337
30	723
31	523
32	195
38	48
39	410
41	48
43	193
44	72
46	72
50	530
51	289
52	217
53	169
55	1205
56	48
57	96
61	72
62	289
63	723
64	193
65	72
66	48
71	48
73	48
74	1084
75	723
76	1157
77	361
78	145
79	169
80	145
85	72
86	289
87	482
88	578
89	434
90	193
91	193
92	72
93	48
97	410
98	434
99	458
101	193
102	1277
103	145
104	506
105	145
106	24
110	193
111	72
113	723
114	1976
115	337
116	554
117	193
118	145
119	96
120	48
122	169
125	2891
126	7662
127	916
128	386
129	169
130	530
131	145
132	578
133	96
141	193
142	819
143	410
144	169
145	193
146	169
156	193
158	241
159	48
160	361
161	72
162	48
171	169
172	819
173	169
175	48
188	506
189	72
190	482
191	96
201	48
202	48
218	9999
219	916
220	145
