Mass Spectrum: 3,5-di-t-Butyl-4-hydroxybenzyl ether
Formula: C30 H46 O3
CAS: 6922-60-7
Molecular weight: 454
Origin: NIST Mass Spectrometry Data Center, 1994
m/z	RELATIVE INTENSITY
15	99
18	105
27	94
29	903
30	1
38	16
39	284
41	2154
42	100
43	686
44	5
50	33
51	129
52	42
53	218
54	5
55	911
56	5
57	3449
58	171
63	45
64	45
65	187
66	37
67	254
68	37
69	360
70	31
71	42
72	20
75	30
77	345
78	97
79	339
80	139
81	162
83	121
89	36
91	983
92	102
93	232
94	53
95	112
97	33
102	37
103	142
104	80
105	678
106	106
107	382
108	86
109	79
115	408
116	197
117	353
118	70
119	658
120	137
121	573
122	77
123	200
124	23
127	135
128	382
129	517
130	217
131	450
132	108
133	463
134	130
135	242
136	38
137	30
141	193
142	156
143	259
144	137
145	505
146	144
147	911
148	177
149	1235
150	140
151	30
152	26
153	46
154	41
155	112
156	70
157	199
158	66
159	215
160	146
161	680
162	26
163	9999
164	3992
165	420
166	35
168	112
169	42
170	49
171	51
172	41
173	124
174	61
175	286
176	159
177	137
178	28
179	100
182	41
184	302
186	22
187	150
188	89
189	294
190	194
191	749
192	107
193	64
198	342
201	32
203	716
204	191
205	973
206	162
207	23
212	576
217	136
219	1555
220	3320
221	884
222	99
233	72
235	368
236	120
248	37
439	72
454	94
455	35
