Mass Spectrum: Monocrotophos
Formula: C7 H14 N O5 P
CAS: 6923-22-4
Molecular weight: 223
Origin: ACCUSTANDARD Chemicals / NIST MS Data Center.
m/z	RELATIVE INTENSITY
14	28
15	993
16	8
25	5
26	34
27	212
28	366
29	219
30	322
31	255
32	27
33	85
37	28
38	117
39	627
40	145
41	141
42	262
43	764
44	168
45	36
47	213
48	27
49	27
50	16
51	16
52	32
53	45
54	113
55	140
56	98
57	16
58	1118
59	41
60	7
62	10
63	41
64	20
65	95
66	326
67	2251
68	264
69	392
70	40
71	20
72	6
73	11
77	22
79	578
80	66
81	70
82	169
83	24
84	43
85	56
86	28
87	4
89	6
93	100
95	323
96	468
97	2121
98	181
99	24
105	8
106	6
109	1359
110	71
111	160
112	55
113	169
114	10
115	9
117	7
118	11
119	19
120	9
121	5
123	5
127	9999
128	244
129	92
134	4
135	11
147	8
149	11
150	11
151	15
160	21
162	10
164	521
165	79
166	101
167	7
177	6
180	20
192	1521
193	812
194	72
195	11
197	4
198	5
205	9
207	3
223	406
224	36
225	9
