Mass Spectrum: p-Methoxyheptanophenone
Formula: C14 H20 O2
CAS: 69287-13-4
Molecular weight: 220
Origin: NIST Mass Spectrometry Data Center, 1994
m/z	RELATIVE INTENSITY
12	8
14	11
15	180
16	13
17	11
18	26
26	69
27	932
28	269
29	976
30	22
32	2
37	20
38	135
39	627
40	97
41	975
42	151
43	446
44	5
50	233
51	243
52	67
53	170
54	34
55	400
56	37
57	33
61	9
62	69
63	478
64	762
65	200
66	63
67	31
68	10
69	40
70	13
74	15
75	77
76	316
77	2159
78	277
79	167
80	14
81	11
85	9
89	46
90	23
92	1477
93	124
94	27
102	20
103	36
104	106
105	68
106	20
107	1025
108	207
109	36
115	27
116	10
117	12
118	16
119	45
120	43
121	160
122	32
128	9
131	15
132	15
133	70
134	9
135	9999
136	880
137	127
138	10
145	29
146	8
147	22
150	5510
151	569
152	42
159	8
161	7
163	546
164	62
177	34
178	11
189	18
191	11
220	155
221	24
