Mass Spectrum: Ethanol, 2-(2-chloro-ethylthio)-
Formula: C4 H9 Cl O S
CAS: 693-30-1
Molecular weight: 140
Origin: A.Maisonneuve ET AL.J.Chrom.583,155(1992)
m/z	RELATIVE INTENSITY
31	3703
34	40
35	430
39	240
41	150
42	280
43	921
44	3293
45	7847
46	3914
47	6716
48	2522
49	1071
50	130
51	40
57	601
58	1692
59	2562
60	4744
61	9559
62	1371
63	6436
64	340
65	2672
71	190
73	3213
74	260
75	1281
76	490
77	510
78	150
81	711
82	1091
83	831
84	360
85	60
86	60
87	981
88	60
91	5065
92	490
93	751
94	340
95	1111
96	1001
97	340
98	210
104	4984
105	581
106	240
109	9999
110	581
111	4444
112	260
122	60
140	2262
141	90
142	741
