Mass Spectrum: 2-Undecene, (E)-
Formula: C11 H22
CAS: 693-61-8
Molecular weight: 154
Origin: S.A. Rang et al., IR & MS of Unsatd. Hydrocarbons, 1977
m/z	RELATIVE INTENSITY
14	12
15	60
16	10
25	23
26	164
27	2405
28	681
29	4537
30	92
36	7
37	18
38	48
39	2133
40	408
41	7931
42	2813
43	6207
44	125
45	5
50	46
51	110
52	85
53	907
54	1134
55	9999
56	6897
57	4828
58	196
63	21
64	5
65	133
66	117
67	953
68	862
69	5082
70	4809
71	771
72	39
77	81
78	21
79	110
80	32
81	235
82	430
83	1996
84	1633
85	329
86	21
91	46
92	23
93	14
94	5
95	51
96	180
97	1270
98	681
99	58
100	5
105	5
106	5
109	9
110	60
111	454
112	227
113	23
124	23
125	164
126	164
127	18
139	5
152	7
154	1361
155	141
156	9
