Mass Spectrum: Heptane, 1-nitro-
Formula: C7 H15 N O2
CAS: 693-39-0
Molecular weight: 145
m/z	RELATIVE INTENSITY
26	357
27	3259
28	870
29	5803
30	1116
31	491
32	156
37	112
38	201
39	2366
40	536
41	4151
42	2098
43	6651
44	312
45	580
46	357
50	112
51	223
52	201
53	580
54	1116
55	9999
56	1830
57	6740
58	357
59	803
60	134
62	1004
65	134
66	134
67	536
68	536
69	2120
70	670
71	335
72	89
73	89
75	179
77	134
79	134
80	134
81	312
82	1384
83	1027
84	312
85	134
86	134
88	112
95	112
96	179
97	179
99	112
103	112
