Mass Spectrum: Ethanol, 2,2'-oxybis-, dinitrate
Formula: C4 H8 N2 O7
CAS: 693-21-0
Molecular weight: 196
Origin: MINISTRY OF TECH. E.R.D.E., WALTHAM ABBEY, UK
m/z	RELATIVE INTENSITY
15	520
26	110
27	200
28	390
29	1110
30	1320
31	310
39	70
40	20
41	80
42	110
43	720
44	890
45	1110
46	9999
47	50
55	30
57	110
58	60
60	40
61	10
69	50
71	80
72	20
73	3770
74	180
76	320
77	10
90	280
105	20
119	10
120	20
134	20
