Mass Spectrum: trans-13-Octadecenoic acid
Formula: C18 H34 O2
CAS: 693-71-0
Molecular weight: 282
Origin: NIST Mass Spectrometry Data Center
m/z	RELATIVE INTENSITY
15	10
26	20
27	460
28	110
29	821
30	30
31	50
38	20
39	711
40	140
41	4634
42	911
43	2482
44	90
45	510
46	10
47	10
50	20
51	50
52	50
53	581
54	1501
55	9999
56	2222
57	1692
58	190
59	220
60	1261
61	110
62	10
63	10
65	180
66	130
67	1882
68	1121
69	4484
70	1661
71	741
72	50
73	1001
74	90
75	40
76	10
77	160
78	50
79	470
80	220
81	1571
82	1381
83	3623
84	2062
85	540
86	70
87	340
88	40
89	10
91	180
92	40
93	260
94	270
95	1191
96	1772
97	3333
98	1742
99	300
100	260
101	410
102	60
103	20
104	10
105	110
106	40
107	220
108	230
109	721
110	1071
111	1501
112	651
113	320
114	550
115	300
116	70
117	40
118	20
119	180
120	80
121	250
122	170
123	681
124	621
125	691
126	280
127	390
128	120
129	300
130	50
131	30
132	10
133	190
134	180
135	200
136	110
137	430
138	400
139	350
140	140
141	110
142	30
143	80
144	20
145	20
146	10
147	150
148	160
149	160
150	90
151	320
152	280
153	180
154	80
155	80
156	20
157	50
158	20
159	10
161	110
162	50
163	100
164	70
165	220
166	170
167	120
168	40
169	70
170	20
171	40
172	20
173	10
174	10
175	80
176	30
177	50
178	40
179	140
180	200
181	90
182	40
183	40
184	20
185	50
186	30
187	10
189	60
190	20
191	20
192	20
193	100
194	80
195	50
196	20
197	10
198	10
199	20
200	20
203	20
204	10
205	10
206	10
207	100
208	70
209	30
210	10
211	10
213	10
214	10
217	20
218	10
219	10
220	150
221	150
222	200
223	50
224	10
225	10
226	10
227	10
235	110
236	50
237	10
239	20
240	10
241	10
246	40
247	10
249	20
250	10
264	601
265	150
266	20
278	10
280	10
282	120
283	30
284	10
