Mass Spectrum: Isothiazole, 5-methyl-
Formula: C4 H5 N S
CAS: 693-97-0
Molecular weight: 99
Origin: B.J.MILLARD, SCHOOL OF PHARMACY, UNIV. OF LONDON, LONDON, UK
m/z	RELATIVE INTENSITY
45	2200
53	1700
57	1100
58	900
59	2200
60	900
69	900
71	5600
72	4200
98	2600
99	9999
