Mass Spectrum: Decyl sulfide
Formula: C20 H42 S
CAS: 693-83-4
Molecular weight: 314
Origin: NIST Mass Spectrometry Data Center
m/z	RELATIVE INTENSITY
15	10
18	50
26	40
27	951
28	240
29	2632
30	60
34	10
35	20
36	10
39	540
41	5265
42	891
43	6356
44	200
45	230
46	130
47	380
48	30
49	20
50	10
51	10
52	20
53	260
54	400
55	5115
56	1331
57	3033
58	150
59	120
60	370
61	1581
62	80
63	80
65	40
66	40
67	691
68	530
69	2662
70	1161
71	861
72	60
73	120
74	60
75	180
76	20
77	40
79	90
80	30
81	330
82	571
83	2933
84	681
85	641
86	70
87	691
88	150
89	360
90	20
91	20
93	10
95	120
96	380
97	1732
98	460
99	120
100	10
101	220
102	40
103	90
104	10
109	20
110	190
111	540
112	410
113	30
115	100
116	20
117	60
125	20
129	561
130	70
131	80
138	10
140	1241
141	110
142	10
143	90
144	10
145	20
159	30
171	80
172	1311
173	9999
174	1541
175	641
176	70
177	10
187	310
188	40
189	20
201	120
202	10
215	30
229	230
230	30
231	10
243	40
257	10
271	30
285	30
286	10
299	40
313	320
314	1651
315	420
316	120
317	20
