Mass Spectrum: 1H-Imidazole, 2-methyl-
Formula: C4 H6 N2
CAS: 693-98-1
Molecular weight: 82
Origin: Japan AIST/NIMC Database- Spectrum MS-NW-4953
m/z	RELATIVE INTENSITY
12	30
13	50
14	139
15	419
24	20
25	99
26	749
27	999
28	2299
29	169
30	70
36	20
37	20
38	129
39	209
40	889
41	1919
42	2049
43	80
44	20
45	20
47	10
50	30
51	199
52	409
53	289
54	3859
55	1079
56	70
66	40
67	40
68	10
79	10
80	129
81	3729
82	9999
83	549
84	10
