Mass Spectrum: 3H-Diazirine, 3,3-difluoro-
Formula: C F2 N2
CAS: 693-85-6
Molecular weight: 78
Origin: R.A.MITSCH MINNESOTA MINING AND MFG CO ST.PAUL MINNESOTA USA
m/z	RELATIVE INTENSITY
12	580
14	390
26	300
31	6360
33	200
40	100
45	470
50	9999
59	4680
64	690
78	10
