Mass Spectrum: Propanenitrile, 3-(methylamino)-
Formula: C4 H8 N2
CAS: 693-05-0
Molecular weight: 84
Origin: RADIAN CORP
m/z	RELATIVE INTENSITY
15	220
18	450
25	40
26	760
27	570
28	2150
29	250
30	790
31	270
32	140
37	10
38	190
39	190
40	470
41	380
42	2100
43	610
44	9999
45	290
50	150
51	670
52	1570
53	1540
54	730
55	180
56	180
67	180
81	60
83	140
84	460
