Mass Spectrum: Isothiazole, 4-methyl-
Formula: C4 H5 N S
CAS: 693-90-3
Molecular weight: 99
Origin: B.J.MILLARD SCHOOL OF PHARMACY, UNIV. OF LONDON, LONDON, UK
m/z	RELATIVE INTENSITY
39	1200
45	2000
58	200
59	500
69	600
71	4300
72	3000
98	2600
99	9999
