Mass Spectrum: 2-Octanamine
Formula: C8 H19 N
CAS: 693-16-3
Molecular weight: 129
Origin: V.G.Zaikin, TIPS, Russian Acad. Sci., Moscow
m/z	RELATIVE INTENSITY
29	410
30	470
39	270
41	650
42	500
43	480
44	9999
45	280
55	270
56	250
57	140
65	10
67	20
69	40
70	80
71	20
72	210
84	10
114	250
115	30
128	40
129	10
