Mass Spectrum: Cyclopentene, 1-methyl-
Formula: C6 H10
CAS: 693-89-0
Molecular weight: 82
Origin: Japan AIST/NIMC Database- Spectrum MS-NW-3064
m/z	RELATIVE INTENSITY
15	40
26	99
27	729
28	60
29	149
37	70
38	169
39	1349
40	269
41	1599
42	219
43	119
44	10
49	30
50	259
51	379
52	179
53	819
54	609
55	279
56	60
57	20
58	10
61	20
62	40
63	90
64	10
65	459
66	209
67	9999
68	559
69	40
73	10
74	40
75	20
77	309
78	80
79	809
80	209
81	1809
82	3129
83	239
84	10
