Mass Spectrum: Isothiazole, 3-methyl-
Formula: C4 H5 N S
CAS: 693-92-5
Molecular weight: 99
Origin: DK268-13-2A
m/z	RELATIVE INTENSITY
39	600
41	390
42	460
45	800
46	300
53	400
54	500
57	1200
58	2800
59	900
60	240
71	1100
72	3400
73	1200
74	200
98	1200
99	9999
100	460
101	340
