Mass Spectrum: n-Amyl ether
Formula: C10 H22 O
CAS: 693-65-2
Molecular weight: 158
Origin: Japan AIST/NIMC Database- Spectrum MS-NW-1576
m/z	RELATIVE INTENSITY
15	40
18	20
26	40
27	809
28	99
29	1259
30	40
31	169
38	10
39	449
40	90
41	1669
42	1739
43	8309
44	279
45	239
51	10
53	70
54	40
55	1209
56	129
57	139
58	30
59	90
60	10
66	20
67	30
68	70
69	1709
70	4199
71	9999
72	559
73	40
83	10
85	30
86	40
87	209
88	20
89	179
97	10
99	10
101	599
102	40
103	20
115	99
116	10
129	70
158	199
159	20
