Mass Spectrum: 4-Undecene, (E)-
Formula: C11 H22
CAS: 693-62-9
Molecular weight: 154
Origin: D.HENNEBERG, MAX-PLANCK INSTITUTE, MULHEIM, WEST GERMANY
m/z	RELATIVE INTENSITY
24	10
26	157
27	2588
28	325
29	3329
30	102
32	144
34	1
37	36
39	1913
40	188
41	7540
42	2860
43	5611
46	20
49	31
50	41
51	78
52	135
53	614
54	1332
55	9999
56	6467
57	2302
58	75
59	5
60	10
62	20
63	35
65	139
67	1044
68	536
69	5752
70	4219
71	741
72	62
73	33
74	2
75	26
77	75
79	113
80	27
81	231
82	509
83	2443
84	1853
85	373
86	18
91	2
92	15
93	3
94	16
95	50
96	121
97	1143
98	476
99	63
109	20
110	44
111	451
112	144
113	24
125	101
126	95
133	15
147	14
154	1296
155	188
