Mass Spectrum: Dodecanedioic acid
Formula: C12 H22 O4
CAS: 693-23-2
Molecular weight: 230
Origin: Japan AIST/NIMC Database- Spectrum MS-NW-7932
m/z	RELATIVE INTENSITY
15	50
17	30
18	159
19	20
26	50
27	1209
28	369
29	1749
30	60
31	269
32	10
38	10
39	859
40	159
41	3939
42	679
43	1599
44	60
45	879
46	30
47	30
50	20
51	40
52	20
53	329
54	429
55	4669
56	649
57	809
58	119
59	459
60	3249
61	259
62	20
63	10
64	10
65	60
66	50
67	859
68	689
69	3429
70	539
71	489
72	40
73	2599
74	269
75	30
76	10
77	50
78	30
79	299
80	299
81	789
82	459
83	1719
84	6279
85	559
86	70
87	549
88	60
89	20
91	80
92	50
93	329
94	249
95	459
96	489
97	1439
98	9999
99	779
100	159
101	449
102	60
103	10
104	10
105	50
106	80
107	219
108	239
109	329
110	339
111	869
112	2149
113	239
114	129
115	299
116	70
117	20
118	10
119	70
120	60
121	159
122	129
123	259
124	239
125	209
126	609
127	109
128	50
129	389
130	99
131	20
132	20
133	60
134	149
135	1109
136	139
137	159
138	329
139	99
140	80
141	50
142	20
143	259
144	40
145	10
147	60
148	159
149	60
150	109
151	119
152	269
153	1169
154	149
155	20
156	70
157	70
158	30
159	10
164	10
165	70
166	599
167	90
168	99
169	40
170	99
171	249
172	30
175	30
176	70
177	10
179	10
181	30
182	20
183	20
184	60
185	10
186	339
187	40
192	10
193	30
194	839
195	119
196	10
211	20
212	30
213	179
214	20
231	10
