Mass Spectrum: 2-Decanone
Formula: C10 H20 O
CAS: 693-54-9
Molecular weight: 156
Origin: NIST Mass Spectrometry Data Center, 1990.
m/z	RELATIVE INTENSITY
14	106
15	125
27	978
28	107
29	1036
39	1212
40	288
41	2730
42	1183
43	8453
44	262
45	99
51	113
53	348
54	224
55	1344
56	616
57	1919
58	9999
59	2798
60	98
67	299
68	163
69	390
70	98
71	3770
72	253
81	350
82	253
83	141
84	141
85	547
95	158
96	507
97	106
98	500
99	141
100	145
113	253
114	94
127	153
141	224
156	442
