Mass Spectrum: Quinoxaline, 1-oxide
Formula: C8 H6 N2 O
CAS: 6935-29-1
Molecular weight: 146
Origin: TAT 1839
m/z	RELATIVE INTENSITY
38	701
39	1001
50	1702
51	1001
52	801
53	100
62	500
63	1301
64	2002
65	500
73	701
74	601
75	1001
76	2002
77	300
90	1401
91	3503
92	500
93	100
102	1501
103	1301
104	200
118	1501
119	300
129	901
130	1501
131	300
145	100
146	9999
147	801
148	100
