Mass Spectrum: Benzamide, N,N,3-trimethyl-
Formula: C10 H13 N O
CAS: 6935-65-5
Molecular weight: 163
Origin: Zaikin V.G., TIPS RAS, Moscow, Russia
m/z	RELATIVE INTENSITY
39	160
41	60
42	110
43	20
44	70
50	30
51	80
62	40
63	180
64	50
65	831
66	50
67	90
72	110
73	30
74	20
80	90
81	50
89	300
90	200
91	4154
92	330
105	30
118	30
119	9999
120	841
121	50
148	140
162	4214
163	2853
164	350
