Mass Spectrum: Benzene, 1,2,4,5-tetrachloro-3-methoxy-
Formula: C7 H4 Cl4 O
CAS: 6936-40-9
Molecular weight: 244
Origin: MASS SPEC DATA COMPILATION OF PEST & IND CHEM, T.CAIRNS,FDA,USA
m/z	RELATIVE INTENSITY
43	300
47	200
48	300
49	400
60	600
61	1700
62	100
65	500
66	200
71	400
72	600
73	1000
74	600
75	100
83	1000
84	600
85	500
86	100
87	400
95	500
96	2200
97	400
98	700
106	100
107	1600
108	1500
109	1400
110	500
111	400
117	100
118	400
119	300
120	300
124	100
130	300
131	3000
132	400
133	2000
135	300
141	500
142	200
143	1500
144	500
145	1200
146	600
147	400
148	300
166	500
167	200
168	500
178	600
179	700
180	700
181	800
182	400
183	400
194	500
196	500
198	100
201	5700
202	400
203	6900
204	400
205	3500
206	200
207	1000
209	500
211	300
213	400
215	500
216	200
217	400
219	100
229	3900
230	400
231	4800
232	500
233	2500
234	200
235	500
244	8300
245	1000
246	9999
247	1300
248	5200
249	600
250	1500
