Mass Spectrum: 1-Bromodocosane
Formula: C22 H45 Br
CAS: 6938-66-5
Molecular weight: 388
Origin: Japan AIST/NIMC Database- Spectrum MS-NW-2655
m/z	RELATIVE INTENSITY
15	10
17	99
18	579
26	20
27	349
28	129
29	1059
30	20
32	30
36	30
39	229
40	60
41	2369
42	609
43	5719
44	189
51	10
52	10
53	109
54	259
55	3139
56	1419
57	9999
58	439
65	20
66	30
67	319
68	369
69	3089
70	1259
71	6739
72	369
73	10
77	20
78	10
79	40
80	80
81	209
82	539
83	2569
84	869
85	4589
86	299
91	30
93	10
94	10
95	129
96	309
97	2149
98	629
99	1549
100	109
105	20
107	40
109	60
110	139
111	1049
112	459
113	1079
114	90
119	10
121	40
123	40
124	80
125	499
126	339
127	779
128	80
133	10
134	10
135	4429
136	209
137	4359
138	189
139	219
140	239
141	609
142	70
148	99
149	939
150	159
151	919
152	50
153	119
154	189
155	499
156	60
162	60
163	249
164	70
165	229
166	30
167	80
168	129
169	409
170	50
176	20
177	149
178	20
179	149
180	20
181	50
182	99
183	339
184	40
190	10
191	129
192	20
193	109
194	20
195	30
196	70
197	279
198	40
205	90
206	10
207	90
208	10
209	20
210	50
211	229
212	40
218	10
219	80
220	20
221	60
222	10
223	20
224	40
225	179
226	30
232	10
233	50
234	10
235	50
237	10
238	30
239	119
240	20
246	10
247	50
248	10
249	40
252	20
253	70
254	10
260	10
261	30
262	10
263	30
266	10
267	30
274	10
275	30
276	10
277	20
280	20
289	30
290	10
291	30
303	20
304	10
305	20
308	70
309	619
310	159
311	10
317	20
319	20
331	10
333	10
388	30
390	20
