Mass Spectrum: Hexanoic acid, phenylmethyl ester
Formula: C13 H18 O2
CAS: 6938-45-0
Molecular weight: 206
Origin: W.Jennings, T.Shibamoto
m/z	RELATIVE INTENSITY
26	210
29	430
41	651
42	90
43	4974
44	90
51	320
55	751
57	220
58	90
64	190
65	410
69	1912
70	190
71	3023
72	80
73	611
77	210
78	80
79	1061
80	80
82	80
89	70
90	1882
91	9999
92	3793
93	210
97	1321
98	90
99	3313
100	210
104	80
105	80
106	80
107	1141
108	7397
109	851
114	90
115	1521
116	90
117	90
119	90
188	120
206	941
207	80
