Mass Spectrum: Amyl anisate
Formula: C13 H18 O3
CAS: 6938-46-1
Molecular weight: 222
Origin: NIST Mass Spectrometry Data Center, 2010
m/z	RELATIVE INTENSITY
15	20
26	20
27	240
28	60
29	360
30	20
31	10
37	10
38	80
39	270
40	40
41	510
42	280
43	320
44	50
45	10
50	150
51	130
52	30
53	110
54	20
55	290
56	20
57	20
61	10
62	60
63	370
64	581
65	160
66	40
67	20
68	10
69	50
70	80
71	10
73	10
74	40
75	70
76	180
77	1401
78	160
79	80
80	10
81	40
91	30
92	1151
93	100
94	40
95	10
103	30
104	70
105	60
106	30
107	681
108	100
109	150
110	10
119	30
120	30
121	50
122	20
123	10
124	10
133	20
134	30
135	8788
136	851
137	80
138	10
150	10
151	30
152	9999
153	1682
154	160
155	20
165	90
166	10
179	10
193	10
205	30
206	10
221	10
222	520
223	80
224	10
