Mass Spectrum: Sydnone, 3-methyl-
Formula: C3 H4 N2 O2
CAS: 6939-12-4
Molecular weight: 100
m/z	RELATIVE INTENSITY
40	1301
41	2803
42	9108
43	2602
44	3003
45	100
59	500
70	1301
74	901
100	9999
101	400
