Mass Spectrum: 1H-Pyrazole, 1,5-dimethyl-
Formula: C5 H8 N2
CAS: 694-31-5
Molecular weight: 96
Origin: V.A. KOPTYUG, VOL.4, ATLAS OF MASS SPECTRA OF ORGANIC COMPOUNDS
m/z	RELATIVE INTENSITY
26	260
27	900
28	1170
29	180
30	200
37	140
38	300
39	920
40	340
41	1070
42	890
43	590
50	340
51	580
52	620
53	1260
54	1150
55	540
56	1020
65	110
66	300
67	330
68	1410
69	170
80	80
81	670
82	70
94	100
95	5900
96	9999
97	640
