Mass Spectrum: 1H-Pyrazole, 1,3-dimethyl-
Formula: C5 H8 N2
CAS: 694-48-4
Molecular weight: 96
Origin: V.A. KOPTYUG, VOL.4, ATLAS OF MASS SPECTRA OF ORGANIC COMPOUNDS
m/z	RELATIVE INTENSITY
26	370
27	870
28	1100
29	140
30	130
38	180
39	510
40	420
41	920
42	1410
43	600
50	330
51	570
52	660
53	940
54	1270
55	690
56	380
66	300
67	320
68	1210
69	160
80	110
81	1740
82	110
93	70
94	140
95	6980
96	9999
97	640
98	30
