Mass Spectrum: Bicyclo[2.2.1]hept-2-ene, 2-methyl-
Formula: C8 H12
CAS: 694-92-8
Molecular weight: 108
Origin: D.HENNEBERG, MAX-PLANCK INSTITUTE, MULHEIM, WEST GERMANY
m/z	RELATIVE INTENSITY
24	2
25	16
26	299
27	1450
28	345
29	177
30	4
31	5
32	3
36	5
37	103
38	284
39	2010
40	288
41	784
42	52
43	18
44	5
46	4
48	2
49	34
50	349
51	698
52	381
53	511
54	92
55	58
56	8
57	5
58	1
60	3
61	36
62	92
63	221
64	48
65	479
66	148
67	157
68	23
69	4
70	1
73	10
74	47
75	28
76	30
77	1110
78	597
79	3810
80	9999
81	664
82	17
83	1
84	2
85	4
86	8
87	6
88	2
89	29
90	26
91	698
92	104
93	679
94	53
95	4
96	1
97	1
98	3
99	5
100	6
101	9
102	8
103	26
104	8
105	55
106	11
107	60
108	1320
109	115
110	5
