Mass Spectrum: Cyclopropane, 1,1-dichloro-2,2-dimethyl-
Formula: C5 H8 Cl2
CAS: 694-16-6
Molecular weight: 138
m/z	RELATIVE INTENSITY
14	30
15	120
25	40
26	380
27	1601
28	581
29	380
31	100
32	160
35	50
36	70
37	270
38	420
39	3493
40	901
41	6346
42	2502
43	260
47	120
48	60
49	390
50	691
51	2272
52	290
53	1061
54	70
55	350
56	110
57	60
59	30
60	140
61	1131
62	270
63	981
64	80
65	1381
66	220
67	4324
68	290
69	40
70	20
71	20
72	50
73	230
74	70
75	2452
76	180
77	961
78	100
79	100
81	30
82	80
83	190
84	80
85	230
86	60
87	5985
88	330
89	2472
90	130
91	981
92	90
95	20
96	861
97	140
98	540
99	110
100	90
101	60
102	220
103	9999
104	651
105	3353
106	571
107	70
109	450
110	200
111	290
112	130
113	50
114	20
117	30
121	20
122	30
123	9689
124	470
125	6186
126	290
127	1001
128	50
133	40
135	30
137	20
138	1952
139	130
140	1251
141	70
142	200
