Mass Spectrum: Bicyclo[2.2.1]hept-2-ene, 5-methylene-
Formula: C8 H10
CAS: 694-91-7
Molecular weight: 106
Origin: NIST Mass Spectrometry Data Center, 1990.
m/z	RELATIVE INTENSITY
14	386
15	192
16	200
26	450
27	1414
28	196
37	323
38	891
39	3901
40	1076
41	489
49	173
50	1250
51	2070
52	811
53	527
61	189
62	469
63	949
64	234
65	2652
66	9999
67	682
74	261
76	228
77	2505
78	5536
79	1836
89	223
91	9522
92	696
102	150
103	543
105	1758
106	3287
107	256
