Mass Spectrum: 1,2-Cyclohexanediamine
Formula: C6 H14 N2
CAS: 694-83-7
Molecular weight: 114
Origin: A.E.FONTAINE DYESTUFFS DIV., I.C.I., MANCHESTER
m/z	RELATIVE INTENSITY
12	13
13	2
14	17
15	206
16	55
17	197
18	1168
19	5
24	2
25	7
26	84
27	822
28	3959
29	617
30	4329
31	233
32	8
34	1
35	2
36	7
37	11
38	40
39	699
40	119
41	1302
42	1452
43	6987
44	1014
45	877
46	28
47	13
48	5
49	2
50	33
51	62
52	63
53	219
54	480
55	318
56	9999
57	781
58	480
59	726
60	38
61	3
62	5
63	15
64	15
65	63
66	63
67	344
68	512
69	5096
70	3069
71	1480
72	986
73	49
74	5
75	8
76	10
77	174
78	47
79	299
80	197
81	175
82	1165
83	93
84	471
85	211
86	62
87	10
89	4
90	3
91	10
92	19
93	44
94	62
95	51
96	1165
97	5124
98	480
99	28
100	8
101	11
102	7
103	5
104	9
105	10
106	13
107	35
108	15
109	10
110	14
111	13
112	13
113	56
114	2192
115	490
116	30
