Mass Spectrum: 1,1-Difluoro-2-vinylcyclopropane
Formula: C5 H6 F2
CAS: 694-34-8
Molecular weight: 104
Origin: ASES Database, Dalian Institute, P.R. China
m/z	RELATIVE INTENSITY
37	810
38	1681
39	9999
40	1781
41	190
42	100
43	2412
44	190
45	300
50	1010
51	2802
52	400
53	5735
54	2992
57	1000
58	1010
59	1501
63	190
64	1591
65	1491
71	290
75	800
76	390
77	4834
78	400
83	2191
84	3613
85	690
88	90
89	700
101	290
103	5094
104	7516
105	390
