Mass Spectrum: Bicyclo[4.2.0]octa-1,3,5-triene
Formula: C8 H8
CAS: 694-87-1
Molecular weight: 104
Origin: AMERICAN OIL CO., WHITING, IND, USA
m/z	RELATIVE INTENSITY
13	47
14	73
15	180
16	3
17	1
18	6
24	8
25	50
26	471
27	882
28	72
29	14
31	13
32	3
33	1
36	38
37	383
38	615
39	1720
40	81
41	76
42	5
43	23
44	6
45	1
48	20
49	244
50	1880
51	3150
52	996
53	190
54	62
55	11
56	2
57	2
60	36
61	245
62	459
63	1030
64	135
65	231
66	18
67	61
68	12
72	14
73	131
74	626
75	627
76	415
77	1880
78	4200
79	273
80	11
81	21
82	47
83	4
84	11
85	32
86	50
87	70
88	11
89	258
90	20
94	5
95	6
96	4
97	26
98	95
99	26
100	4
101	71
102	725
103	4820
104	9999
105	833
106	25
110	3
