Mass Spectrum: Pyrimidine, 4,5-dimethyl-
Formula: C6 H8 N2
CAS: 694-81-5
Molecular weight: 108
Origin: A.J. MACLEOD, DEP. CHEM., QUEEN ELIZ. COLL., UNIV. LONDON, U
m/z	RELATIVE INTENSITY
39	4000
40	2800
41	1200
42	2300
51	1400
52	1600
66	1000
67	1000
81	800
93	1000
107	2500
108	9999
109	800
