Mass Spectrum: Bicyclo[2.2.1]hept-2-en-5-one
Formula: C7 H8 O
CAS: 694-98-4
Molecular weight: 108
Origin: P. VAINIOTALO, DEPT. CHEM., UNIV. JOENSUU, JOENSUU, FINLAND
m/z	RELATIVE INTENSITY
17	20
18	120
20	20
26	90
27	420
29	30
32	40
37	80
38	180
39	860
40	1
41	110
42	90
43	50
44	360
50	220
51	360
52	210
53	130
63	110
65	700
66	9999
67	600
77	380
78	130
79	780
80	140
108	1700
109	160
