Mass Spectrum: Pentalene, octahydro-
Formula: C8 H14
CAS: 694-72-4
Molecular weight: 110
Origin: NIST Mass Spectrometry Data Center, 1990.
m/z	RELATIVE INTENSITY
15	51
26	103
27	733
28	354
29	285
32	37
37	35
38	176
39	1839
40	373
41	1904
42	184
43	45
44	40
50	173
51	363
52	191
53	780
54	1227
55	441
56	46
62	41
63	117
65	522
66	1869
67	9999
68	1188
69	291
77	387
78	103
79	606
80	220
81	1525
82	5135
83	325
91	92
95	524
110	862
111	74
