Mass Spectrum: 2H-Pyran-2-ol, tetrahydro-
Formula: C5 H10 O2
CAS: 694-54-2
Molecular weight: 102
Origin: CARL DJERASSI DEPT OF CHEM STANFORD UNIV STANFORD CALIF 94305
m/z	RELATIVE INTENSITY
41	6600
42	700
43	2300
44	2400
45	300
47	300
50	100
51	100
53	400
54	200
55	2400
56	4700
57	1600
58	100
67	1200
68	100
69	200
71	200
74	200
83	600
84	900
85	9999
86	500
101	700
102	200
