Mass Spectrum: 1-Propanol, dl-2-benzylamino-,
Formula: C10 H15 N O
CAS: 6940-81-4
Molecular weight: 165
Origin: Japan AIST/NIMC Database- Spectrum MS-NW-8120
m/z	RELATIVE INTENSITY
15	20
18	50
27	60
28	249
29	50
30	189
31	169
38	20
39	229
40	20
41	139
42	99
43	20
44	259
50	40
51	139
52	40
53	10
54	10
55	10
56	60
57	20
58	10
59	20
62	20
63	90
64	30
65	609
66	40
67	159
74	10
75	10
76	10
77	119
78	40
79	119
88	40
89	109
90	60
91	9999
92	809
93	30
103	10
104	40
105	40
106	189
107	10
117	10
118	20
130	10
132	50
133	20
134	6729
135	689
136	30
150	30
164	40
165	20
166	129
167	10
