Mass Spectrum: Ketone, methyl 6-methyl-2-pyridyl
Formula: C8 H9 N O
CAS: 6940-57-4
Molecular weight: 135
Origin: Philip Morris R&D
m/z	RELATIVE INTENSITY
37	251
38	498
39	3012
40	412
41	296
42	353
43	4351
44	119
45	26
46	93
47	6
50	363
51	398
52	416
53	213
54	71
60	2
61	44
62	151
63	479
64	537
65	4230
66	3661
67	426
74	3
75	17
76	58
77	132
78	262
79	101
80	20
85	14
87	6
88	9
89	6
90	54
91	131
92	6562
93	9999
94	738
95	19
104	12
105	3
106	132
107	1811
108	119
116	13
117	21
118	14
120	179
121	1
134	32
135	6130
136	531
137	22
