Mass Spectrum: Propane, 1-chloro-3-iodo-
Formula: C3 H6 Cl I
CAS: 6940-76-7
Molecular weight: 204
Origin: RADIAN CORP
m/z	RELATIVE INTENSITY
14	30
15	70
25	50
26	520
27	1540
28	470
35	140
36	110
37	480
38	770
39	3630
40	460
41	9999
42	540
47	80
48	100
49	1930
50	50
51	600
61	170
63	70
73	40
75	210
76	180
77	4980
78	230
79	1580
80	40
127	4240
128	650
129	10
139	90
140	80
141	700
142	20
153	20
154	20
155	620
162	20
204	4060
205	130
206	1280
207	10
