Mass Spectrum: 2-Propanol, 1-chloro-3-propoxy-
Formula: C6 H13 Cl O2
CAS: 6943-58-4
Molecular weight: 152
Origin: Japan AIST/NIMC Database- Spectrum MS-NW-7837
m/z	RELATIVE INTENSITY
14	30
15	329
16	10
17	10
18	40
26	70
27	1149
28	179
29	999
30	40
31	739
32	30
33	40
35	10
36	90
37	20
38	40
39	409
40	80
41	1729
42	379
43	9999
44	2059
45	439
46	20
48	10
49	149
50	20
51	60
55	399
56	50
57	569
58	109
59	159
60	40
61	1969
62	60
63	60
65	40
67	20
69	10
71	50
72	20
73	4049
74	209
75	60
76	20
77	20
78	40
79	419
80	20
81	139
85	50
86	80
87	20
91	20
92	20
93	589
94	30
95	189
96	10
99	20
103	239
104	20
109	20
111	10
116	269
117	30
121	40
123	50
125	20
