Mass Spectrum: 2-Amino-5-bromo-3-nitropyridine
Formula: C5 H4 Br N3 O2
CAS: 6945-68-2
Molecular weight: 217
Origin: NIST Mass Spectrometry Data Center
m/z	RELATIVE INTENSITY
10	40
11	50
12	190
13	130
15	110
19	120
20	20
26	150
27	320
28	1672
29	150
30	2322
32	210
36	150
37	2402
38	2803
39	651
40	440
41	631
42	240
43	320
44	200
46	671
49	250
50	2142
51	731
52	1491
53	1241
54	80
62	240
63	1181
64	3713
65	3573
66	721
79	210
80	170
81	40
91	1391
92	9999
93	951
108	681
116	220
117	1672
118	490
119	1581
143	130
144	1181
146	1001
159	691
161	681
171	2772
172	50
173	2772
187	230
189	180
200	60
217	9879
218	260
219	9278
220	611
