Mass Spectrum: 2(3H)-Furanone, 5-ethyldihydro-
Formula: C6 H10 O2
CAS: 695-06-7
Molecular weight: 114
Origin: Japan AIST/NIMC Database- Spectrum MS-NW-3147
m/z	RELATIVE INTENSITY
14	40
15	109
18	40
25	10
26	269
27	1229
28	1359
29	3649
30	169
31	119
32	10
37	30
38	70
39	529
40	109
41	619
42	1509
43	139
44	20
45	20
50	40
51	40
52	20
53	80
54	50
55	859
56	1739
57	1609
58	169
59	179
60	20
61	10
67	30
68	20
69	20
70	1019
71	70
72	50
84	40
85	9999
86	749
87	70
99	10
113	99
114	99
115	10
