Mass Spectrum: 1,4-Dioxaspiro[4.4]non-6-ene
Formula: C7 H10 O2
CAS: 695-56-7
Molecular weight: 126
Origin: Chuck Anderson, Aldrich Chemical Co.
m/z	RELATIVE INTENSITY
13	5
14	72
15	326
16	22
18	3
19	34
25	27
26	514
27	1922
28	1730
29	754
30	104
31	90
32	13
35	9
36	6
37	163
38	562
39	4653
40	1384
41	759
42	1129
43	1999
44	171
45	307
46	10
48	11
49	64
50	480
51	778
52	437
53	3057
54	4153
55	2999
56	687
57	115
58	11
60	11
61	54
62	150
63	326
64	81
65	1269
66	3191
67	2365
68	228
69	312
70	155
71	355
72	22
73	85
77	34
78	6
79	82
80	2
81	2461
82	4730
83	942
84	63
86	49
95	13
96	1249
97	284
98	304
99	3095
100	350
101	25
111	36
125	1249
126	9999
127	653
128	58
