Mass Spectrum: Piperidine, 1,3-dimethyl-
Formula: C7 H15 N
CAS: 695-35-2
Molecular weight: 113
Origin: V.A.KOPTYUG, ATLAS OF MASS SPECTRA OF ORGANIC COMPOUNDS
m/z	RELATIVE INTENSITY
26	250
27	1050
29	500
30	370
36	100
38	120
39	1360
40	320
41	2360
42	5319
43	7669
45	150
50	100
51	150
52	140
53	390
54	320
55	810
56	570
57	1260
58	5749
59	250
64	100
65	180
66	140
67	410
68	600
69	540
70	1770
71	1800
72	170
78	120
79	200
80	180
81	360
82	560
83	210
84	2230
85	350
92	120
93	150
94	310
95	150
96	620
97	300
98	1390
99	180
101	120
105	100
108	120
110	300
111	260
112	9999
113	5319
114	420
