Mass Spectrum: Pyridine, 2,3,5-trimethyl-
Formula: C8 H11 N
CAS: 695-98-7
Molecular weight: 121
m/z	RELATIVE INTENSITY
26	430
27	1992
28	1371
29	200
30	30
32	150
37	220
38	661
39	2993
40	480
41	841
42	791
43	420
50	701
51	1521
52	961
53	1181
54	260
62	240
63	571
64	200
65	621
66	230
67	140
74	120
75	160
76	100
77	1722
78	671
79	2903
80	701
83	180
91	530
92	190
93	631
94	280
104	140
105	110
106	2642
107	60
118	120
119	490
120	4714
121	9999
122	931
