Mass Spectrum: 1-Azabicyclo[2.2.2]octane, 3-methyl-
Formula: C8 H15 N
CAS: 695-88-5
Molecular weight: 125
Origin: J. MITERA
m/z	RELATIVE INTENSITY
26	140
27	970
29	550
30	350
38	70
39	970
40	210
41	1970
42	9999
43	900
44	480
45	850
50	70
51	140
52	140
53	410
54	410
55	1450
56	690
57	620
58	620
63	30
64	30
65	140
66	140
67	550
68	1210
69	1000
70	480
71	480
77	70
78	30
79	140
80	140
81	210
82	1790
83	720
84	280
93	70
94	140
95	140
96	2410
97	900
98	140
108	140
109	70
110	1800
111	240
122	140
123	210
124	1310
125	2970
126	280
