Mass Spectrum: 2-Pyridinamine, 4-methyl-
Formula: C6 H8 N2
CAS: 695-34-1
Molecular weight: 108
Origin: Japan AIST/NIMC Database- Spectrum MS-NW-1418
m/z	RELATIVE INTENSITY
14	30
15	60
26	99
27	509
28	629
29	50
30	70
36	10
37	179
38	419
39	1119
40	339
41	979
42	269
43	379
44	10
46	10
49	60
50	289
51	419
52	449
53	1149
54	299
55	60
56	30
61	40
62	70
63	189
64	209
65	379
66	689
67	169
68	639
69	90
75	40
76	50
77	20
78	99
79	119
80	5999
81	2959
82	179
90	20
91	139
92	90
93	329
94	30
105	50
106	50
107	319
108	9999
109	749
110	20
