Mass Spectrum: Benzonitrile, 3-bromo-
Formula: C7 H4 Br N
CAS: 6952-59-6
Molecular weight: 181
Origin: Japan AIST/NIMC Database- Spectrum MS-NW-6225
m/z	RELATIVE INTENSITY
12	10
14	10
25	30
26	99
27	229
28	90
36	90
37	439
38	479
39	239
40	20
43	30
44	10
48	70
49	369
50	1779
51	1679
52	289
53	10
55	10
56	10
57	10
60	60
61	169
62	209
63	179
64	109
65	10
72	50
73	249
74	769
75	2439
76	1259
77	109
78	60
79	90
80	40
81	90
82	40
84	20
85	30
86	50
87	40
88	20
90	359
91	349
92	40
93	10
98	40
99	299
100	289
101	219
102	9999
103	839
104	40
105	20
106	40
107	20
116	10
117	30
118	20
119	30
128	20
129	20
130	30
131	10
132	10
141	10
142	10
153	20
154	20
155	20
156	10
157	10
179	10
180	20
181	9079
182	779
183	8659
184	719
185	30
