Mass Spectrum: Cyclohexanol, 2,4-dimethyl-
Formula: C8 H16 O
CAS: 69542-91-2
Molecular weight: 128
Origin: NIST Mass Spectrometry Data Center, 1990.
m/z	RELATIVE INTENSITY
15	480
16	2
18	273
26	357
27	4302
28	2079
29	5160
30	412
31	1252
38	415
39	4928
40	1060
41	8708
42	2426
43	9446
44	2805
45	1104
50	262
51	648
52	294
53	1653
54	690
55	6587
56	4605
57	9394
58	6393
59	416
63	183
65	413
67	3945
68	2000
69	4914
70	1722
71	5462
72	910
73	117
77	387
78	120
79	548
80	496
81	4064
82	3636
83	774
84	4542
85	1968
86	282
91	240
93	285
95	9999
96	757
97	399
99	182
100	460
109	692
110	3235
111	370
128	227
