Mass Spectrum: m-Terephthalanisidide
Formula: C22 H20 N2 O4
CAS: 6957-81-9
Molecular weight: 376
Origin: Div. of Experiment Therapeutics WRAIR, WRAMC, Washington DC 20307
m/z	RELATIVE INTENSITY
41	251
43	406
44	97
45	154
50	97
51	99
52	115
57	202
58	406
75	138
76	1337
77	231
88	708
95	165
103	212
104	2659
105	171
123	284
127	134
132	97
154	179
155	187
167	115
168	119
183	266
188	189
225	945
226	225
254	9999
255	1557
256	121
376	6275
377	1394
378	169
