Mass Spectrum: Arsine,dimethylphenyl-
Formula: C8 H11 As
CAS: 696-26-4
Molecular weight: 182
Origin: Frank Antolasic, RMIT Applied Chemistry Department, Victoria Australia 3001
m/z	RELATIVE INTENSITY
18	0
26	90
27	360
38	200
39	561
50	871
51	2152
52	280
61	120
62	110
63	601
65	821
73	90
74	370
75	390
76	200
77	1241
78	631
79	470
89	1982
91	9999
92	751
100	841
101	611
102	170
103	641
105	320
112	320
113	410
114	130
123	100
124	571
125	611
126	330
139	360
148	110
151	3133
152	1942
153	250
165	2432
167	9469
168	671
182	7257
183	621
