Mass Spectrum: Pyrimidine, 2,4,6-trifluoro-
Formula: C4 H F3 N2
CAS: 696-82-2
Molecular weight: 134
Origin: V.A. KOPTYUG, ATLAS OF MS OF ORG. CMPDS., ED. 2
m/z	RELATIVE INTENSITY
33	3790
36	50
38	80
44	1590
46	200
51	470
58	110
62	360
70	960
71	130
76	50
84	60
85	60
88	190
89	1370
90	60
107	890
115	1180
133	80
134	9999
135	420
