Mass Spectrum: N-Allyl morpholine
Formula: C7 H13 N O
CAS: 696-57-1
Molecular weight: 127
Origin: NIST Mass Spectrometry Data Center, 1990.
m/z	RELATIVE INTENSITY
13	66
14	183
15	1062
16	52
25	80
26	522
27	2046
28	4080
29	1615
30	1008
31	270
32	76
37	140
38	392
39	2795
40	984
41	9999
42	5659
43	1835
44	355
45	157
51	72
52	145
53	174
54	1244
55	1922
56	2148
57	310
58	155
59	64
65	69
66	90
67	395
68	3779
69	2773
70	634
71	110
72	140
80	121
82	2208
83	345
84	525
85	489
86	1149
87	110
94	91
96	1379
97	502
98	460
99	108
100	1820
101	119
112	826
113	51
125	105
126	743
127	2343
128	238
