Mass Spectrum: Phenyldichloroarsine
Formula: C6 H5 As Cl2
CAS: 696-28-6
Molecular weight: 222
Origin: A.A.Kutin, Moscow, Russia
m/z	RELATIVE INTENSITY
36	721
38	190
39	190
50	1001
51	2372
74	400
75	300
76	300
77	7517
78	811
100	390
101	210
110	911
112	2072
114	791
124	190
125	190
151	2172
152	801
154	1501
186	1081
187	9999
188	1001
189	3363
222	5815
223	400
224	4574
225	290
226	701
