Mass Spectrum: Cyclohexane, (1-methylethyl)-
Formula: C9 H18
CAS: 696-29-7
Molecular weight: 126
Origin: Japan AIST/NIMC Database- Spectrum MS-NW-3641
m/z	RELATIVE INTENSITY
15	70
26	50
27	1169
28	70
29	899
30	20
36	20
37	10
38	50
39	1179
40	179
41	4099
42	689
43	1289
44	50
50	60
51	139
52	80
53	459
54	859
55	8989
56	1009
57	349
58	20
62	10
63	30
64	10
65	90
66	60
67	2769
68	269
69	1749
70	189
71	20
77	99
78	30
79	129
80	40
81	349
82	7919
83	9999
84	739
85	30
91	30
93	10
95	20
96	20
97	50
98	20
109	10
111	199
112	20
125	20
126	1009
127	109
