Mass Spectrum: trans-1,2-Cyclopropanedicarboxylic acid
Formula: C5 H6 O4
CAS: 696-75-3
Molecular weight: 130
Origin: Japan AIST/NIMC Database- Spectrum MS-IW-6021
m/z	RELATIVE INTENSITY
12	10
13	20
14	50
15	90
16	10
17	119
18	589
19	30
20	10
24	10
25	50
26	249
27	689
28	649
29	1719
30	60
31	349
32	10
33	20
34	80
36	40
37	339
38	679
39	3949
40	1389
41	1399
42	709
43	619
44	559
45	2779
46	70
47	40
48	30
49	20
50	20
51	10
52	20
53	189
54	50
55	1869
56	279
57	729
58	50
60	119
63	10
65	10
66	249
67	299
68	1549
69	439
70	149
71	329
72	50
73	189
74	10
81	10
82	10
83	70
84	9999
85	5689
86	419
87	50
88	70
89	10
94	50
95	179
96	20
99	90
100	30
101	10
102	10
111	10
112	1869
113	1219
114	80
115	10
129	179
130	389
131	80
