Mass Spectrum: Aziridine, 1-phenyl-
Formula: C8 H9 N
CAS: 696-18-4
Molecular weight: 119
m/z	RELATIVE INTENSITY
27	300
28	200
38	200
39	500
40	100
41	400
42	601
50	400
51	1201
52	300
63	300
64	400
65	701
77	2702
78	400
91	9999
92	1001
104	701
118	901
119	4004
120	400
