Mass Spectrum: Furan, tetrahydro-2,5-dimethoxy-
Formula: C6 H12 O3
CAS: 696-59-3
Molecular weight: 132
Origin: Japan AIST/NIMC Database- Spectrum MS-NW-1043
m/z	RELATIVE INTENSITY
12	10
13	20
14	99
15	1309
16	30
17	20
18	99
25	20
26	199
27	1149
28	569
29	2339
30	149
31	1279
32	419
33	349
37	60
38	129
39	1249
40	219
41	6189
42	1739
43	559
44	179
45	2969
46	60
47	309
50	10
51	20
53	109
54	10
55	269
56	239
57	2309
58	669
59	1579
60	50
61	239
67	10
68	209
69	6259
70	389
71	5599
72	9999
73	639
74	50
75	1559
76	50
77	10
83	30
84	10
85	179
86	20
87	20
88	80
89	10
91	40
92	30
98	20
99	279
100	509
101	7419
102	439
103	40
114	20
115	169
116	10
131	449
132	30
