Mass Spectrum: p-Iodoanisole
Formula: C7 H7 I O
CAS: 696-62-8
Molecular weight: 234
Origin: NIST Mass Spectrometry Data Center, 1990.
m/z	RELATIVE INTENSITY
14	67
15	412
16	11
18	18
25	31
26	82
27	113
28	108
29	135
30	25
31	37
36	56
37	422
38	1066
39	204
41	39
42	39
43	40
49	171
50	1576
51	510
52	66
53	164
60	82
61	427
62	887
63	2647
64	2759
65	181
66	88
73	233
74	793
75	430
76	882
77	1992
78	231
79	292
80	28
92	3000
93	199
94	27
107	867
108	41
117	142
127	460
128	43
152	29
164	66
165	82
176	22
191	1619
192	89
203	146
204	63
219	3583
220	243
231	23
234	9999
235	795
236	60
