Mass Spectrum: 2-Chlorobenzenesulfonamide
Formula: C6 H6 Cl N O2 S
CAS: 6961-82-6
Molecular weight: 191
Origin: NIST Mass Spectrometry Data Center, 1994
m/z	RELATIVE INTENSITY
15	22
17	119
18	59
25	40
26	60
27	101
28	133
30	107
32	463
35	82
36	97
37	508
38	644
39	758
40	62
41	16
44	46
45	137
46	495
47	218
48	871
49	627
50	4557
51	1658
52	258
53	113
57	61
58	51
60	89
61	547
62	328
63	993
64	2814
65	932
66	190
69	349
70	79
71	55
72	191
73	1146
74	2758
75	8778
76	1512
77	319
79	111
80	680
81	153
82	122
83	55
84	594
85	1094
86	221
87	434
89	41
90	113
91	228
92	1496
93	144
95	136
96	91
97	56
98	41
99	827
100	247
101	304
102	99
107	71
108	479
109	147
110	41
111	9999
112	893
113	3365
114	265
121	62
127	4294
128	5420
129	1704
130	1508
131	301
133	89
156	680
157	51
158	49
159	68
175	2687
176	183
177	1037
178	62
179	50
191	5037
192	457
193	1784
194	148
195	88
