Mass Spectrum: 3-Octenoic acid, methyl ester, (Z)-
Formula: C9 H16 O2
CAS: 69668-85-5
Molecular weight: 156
Origin: FOOD RESEARCH REPORT 118, K.E. MURRAY & COLLEAGUES, DIV. OF FOOD RESEARCH, CSIRO, AUSTRALIA
m/z	RELATIVE INTENSITY
26	180
27	3190
28	1660
29	1890
30	230
31	380
32	190
33	40
37	40
38	140
39	3190
40	470
41	6630
42	830
43	2900
44	3020
45	250
46	20
49	10
50	130
51	320
52	210
53	1540
54	3250
55	9999
56	980
57	440
58	120
59	5380
60	130
61	40
62	20
63	80
64	20
65	270
66	210
67	2660
68	630
69	600
70	130
71	1600
72	450
73	130
74	7750
75	490
76	40
77	200
78	70
79	260
80	130
81	1720
82	5440
83	2010
84	150
85	1770
86	110
87	990
88	190
89	20
91	80
92	20
93	70
94	50
95	510
96	3020
97	1720
98	140
99	140
100	110
101	320
102	20
105	20
106	60
107	80
108	10
109	80
110	10
111	150
112	40
113	620
114	440
115	70
122	10
123	70
124	2780
125	630
126	50
127	300
128	40
141	20
154	40
156	210
157	10
