Mass Spectrum: Acetamide, 2-chloro-N-(2,6-diethylphenyl)-
Formula: C12 H16 Cl N O
CAS: 6967-29-9
Molecular weight: 225
Origin: NIST Mass Spectrometry Data Center
m/z	RELATIVE INTENSITY
12	20
13	20
14	150
15	270
17	20
18	110
19	10
26	60
27	831
28	350
29	591
30	180
31	10
35	30
36	40
37	30
38	120
39	1081
40	170
41	591
42	911
43	340
44	60
45	10
47	20
49	1501
50	300
51	1181
52	370
53	490
54	140
55	110
56	50
59	50
61	20
62	110
63	440
64	170
65	771
66	180
67	90
68	20
69	20
70	20
72	40
73	20
74	60
75	130
77	2432
78	450
79	851
80	130
87	40
88	80
89	320
90	270
91	1391
92	210
93	220
94	110
101	40
102	200
103	510
104	370
105	601
106	270
107	120
108	20
113	10
115	731
116	400
117	1521
118	781
119	881
120	1151
121	180
122	20
127	80
128	250
129	160
130	470
131	360
132	1091
133	400
134	771
135	190
136	10
140	10
141	10
142	70
143	80
144	100
146	591
147	1912
148	1551
149	240
150	20
154	20
155	10
156	50
158	280
159	110
160	250
161	380
162	80
168	10
170	20
172	120
174	160
176	9999
177	1241
178	140
179	20
180	20
188	10
190	60
191	10
196	220
197	30
198	90
206	10
208	20
210	120
211	10
212	30
225	1301
226	210
227	430
228	60
