Mass Spectrum: 2-Bromo-5-methylbenzoic acid
Formula: C8 H7 Br O2
CAS: 6967-82-4
Molecular weight: 214
Origin: NIST Mass Spectrometry Data Center, 1994
m/z	RELATIVE INTENSITY
15	139
18	77
26	263
27	742
28	190
29	230
36	68
37	605
38	1198
39	3519
40	374
41	179
42	68
43	724
44	860
45	2023
49	367
50	1939
51	2092
52	520
53	864
54	81
55	187
58	121
59	362
60	146
61	923
62	2370
63	5344
64	1258
65	1104
66	145
67	202
73	196
74	983
75	667
76	145
77	3701
78	1055
79	1272
80	204
81	236
82	168
83	68
84	435
85	587
86	874
87	627
88	68
89	6244
90	5739
91	2517
92	253
98	381
99	370
105	658
106	508
107	1098
108	132
116	139
117	335
118	171
119	280
130	100
133	554
135	4858
136	539
137	61
141	72
143	186
145	91
169	2943
170	491
171	2888
172	219
197	5613
198	742
199	5167
200	510
201	30
214	9999
215	1168
216	9294
217	905
