Mass Spectrum: L-Cystine, 4TMS derivative
Formula: C18 H44 N2 O4 S2 Si4
CAS: 69688-44-4
Molecular weight: 528
Origin: NIST Mass Spectrometry Data Center
m/z	RELATIVE INTENSITY
27	10
28	20
29	20
30	10
31	10
41	10
42	60
43	130
44	110
45	661
46	60
47	80
53	10
54	20
55	120
56	50
57	80
58	80
59	450
60	70
61	70
62	10
66	10
68	10
69	10
70	110
71	30
72	220
73	7857
74	841
75	841
76	80
77	40
82	10
83	10
84	50
85	40
86	120
87	50
88	20
89	20
90	20
91	60
92	10
93	10
96	10
97	10
98	60
100	2492
101	370
102	180
103	160
104	30
105	60
106	30
107	10
108	10
112	20
113	20
114	320
115	1151
116	410
117	200
118	60
119	50
120	140
121	20
122	20
128	50
129	140
130	200
131	380
132	611
133	380
134	90
135	40
136	10
142	30
143	10
144	140
146	6876
147	3063
148	1261
149	320
150	70
151	20
152	10
156	10
158	50
159	60
160	80
161	40
162	20
163	60
164	10
165	10
172	110
173	30
174	200
175	40
176	40
178	500
179	110
180	100
181	20
182	10
184	10
185	10
186	10
188	190
189	40
190	70
191	30
192	20
193	10
194	20
195	10
198	20
200	20
201	10
202	100
203	190
204	80
205	30
206	20
207	10
214	10
216	530
218	9999
219	2082
220	1281
221	250
222	100
223	30
224	10
225	10
230	20
232	1371
233	290
234	140
235	30
236	10
246	30
247	10
248	90
249	110
250	100
251	30
252	30
253	10
254	10
260	90
261	30
262	50
263	40
264	1291
265	681
266	1902
267	440
268	240
269	40
270	10
276	10
277	10
282	10
288	140
289	180
290	70
291	130
292	60
293	30
294	30
295	10
296	250
297	871
298	210
299	150
300	30
301	10
304	10
311	10
320	10
321	10
322	80
323	30
324	20
325	10
338	150
339	130
340	50
341	20
342	10
411	1812
412	611
413	450
414	110
415	40
416	10
423	10
513	20
514	10
