Mass Spectrum: 1H-Pyrrole, 2-ethyl-4-methyl-
Formula: C7 H11 N
CAS: 69687-77-0
Molecular weight: 109
Origin: D. GAMES, M. HEWLINS, A. JACKSON, CHEM DEPT, UNIV COLL, CARDIFF, U.K.
m/z	RELATIVE INTENSITY
41	321
42	226
47	314
50	175
51	391
52	354
53	633
54	268
65	354
66	271
67	902
68	165
77	655
78	459
79	281
80	407
92	271
93	1680
94	9999
95	703
106	459
107	213
108	713
109	4613
110	419
