Mass Spectrum: 1H-Pyrrole, 3-ethyl-2,5-dimethyl-
Formula: C8 H13 N
CAS: 69687-78-1
Molecular weight: 123
Origin: D. GAMES, M. HEWLINS, A. JACKSON, CHEM DEPT, UNIV COLL, CARDIFF, U.K.
m/z	RELATIVE INTENSITY
41	238
42	1043
51	283
53	226
65	351
66	215
67	657
77	351
79	306
81	204
92	226
93	850
94	521
106	374
107	1258
108	9999
109	782
120	442
122	986
123	4070
124	192
