Mass Spectrum: 1,2-Benzenedicarboxylic acid, 4-bromo-
Formula: C8 H5 Br O4
CAS: 6968-28-1
Molecular weight: 244
Origin: NIST Mass Spectrometry Data Center, 1994
m/z	RELATIVE INTENSITY
12	115
13	35
16	64
17	8
18	31
24	61
25	205
26	199
27	8
28	423
32	16
36	462
37	3111
38	1242
39	100
40	35
44	261
45	35
48	307
49	1304
50	1585
51	432
52	35
53	398
60	293
61	706
62	332
63	178
64	33
65	62
72	317
73	2573
74	8698
75	9999
76	680
77	1176
78	824
79	671
80	189
81	716
82	180
83	51
84	51
85	63
86	24
91	512
92	410
93	100
101	178
103	534
104	207
105	43
106	179
115	27
116	44
117	65
118	53
119	35
127	30
128	189
129	42
130	150
152	43
154	4985
156	4761
157	299
182	8430
184	8138
185	630
186	38
226	2253
228	2187
229	183
230	26
