Mass Spectrum: Cyclobutene, hexafluoro-
Formula: C4 F6
CAS: 697-11-0
Molecular weight: 162
Origin: MC-110
m/z	RELATIVE INTENSITY
19	131
24	104
25	290
31	5139
32	55
36	117
37	8
43	164
44	4
48	9
49	1
50	400
51	5
55	465
56	16
62	587
63	12
67	6
69	748
70	8
74	768
75	26
81	64
82	2
86	23
87	1
90	10
93	9999
94	332
95	3
100	374
101	8
105	11
112	1917
113	60
124	137
125	5
131	234
132	6
143	1870
144	76
162	2930
163	123
164	3
