Mass Spectrum: Cyclohexanone, 2-(dimethylamino)-
Formula: C8 H15 N O
CAS: 6970-60-1
Molecular weight: 141
m/z	RELATIVE INTENSITY
38	61
39	703
40	158
41	970
42	2569
43	545
44	970
45	400
46	97
50	97
51	182
53	109
54	121
55	364
56	509
57	242
58	1212
67	61
68	242
69	109
70	2363
71	667
77	461
82	364
83	267
84	9999
85	1091
86	85
97	61
98	461
110	145
112	242
113	1115
114	97
141	824
142	97
