Mass Spectrum: 3-Ethyl-3-methylglutaric anhydride
Formula: C8 H12 O3
CAS: 6970-57-6
Molecular weight: 156
Origin: NIST Mass Spectrometry Data Center, 1994
m/z	RELATIVE INTENSITY
14	73
15	231
26	219
27	1776
28	423
29	1681
37	89
38	280
39	2876
40	627
41	2121
42	3306
43	637
50	251
51	311
52	152
53	855
54	89
55	9999
56	898
57	64
63	46
65	68
66	51
67	287
68	46
69	2196
70	8497
71	499
79	138
81	50
82	340
84	3865
85	267
94	1981
95	212
96	104
97	430
112	91
