Mass Spectrum: 2H-Pyran-2-one, 5,6-dihydro-4,6,6-trimethyl-
Formula: C8 H12 O2
CAS: 6970-56-5
Molecular weight: 140
m/z	RELATIVE INTENSITY
27	1051
28	1571
29	150
39	1932
40	200
41	711
43	7196
44	701
51	170
52	100
53	530
54	1231
55	881
56	350
67	170
81	100
82	9999
83	1051
84	100
97	440
125	2462
126	250
140	170
