Mass Spectrum: 17-Pentatriacontene
Formula: C35 H70
CAS: 6971-40-0
Molecular weight: 490
Origin: Japan AIST/NIMC Database- Spectrum MS-NW-5943
m/z	RELATIVE INTENSITY
15	20
26	70
27	749
28	209
29	1899
30	50
36	10
37	20
38	30
39	719
40	149
41	4879
42	1039
43	9049
44	299
45	20
48	10
49	10
50	30
51	70
52	50
53	409
54	1509
55	6669
56	2839
57	9999
58	479
59	99
60	40
61	20
62	10
63	30
64	10
65	129
66	249
67	2609
68	2079
69	5699
70	2729
71	5609
72	349
73	50
74	20
75	10
76	10
77	179
78	109
79	619
80	519
81	2239
82	3559
83	7279
84	2069
85	3919
86	289
87	20
88	10
89	20
90	10
91	399
92	319
93	319
94	339
95	1739
96	3079
97	7519
98	1559
99	1309
100	129
101	20
102	20
103	30
104	109
105	669
106	209
107	179
108	139
109	989
110	1129
111	4149
112	1129
113	959
114	90
115	60
116	30
117	149
118	90
119	169
120	70
121	179
122	139
123	609
124	769
125	2319
126	849
127	709
128	80
129	90
130	50
131	139
132	60
133	109
134	50
135	139
136	90
137	419
138	569
139	1309
140	669
141	519
142	70
143	60
144	30
145	90
146	30
147	60
148	30
149	70
150	30
151	189
152	419
153	899
154	499
155	409
156	60
157	30
158	10
159	30
160	20
161	40
162	20
163	40
164	20
165	99
166	329
167	669
168	409
169	359
170	50
171	30
172	10
173	20
174	20
175	30
176	10
177	20
178	20
179	70
180	309
181	549
182	369
183	279
184	50
185	30
186	10
187	20
188	10
189	20
190	10
191	20
192	20
193	60
194	269
195	429
196	329
197	259
198	40
199	20
200	10
201	20
202	10
203	20
204	10
205	20
206	20
207	50
208	269
209	349
210	289
211	199
212	50
213	20
215	10
216	10
217	10
218	20
219	20
220	20
221	60
222	259
223	309
224	279
225	199
226	50
227	20
228	10
229	10
230	10
231	20
232	20
233	20
234	30
235	50
236	279
237	279
238	249
239	199
240	40
241	30
242	10
243	10
244	10
245	20
246	20
247	20
248	20
249	50
250	269
251	229
252	209
253	179
254	50
255	30
256	10
257	20
258	10
259	10
260	20
261	20
262	20
263	50
264	219
265	189
266	199
267	239
268	70
269	40
270	20
271	20
272	10
273	20
274	20
275	20
276	20
277	40
278	189
279	189
280	159
281	139
282	60
283	60
284	20
285	20
286	10
287	10
288	20
289	20
290	20
291	40
292	179
293	149
294	139
295	119
296	40
297	30
299	10
300	10
301	10
302	20
303	20
304	20
305	40
306	149
307	149
308	119
309	80
310	30
311	20
312	10
313	10
314	10
315	10
316	20
317	20
318	20
319	40
320	129
321	109
322	99
323	70
324	20
325	20
327	10
328	10
330	10
331	20
332	10
333	20
334	90
335	80
336	80
337	60
338	20
341	10
344	10
345	10
347	20
348	70
349	60
350	60
351	50
352	20
356	10
358	10
359	10
360	10
361	10
362	50
363	50
364	50
365	40
366	10
372	10
375	10
376	40
377	30
378	40
379	30
380	10
389	10
390	40
391	30
392	30
393	20
404	20
405	20
406	30
407	20
408	10
418	20
419	10
420	20
421	20
422	10
432	10
433	10
434	20
435	10
447	10
456	10
460	10
461	10
462	60
463	30
474	10
475	20
476	10
482	10
484	40
485	20
486	10
488	50
489	20
490	139
491	50
492	10
