Mass Spectrum: 3-Methoxybenzyl alcohol
Formula: C8 H10 O2
CAS: 6971-51-3
Molecular weight: 138
Origin: Japan AIST/NIMC Database- Spectrum MS-NW-6446
m/z	RELATIVE INTENSITY
14	20
15	189
18	10
26	70
27	309
28	199
29	339
30	40
31	359
32	20
33	40
37	109
38	339
39	1149
40	199
41	859
42	40
43	90
44	20
45	40
47	20
49	50
50	509
51	939
52	309
53	239
54	30
55	319
56	20
57	20
60	10
61	99
62	229
63	699
64	529
65	1069
66	599
67	1109
68	99
69	30
73	30
74	169
75	109
76	189
77	3079
78	969
79	1299
80	109
81	90
82	10
83	10
84	10
85	20
86	30
87	20
88	10
89	399
90	179
91	879
92	489
93	149
94	1559
95	1099
96	80
99	40
104	10
105	1799
106	439
107	2109
108	289
109	5249
110	449
111	30
119	90
120	149
121	1209
122	279
123	679
124	60
125	10
135	309
136	219
137	2389
138	9999
139	889
140	80
