Mass Spectrum: 2(3H)-Furanone, dihydro-4,5-dimethyl-
Formula: C6 H10 O2
CAS: 6971-63-7
Molecular weight: 114
m/z	RELATIVE INTENSITY
37	378
38	644
39	3089
41	3822
42	9999
43	4311
45	3911
46	178
50	244
51	244
52	156
53	400
54	133
55	2489
56	933
57	67
67	111
69	200
70	1533
71	578
85	267
99	289
113	24
114	91
115	13
