Mass Spectrum: Butanoic acid, 1-methyloctyl ester
Formula: C13 H26 O2
CAS: 69727-42-0
Molecular weight: 214
Origin: FOOD RESEARCH REPORT 122, K.E. MURRAY & COLLEAGUES, DIV OF FOOD RESEARCH, CSIRO, AUSTRALIA
m/z	RELATIVE INTENSITY
27	900
29	1000
39	600
40	200
41	2300
42	1000
43	4300
45	300
53	200
54	200
55	2100
56	1800
57	1300
58	100
60	200
67	200
68	200
69	1100
70	1500
71	9999
72	500
73	200
82	200
83	700
84	900
85	700
86	300
87	100
88	500
89	1100
97	800
98	300
115	1400
116	100
126	1000
127	400
