Mass Spectrum: Butanoic acid, 4-hexenyl ester, (Z)-
Formula: C10 H18 O2
CAS: 69727-41-9
Molecular weight: 170
Origin: FOOD RESEARCH REPORT 120, K.E. MURRAY & COLLEAGUES, DIV. OF FOOD RESEARCH, CSIRO, AUSTRALIA
m/z	RELATIVE INTENSITY
26	200
27	2500
29	1500
31	200
38	100
39	1800
40	400
41	3500
42	800
43	5100
45	200
51	100
52	100
53	700
54	1600
55	2800
56	3000
57	200
65	100
66	100
67	9999
68	800
69	400
71	2800
72	200
79	200
80	100
81	800
82	5700
83	600
84	200
85	400
89	200
