Mass Spectrum: Thiourea, N,N-dimethyl-
Formula: C3 H8 N2 S
CAS: 6972-05-0
Molecular weight: 104
Origin: A G. LOUDON.
m/z	RELATIVE INTENSITY
30	1900
33	100
34	100
36	100
40	100
41	200
42	1200
43	500
44	5700
45	600
46	100
47	100
52	100
53	100
55	200
56	100
57	100
58	100
59	400
60	1700
61	300
62	100
63	200
70	100
71	400
72	200
73	100
75	100
76	100
84	100
88	300
89	100
104	9999
105	500
106	500
