Mass Spectrum: 6-Chloro-2,4-dihydroxy-1,3-dimethylpyrimidine
Formula: C6 H7 Cl N2 O2
CAS: 6972-27-6
Molecular weight: 174
Origin: NIST Mass Spectrometry Data Center
m/z	RELATIVE INTENSITY
12	10
13	10
14	40
15	601
16	10
18	20
24	10
25	80
26	210
27	741
28	1561
29	210
30	60
31	20
35	30
36	20
37	20
38	100
39	210
40	120
41	100
42	180
43	20
47	60
48	30
49	230
50	30
51	270
52	741
53	490
54	540
55	470
56	400
57	50
58	110
59	20
60	230
61	110
62	120
63	140
64	20
65	40
66	20
67	160
68	70
69	20
70	90
73	60
74	130
75	20
76	180
77	10
78	60
79	10
80	100
82	9999
83	480
84	30
86	20
87	90
88	70
89	90
90	50
91	30
92	10
94	10
96	20
111	10
115	10
117	1001
118	140
119	330
120	40
130	30
131	30
132	10
133	10
139	20
145	30
146	10
147	10
174	2592
175	200
176	861
177	60
