Mass Spectrum: N-Methylpyrrole-2-carboxylic acid
Formula: C6 H7 N O2
CAS: 6973-60-0
Molecular weight: 125
Origin: Japan AIST/NIMC Database- Spectrum MS-NW-8921
m/z	RELATIVE INTENSITY
14	10
15	199
16	10
17	10
18	30
25	10
26	109
27	469
28	409
29	50
30	10
31	20
37	149
38	369
39	1689
40	169
41	199
42	569
43	40
44	489
45	129
48	129
49	70
50	249
51	409
52	709
53	2289
54	399
55	289
56	30
57	20
58	10
61	10
62	10
63	30
64	149
65	90
66	229
67	80
68	70
69	30
70	10
71	10
75	20
76	30
77	30
78	1559
79	1139
80	2909
81	1029
82	109
83	50
84	20
86	10
93	40
94	379
95	30
96	70
97	80
105	10
106	1839
107	449
108	4419
109	309
110	20
123	20
124	779
125	9999
126	729
127	60
