Mass Spectrum: Propane, 1-bromo-3-chloro-2-methyl-
Formula: C4 H8 Br Cl
CAS: 6974-77-2
Molecular weight: 170
Origin: Chuck Anderson, Aldrich Chemical Co.
m/z	RELATIVE INTENSITY
13	3
14	19
15	83
16	2
24	1
25	15
26	220
27	1442
28	250
29	1826
30	46
32	1
35	22
36	66
37	262
38	576
39	4038
40	404
41	7210
42	1137
43	47
44	5
47	49
48	60
49	929
50	258
51	576
52	88
53	913
54	482
55	8973
56	432
57	11
59	2
60	17
61	93
62	216
63	656
64	81
65	206
66	7
67	2
71	1
72	9
73	63
74	12
75	665
76	108
77	452
78	43
79	144
80	36
81	62
82	34
83	4
84	2
85	2
86	2
87	5
88	4
89	116
90	608
91	9999
92	584
93	3236
94	162
95	362
96	11
97	4
104	9
105	54
106	39
107	134
108	31
109	84
110	2
114	1
115	1
116	5
117	19
118	5
119	146
120	36
121	2243
122	98
123	2019
124	64
127	25
128	2
129	33
130	2
131	10
133	25
134	37
135	32
136	38
137	9
141	6
143	6
145	1
153	3
155	14
157	16
159	4
170	1257
171	58
172	1658
173	73
174	396
175	18
