Mass Spectrum: Ethanethioic acid, S-(3-methoxyphenyl) ester
Formula: C9 H10 O2 S
CAS: 69746-44-7
Molecular weight: 182
Origin: NIST Mass Spectrometry Data Center
m/z	RELATIVE INTENSITY
14	30
15	210
26	20
27	30
28	20
29	40
30	10
37	30
38	110
39	250
40	10
41	140
42	110
43	3623
44	90
45	270
46	10
47	20
48	10
49	10
50	120
51	160
52	160
53	160
54	20
55	40
56	10
57	70
58	90
59	50
60	10
61	50
62	130
63	410
64	190
65	310
66	230
67	90
68	20
69	621
70	480
71	110
72	30
73	20
74	70
75	50
76	40
77	360
78	100
79	150
80	50
81	130
82	160
83	40
84	120
85	100
86	10
87	10
91	20
92	190
93	100
94	70
95	1211
96	1491
97	781
98	110
99	40
105	20
106	20
107	130
108	260
109	320
110	510
111	320
112	50
113	20
114	10
121	40
122	10
123	80
124	811
125	2462
126	220
127	120
128	10
136	10
137	20
138	40
139	861
140	9999
141	1091
142	611
143	50
151	10
153	10
154	10
166	10
182	1902
183	210
184	100
185	10
