Mass Spectrum: Benzoic acid, 4-methoxy-, decyl ester
Formula: C18 H28 O3
CAS: 6974-04-5
Molecular weight: 292
Origin: Zaikin V.G., TIPS RAS, Moscow, Russia
m/z	RELATIVE INTENSITY
27	10
29	40
36	10
38	10
39	30
41	130
42	30
43	110
44	20
50	10
51	10
53	10
54	10
55	170
56	70
57	50
63	30
64	60
65	20
67	30
68	20
69	90
70	70
71	10
76	30
77	270
78	30
79	20
81	20
82	10
83	60
84	30
92	230
93	20
94	10
97	30
98	10
104	20
105	20
106	10
107	170
108	30
109	60
110	10
111	10
112	10
119	10
120	10
121	20
135	3263
136	310
137	30
138	10
151	10
152	9999
153	2112
154	200
155	10
165	30
275	20
292	460
293	100
294	10
