Mass Spectrum: 1H-Indene, 4,7-dimethyl-
Formula: C11 H12
CAS: 6974-97-6
Molecular weight: 144
Origin: James Little,Eastman Chem.Co.,Kingsport,TN
m/z	RELATIVE INTENSITY
39	671
43	220
50	430
51	711
55	480
62	340
63	741
64	310
65	310
71	390
74	310
76	200
77	470
78	200
87	210
88	771
89	340
91	240
100	380
101	160
102	440
103	170
109	350
110	370
115	1531
116	340
125	130
126	260
127	1611
128	4234
129	9999
130	1231
139	240
141	671
142	270
143	1551
144	7547
145	1001
