Mass Spectrum: 6-Dodecyne
Formula: C12 H22
CAS: 6975-99-1
Molecular weight: 166
Origin: S.A. Rang et al., IR & MS of Unsatd. Hydrocarbons, 1977
m/z	RELATIVE INTENSITY
15	17
24	13
25	8
26	171
27	2688
28	538
29	4409
30	104
31	13
37	17
38	63
39	1981
40	453
41	6559
42	764
43	1811
44	13
45	8
49	4
50	104
51	439
52	821
53	1924
54	9999
55	6237
56	934
57	1047
58	54
59	8
60	17
61	4
62	13
63	100
64	50
65	651
66	524
67	9677
68	3548
69	3118
70	329
71	67
72	4
73	8
74	8
75	29
76	13
77	722
78	200
79	1104
80	467
81	7957
82	3763
83	707
84	58
85	17
87	4
89	8
91	340
92	58
93	350
94	242
95	7097
96	1726
97	288
98	21
99	4
102	4
103	17
104	4
105	42
106	8
107	88
108	63
109	2122
110	863
111	158
112	17
115	4
117	4
119	4
120	13
121	17
122	17
123	321
124	154
125	29
126	4
128	4
135	4
136	4
137	495
138	75
139	4
151	117
152	17
164	4
165	4
166	88
167	13
