Mass Spectrum: Cyclopropane, (1,2-dimethylpropyl)-
Formula: C8 H16
CAS: 6976-27-8
Molecular weight: 112
Origin: NIST Mass Spectrometry Data Center, 1990.
m/z	RELATIVE INTENSITY
15	109
26	117
27	1013
28	459
29	492
39	2436
41	6326
42	679
43	1883
44	149
50	140
51	346
52	148
53	815
54	378
55	2664
56	1216
57	475
63	83
65	198
66	112
67	858
68	83
69	9999
70	1626
71	701
77	134
79	156
81	108
83	1170
84	2844
85	211
97	323
