Mass Spectrum: 1-Methylpentyl cyclopropane
Formula: C9 H18
CAS: 6976-28-9
Molecular weight: 126
Origin: NIST Mass Spectrometry Data Center, 1990.
m/z	RELATIVE INTENSITY
15	101
27	2063
28	751
29	1933
39	3946
40	876
41	8924
42	1433
43	3502
44	167
50	159
51	431
52	201
53	1357
54	1159
55	5722
56	9999
57	2091
65	329
66	148
67	1172
68	721
69	6139
70	4733
71	394
77	198
79	163
81	164
82	218
83	1210
84	1986
85	866
97	749
98	1781
99	120
126	84
