Mass Spectrum: p-Toluic acid, pentyl ester
Formula: C13 H18 O2
CAS: 6976-74-5
Molecular weight: 206
Origin: Zaikin V.G., TIPS RAS, Moscow, Russia
m/z	RELATIVE INTENSITY
28	10
36	70
41	30
44	50
55	80
63	70
65	360
69	50
70	240
77	60
89	240
90	200
91	2542
92	390
93	260
105	50
107	60
118	80
119	9999
120	981
121	90
135	100
136	8568
137	6846
138	641
139	50
149	150
150	30
177	60
189	100
205	40
206	480
207	80
