Mass Spectrum: 1,1'-Biphenyl, 2,3,3',4',5,5',6-heptachloro-
Formula: C12 H3 Cl7
CAS: 69782-91-8
Molecular weight: 392
Origin: Organic Synthesis Lab, MSU, Moscow.TRC 1194
m/z	RELATIVE INTENSITY
44	504
47	193
49	350
50	147
60	215
61	640
62	176
71	127
72	494
73	1970
74	832
75	99
78	312
79	116
83	204
84	898
85	711
86	485
94	84
96	548
97	582
98	882
99	152
106	97
107	586
108	1651
109	1614
110	719
111	229
113	125
114	137
118	167
119	284
120	560
121	476
122	566
123	195
126	2215
127	2233
128	749
129	144
131	380
132	731
133	437
134	310
135	164
142	164
143	1451
144	2203
145	1279
146	1042
147	576
148	125
154	110
155	110
156	306
157	167
158	156
161	3036
162	5116
163	2931
164	1117
165	151
166	119
167	219
168	255
169	219
170	137
178	423
179	863
180	968
181	735
182	986
183	312
184	199
192	217
193	119
194	129
196	743
197	1341
198	1249
199	670
200	252
201	90
203	164
205	191
207	154
215	185
216	639
217	667
218	464
219	404
220	149
221	224
228	118
238	156
239	79
240	181
250	96
251	303
252	2544
253	534
254	2497
255	500
256	779
257	81
258	111
264	124
281	118
286	550
287	524
288	553
289	648
290	307
291	298
292	125
322	4174
323	718
324	6271
325	1008
326	4371
327	427
328	1235
329	162
330	171
355	108
356	113
357	130
358	118
359	234
360	135
361	223
392	4833
394	9999
395	1382
396	9193
397	1483
398	5344
399	792
400	1700
401	233
402	355
