Mass Spectrum: 1,1'-Biphenyl, 2,3,3',4,4',5'-hexachloro-
Formula: C12 H4 Cl6
CAS: 69782-90-7
Molecular weight: 358
Origin: Organic Synthesis Lab, MSU, Moscow.TRC 1230
m/z	RELATIVE INTENSITY
44	487
47	155
49	294
50	255
51	89
60	186
61	731
62	340
63	104
71	82
72	282
73	1109
74	1262
75	297
78	255
79	203
83	199
84	844
85	640
86	546
87	153
91	526
96	492
97	600
98	1109
99	321
107	253
108	921
109	2202
110	1396
111	419
114	169
115	127
118	86
119	212
120	292
121	400
122	591
123	264
126	1571
127	1529
131	147
132	394
133	433
134	224
135	215
144	2907
145	3623
146	2097
147	745
148	384
156	146
157	157
158	171
168	89
169	156
170	100
179	517
180	814
181	981
182	855
183	680
184	268
185	186
192	110
193	134
194	139
204	253
205	111
206	266
216	157
217	308
218	1975
219	528
220	1283
221	183
222	274
228	162
230	104
252	539
253	528
254	524
255	535
256	189
257	144
288	3795
289	631
290	4503
291	649
292	2402
293	354
294	688
322	75
324	164
325	172
358	4395
359	778
360	9999
361	1467
362	8248
363	1068
364	3276
365	395
366	737
367	93
368	125
