Mass Spectrum: 2-Furancarboxaldehyde, 5-nitro-
Formula: C5 H3 N O4
CAS: 698-63-5
Molecular weight: 141
Origin: Japan AIST/NIMC Database- Spectrum MS-NW-1401
m/z	RELATIVE INTENSITY
12	109
13	159
14	80
16	60
17	30
18	109
24	80
25	329
26	1409
27	3819
28	809
29	5129
30	6209
31	30
32	10
33	10
36	289
37	2279
38	6669
39	7939
40	649
41	629
42	109
43	40
44	349
45	10
46	169
48	40
49	199
50	449
51	469
52	819
53	569
54	1239
55	2809
56	90
57	30
61	10
65	90
66	1319
67	139
68	1919
69	90
70	20
80	369
81	30
82	439
83	4349
84	199
85	20
93	70
94	239
95	20
96	3829
97	199
98	20
111	959
112	60
125	119
140	99
141	9999
142	669
143	99
