Mass Spectrum: 2(5H)-Furanone, 5-ethyl-3-hydroxy-4-methyl-
Formula: C7 H10 O3
CAS: 698-10-2
Molecular weight: 142
Origin: Philip Morris R&D
m/z	RELATIVE INTENSITY
36	62
37	87
38	149
39	1165
40	570
41	2837
42	570
43	1264
44	25
45	396
49	50
50	112
53	458
54	87
55	880
56	520
57	5923
58	421
60	74
61	12
63	12
67	310
68	235
69	3271
70	372
71	297
72	25
73	297
75	74
76	37
81	12
83	124
84	87
85	1536
86	1326
87	260
89	124
90	37
95	37
96	112
97	9999
98	706
103	99
112	37
113	3606
114	483
117	37
133	186
142	4064
143	260
