Mass Spectrum: Benzeneethanol, .alpha.-methyl-
Formula: C9 H12 O
CAS: 698-87-3
Molecular weight: 136
Origin: Japan AIST/NIMC Database- Spectrum MS-NW-7841
m/z	RELATIVE INTENSITY
14	10
15	70
18	20
26	20
27	209
28	50
29	80
31	30
32	10
37	20
38	70
39	539
40	60
41	169
42	20
43	469
44	60
45	2829
46	80
49	10
50	159
51	389
52	109
53	50
55	20
57	50
58	60
59	20
60	90
61	30
62	90
63	269
64	70
65	859
66	90
72	189
73	10
74	50
75	40
76	40
77	269
78	109
79	90
85	10
86	20
87	20
89	199
90	109
91	5319
92	9999
93	779
94	40
102	40
103	319
104	40
105	20
107	20
108	20
115	159
116	40
117	299
118	209
119	40
120	20
121	259
122	30
134	10
135	40
136	109
137	10
