Mass Spectrum: Fluazifop-butyl
Formula: C19 H20 F3 N O4
CAS: 69806-50-4
Molecular weight: 383
Origin: NIST Mass Spectrometry Data Center, 1998.
m/z	RELATIVE INTENSITY
15	20
26	80
27	430
28	350
29	1350
30	40
31	40
37	10
38	90
39	340
40	10
41	1350
42	80
43	350
44	40
45	270
46	10
50	330
51	200
52	120
53	180
54	160
55	570
56	350
57	1210
58	50
59	10
61	10
62	90
63	670
64	560
65	310
66	40
67	10
68	10
69	330
70	20
71	10
73	240
74	110
75	550
76	560
77	200
78	60
79	120
80	70
81	190
82	110
83	20
85	10
86	10
87	30
88	60
89	50
90	10
91	1880
92	320
93	110
94	40
95	50
96	90
97	20
99	80
100	110
101	80
102	40
103	60
104	20
105	20
106	20
107	120
108	60
109	150
110	30
111	10
112	10
113	30
114	80
115	60
116	60
117	30
118	40
119	570
120	240
121	120
122	20
123	10
124	10
126	1110
127	380
128	100
129	60
130	50
131	170
132	60
133	140
134	40
135	50
136	90
137	30
138	10
139	10
141	700
142	100
143	40
144	80
145	10
146	2980
147	340
148	50
149	10
150	20
151	110
152	40
153	10
154	10
155	10
156	20
157	60
158	200
159	80
160	40
161	20
162	20
163	80
164	220
165	30
166	10
167	20
168	70
169	100
170	70
171	40
172	100
173	20
174	10
175	10
176	30
177	40
178	70
179	50
180	60
181	30
182	50
183	40
184	60
185	70
186	40
187	40
188	80
189	50
190	190
191	30
192	10
194	10
195	10
196	30
197	60
198	290
199	70
200	60
201	20
206	40
207	70
208	100
209	190
210	60
211	50
212	30
213	20
214	20
216	20
218	170
219	70
220	10
222	10
224	30
225	100
226	830
227	2270
228	280
229	20
234	30
235	80
236	110
237	120
238	2170
239	390
240	80
241	10
248	50
249	10
251	10
252	40
254	5749
255	2880
256	390
257	30
262	10
264	20
265	10
266	40
268	1210
269	180
270	20
280	100
282	9999
283	1810
284	180
285	10
298	10
308	10
309	10
310	10
326	60
327	160
328	50
329	10
341	20
364	590
365	120
366	20
383	4270
384	930
385	130
386	10
