Mass Spectrum: Haloxyfop-methyl
Formula: C16 H13 Cl F3 N O4
CAS: 69806-40-2
Molecular weight: 375
Origin: NIST Mass Spectrometry Data Center, 1998.
m/z	RELATIVE INTENSITY
15	360
16	10
26	130
27	350
28	260
29	230
30	20
31	140
33	10
35	10
36	10
37	30
38	170
39	260
40	10
41	140
42	30
43	470
44	30
45	130
46	10
47	10
49	20
50	620
51	350
52	240
53	370
54	370
55	750
56	200
57	70
58	10
59	2310
60	90
61	40
62	250
63	1830
64	1240
65	600
66	70
67	110
68	30
69	750
70	20
71	10
72	30
73	60
74	230
75	1090
76	910
77	230
78	60
79	240
80	140
81	390
82	240
83	30
84	30
85	210
86	40
87	450
88	60
89	60
90	150
91	2850
92	720
93	240
94	100
95	120
96	20
97	10
98	50
99	100
100	70
101	60
102	60
103	70
104	30
105	40
106	50
107	140
108	100
109	460
110	140
111	100
112	70
113	90
114	80
115	40
116	30
117	40
118	70
119	750
120	400
121	240
122	70
123	80
124	40
125	30
126	390
127	90
128	180
129	80
130	170
131	70
132	120
133	90
134	60
135	80
136	140
137	40
138	30
139	50
140	260
142	70
143	90
144	480
145	180
146	130
147	110
150	110
151	140
152	60
153	170
154	40
155	70
156	110
157	40
158	750
159	280
160	970
161	140
162	400
163	120
164	40
165	40
166	20
167	50
168	110
169	170
170	150
171	140
172	40
173	10
174	40
175	110
176	210
177	160
178	210
179	10
180	3710
181	400
182	1330
183	190
184	50
185	80
186	50
187	80
188	70
189	150
190	130
191	50
192	240
193	60
194	110
195	50
196	220
197	270
198	300
199	340
200	110
201	80
202	20
203	60
204	30
205	60
206	280
207	70
208	260
209	570
210	100
211	20
212	60
213	60
214	50
215	30
216	220
217	70
218	110
219	70
220	50
221	40
222	60
223	20
224	160
225	220
226	1120
227	140
228	10
229	10
230	20
231	30
232	310
233	70
234	200
235	60
236	110
237	230
238	50
239	10
240	40
241	40
242	30
243	70
244	30
245	50
246	50
247	50
248	40
249	20
250	30
251	10
252	210
253	340
254	490
255	70
256	10
258	10
259	60
260	1120
261	780
262	460
263	250
264	30
266	20
268	20
269	80
270	100
271	90
272	1700
273	260
274	560
275	80
276	10
280	70
281	20
282	20
283	10
284	10
285	10
286	50
287	10
288	9599
289	3650
290	3490
291	1200
292	140
293	10
298	20
300	40
301	20
302	90
303	20
304	40
305	10
306	10
314	90
315	110
316	9999
317	1610
318	3350
319	510
320	50
328	10
332	10
342	10
343	10
344	10
356	860
357	150
358	290
359	50
360	10
375	7569
376	1470
377	2770
378	480
379	60
380	10
