Mass Spectrum: DL-2,3-Butanediol
Formula: C4 H10 O2
CAS: 6982-25-8
Molecular weight: 90
Origin: R.ERRA BALSELLS,DEP. QUIM. ORG.,CITY UNIV. BUENOS AIRES,ARGENT
m/z	RELATIVE INTENSITY
26	500
27	1000
29	1000
30	600
41	1000
43	2100
44	1300
45	9999
55	1000
57	1300
