Mass Spectrum: Benzoic acid, 3-methoxy-, undecyl ester
Formula: C19 H30 O3
CAS: 69833-35-8
Molecular weight: 306
Origin: Zaikin V.G., TIPS RAS, Moscow, Russia
m/z	RELATIVE INTENSITY
28	20
41	60
43	60
44	30
55	120
56	40
57	40
63	30
64	50
67	30
69	100
70	50
76	30
77	230
78	30
79	30
81	30
83	60
84	30
92	200
97	50
105	60
107	490
108	110
109	200
121	30
122	30
133	30
135	2392
136	390
137	50
151	50
152	9999
153	2162
154	300
155	20
165	60
306	1792
307	400
308	50
