Mass Spectrum: 2,3-Pyridinedicarboxylic anhydride
Formula: C7 H3 N O3
CAS: 699-98-9
Molecular weight: 149
Origin: NIST Mass Spectrometry Data Center
m/z	RELATIVE INTENSITY
13	10
24	30
25	90
26	911
27	70
28	120
29	40
30	10
36	110
37	571
38	1471
39	340
40	20
42	10
44	190
45	40
48	180
49	1201
50	4464
51	1381
52	831
53	310
54	50
60	50
61	70
62	60
63	90
64	70
65	30
66	40
67	20
68	20
74	170
75	1091
76	2162
77	9459
78	651
79	20
91	10
102	20
103	10
104	80
105	9999
106	671
107	50
149	791
150	60
151	10
