Mass Spectrum: Benzyl methyl disulfide
Formula: C8 H10 S2
CAS: 699-10-5
Molecular weight: 170
Origin: Chuck Anderson, Aldrich Chemical Co.
m/z	RELATIVE INTENSITY
27	29
37	7
38	52
39	349
40	22
41	65
45	488
46	56
47	58
50	73
51	193
52	42
53	3
61	19
62	69
63	227
64	118
65	783
66	51
69	42
71	6
74	26
75	20
76	20
77	290
78	79
79	246
80	7
81	21
86	15
87	7
89	246
90	108
91	9999
92	771
93	43
121	119
122	22
123	32
153	20
170	724
171	74
172	68
