Mass Spectrum: 2-(2-Nitrovinyl)furan
Formula: C6 H5 N O3
CAS: 699-18-3
Molecular weight: 139
Origin: NIST Mass Spectrometry Data Center, 1994
m/z	RELATIVE INTENSITY
15	14
17	26
18	46
24	32
25	181
26	879
27	2163
28	470
29	1717
30	2547
31	27
36	109
37	1265
38	2861
39	9999
40	644
41	509
42	362
43	96
44	33
45	27
46	556
48	52
49	342
50	1117
51	1170
52	724
53	2680
54	516
55	3524
56	198
57	103
60	95
61	655
62	1362
63	3534
64	2017
65	4169
66	455
67	183
68	1445
69	411
70	80
71	160
73	25
74	12
75	85
76	54
77	38
78	174
79	128
80	135
81	796
82	12
83	4002
84	235
85	73
86	16
92	1610
93	172
94	189
95	245
96	1926
97	111
106	16
107	27
108	19
109	43
110	27
122	466
123	81
139	3338
140	245
141	29
