Mass Spectrum: Benzaldehyde, 4-hydroxy-, oxime
Formula: C7 H7 N O2
CAS: 699-06-9
Molecular weight: 137
Origin: LAC, NIDDK, NIH, Bethesda, MD 20892
m/z	RELATIVE INTENSITY
41	92
42	71
43	91
44	111
45	49
46	61
49	57
50	360
51	466
52	296
53	527
54	148
55	230
60	152
61	145
62	306
63	807
64	645
65	2474
66	368
67	101
68	129
69	197
73	19
74	147
75	134
76	94
77	351
78	240
79	93
80	275
81	388
82	306
90	149
91	302
92	314
93	1629
94	5165
95	384
102	34
105	178
106	72
107	14
108	62
109	92
110	683
111	56
118	63
119	550
120	647
121	296
122	58
136	548
137	9999
138	863
139	80
