Mass Spectrum: 3-Amino-4-carbethoxypyrazole
Formula: C6 H9 N3 O2
CAS: 6994-25-8
Molecular weight: 155
Origin: NIST Mass Spectrometry Data Center, 1994
m/z	RELATIVE INTENSITY
4	29
14	69
15	122
26	203
27	828
28	1131
29	747
30	62
31	95
32	51
38	89
39	175
40	308
41	86
42	169
43	616
44	99
45	128
51	253
52	2460
53	1806
54	1898
55	196
66	70
67	259
68	270
71	56
80	99
81	365
82	139
83	609
84	77
94	46
98	67
109	9999
110	5497
111	729
112	55
122	181
127	1301
128	70
140	53
155	5487
156	452
