Mass Spectrum: Diethyl methylphosphonothioate
Formula: C5 H13 O2 P S
CAS: 6996-81-2
Molecular weight: 168
Origin: Dennis Rohrbaugh, CBDCOM/ERDEC, Edgewood, MD
m/z	RELATIVE INTENSITY
27	295
29	276
43	706
45	706
47	2795
63	1707
65	1412
77	1001
78	1421
79	9999
80	5047
81	1402
91	820
93	686
94	505
95	5610
96	6993
97	1793
98	305
107	2785
108	104
109	496
110	95
111	515
112	992
113	1688
114	95
115	104
123	1698
124	6297
125	706
126	295
140	887
141	610
142	95
143	95
153	104
154	95
156	95
168	9541
169	715
170	505
