Mass Spectrum: Hexachlorophene
Formula: C13 H6 Cl6 O2
CAS: 70-30-4
Molecular weight: 404
Origin: Japan AIST/NIMC Database- Spectrum MS-NW-3735
m/z	RELATIVE INTENSITY
17	99
18	459
26	30
27	50
28	229
29	99
31	10
32	10
35	219
36	1179
37	109
38	379
39	60
41	10
43	20
44	20
47	60
48	20
49	90
50	229
51	199
52	10
53	509
54	30
55	99
56	10
57	10
60	80
61	429
62	389
63	239
64	20
65	40
66	50
67	169
68	109
69	40
71	50
72	229
73	499
74	609
75	599
76	60
77	109
78	30
79	40
80	20
81	30
82	20
83	99
84	289
85	679
86	459
87	349
88	40
89	99
90	119
91	90
92	40
93	10
94	20
95	80
96	339
97	749
98	299
99	339
100	129
101	80
102	139
103	339
104	209
105	70
106	40
107	299
108	229
109	1099
110	409
111	589
112	99
113	109
114	30
115	30
116	30
117	199
118	239
119	189
120	299
121	439
122	229
123	209
124	80
125	70
126	109
127	90
128	40
129	10
130	20
131	249
132	309
133	369
134	279
135	629
136	459
137	279
138	70
139	80
140	30
141	30
142	20
143	90
144	169
145	949
146	689
147	679
148	399
149	279
150	259
151	90
152	159
153	179
154	109
155	70
156	50
157	199
158	70
159	149
160	179
161	70
162	169
163	40
164	60
165	10
166	169
167	219
168	129
169	189
170	109
171	499
172	219
173	539
174	129
175	289
176	50
177	70
178	30
179	50
180	569
181	279
182	589
183	269
184	239
185	109
186	80
187	30
188	20
189	10
190	20
191	50
192	30
193	70
194	60
195	60
196	9999
197	709
198	9449
199	659
200	3019
201	219
202	449
203	199
204	169
205	289
206	259
207	719
208	4239
209	5949
210	4299
211	5359
212	1639
213	1729
214	279
215	229
216	50
217	109
218	169
219	99
220	149
221	50
222	70
223	50
224	20
225	40
226	10
227	20
228	30
229	30
230	30
231	20
232	20
233	50
234	149
235	159
236	389
237	129
238	209
239	60
240	90
241	439
242	119
243	439
244	109
245	169
246	60
247	50
248	20
249	20
250	10
251	20
252	119
253	80
254	169
255	70
256	99
257	50
258	30
259	20
260	10
261	10
262	10
263	60
264	50
265	50
266	30
267	30
268	70
269	149
270	749
271	279
272	679
273	189
274	229
275	99
276	40
277	90
278	20
279	60
280	20
281	60
282	20
283	50
284	10
285	20
286	10
287	30
288	109
289	40
290	129
291	40
292	70
293	20
294	20
295	10
297	50
298	139
299	639
300	219
301	589
302	119
303	199
304	179
305	139
306	239
307	139
308	159
309	80
310	60
311	20
312	10
313	10
315	30
316	20
317	90
318	30
319	99
320	30
321	40
322	20
323	20
324	20
325	10
326	10
327	10
332	40
333	379
334	179
335	499
336	189
337	249
338	90
339	70
340	30
341	20
342	20
343	20
344	10
345	10
351	119
352	30
353	169
354	40
355	109
356	20
357	40
358	10
366	10
367	70
368	70
369	349
370	149
371	459
372	139
373	279
374	60
375	90
376	20
377	10
387	10
388	10
389	10
390	10
403	10
404	959
405	149
406	1799
407	279
408	1429
409	219
410	619
411	90
412	149
413	20
414	20
