Mass Spectrum: Benzene, 1-fluoro-2,4-dinitro-
Formula: C6 H3 F N2 O4
CAS: 70-34-8
Molecular weight: 186
Origin: Japan AIST/NIMC Database- Spectrum MS-NW-1314
m/z	RELATIVE INTENSITY
14	10
16	40
17	10
18	30
20	20
25	10
26	60
27	80
28	109
29	99
30	9999
31	579
32	60
33	99
36	40
37	289
38	259
39	109
40	10
41	30
43	10
44	199
45	109
46	439
47	10
48	20
49	109
50	2179
51	369
52	90
53	159
54	50
55	50
56	379
57	569
58	70
60	40
61	409
62	439
63	1029
64	139
65	20
66	20
67	20
68	1929
69	389
70	219
71	40
72	30
73	289
74	1339
75	799
76	589
77	50
78	10
79	239
80	90
81	999
82	2239
83	159
84	20
86	20
87	40
88	20
90	20
91	20
92	409
93	3799
94	8839
95	869
96	139
97	50
98	40
106	30
107	779
108	139
109	99
110	1179
111	99
112	10
123	40
124	139
125	70
126	20
139	50
140	779
141	60
156	349
157	20
170	399
171	30
186	8109
187	599
188	90
