Mass Spectrum: L-Asparagine
Formula: C4 H8 N2 O3
CAS: 70-47-3
Molecular weight: 132
Origin: Japan AIST/NIMC Database- Spectrum MS-NW-5052
m/z	RELATIVE INTENSITY
12	179
13	109
14	529
15	879
16	839
17	1189
18	3579
19	70
24	80
25	239
26	1309
27	3299
28	5139
29	539
30	899
31	99
32	99
33	80
34	209
35	10
36	80
37	50
38	399
39	699
40	1719
41	3619
42	3879
43	4069
44	7279
45	809
46	409
47	30
48	10
49	20
50	139
51	649
52	279
53	259
54	219
55	339
56	109
57	70
58	40
59	1669
60	279
61	20
62	10
63	20
64	20
65	20
66	70
67	149
68	209
69	289
70	2839
71	219
72	129
73	139
74	579
75	20
76	30
77	80
78	259
79	99
80	279
81	99
82	249
83	30
84	40
85	30
86	1289
87	9999
88	589
89	70
90	10
91	10
92	10
93	10
94	10
95	40
96	50
97	159
98	70
99	90
100	20
101	40
102	20
103	10
105	10
106	10
109	10
110	20
111	10
112	40
113	20
114	649
115	229
116	30
127	10
128	20
129	10
130	20
131	10
132	10
133	20
