Mass Spectrum: Paroxypropione
Formula: C9 H10 O2
CAS: 70-70-2
Molecular weight: 150
Origin: NIST Mass Spectrometry Data Center, 1994
m/z	RELATIVE INTENSITY
14	5
15	47
26	76
27	335
28	131
29	225
32	18
37	42
38	190
39	977
40	50
41	20
42	27
43	28
49	16
50	146
51	171
52	50
53	232
54	21
55	104
57	47
60	15
61	62
62	186
63	454
64	294
65	1737
66	199
67	26
74	74
75	63
76	31
77	183
78	38
79	26
91	92
92	279
93	2055
94	180
103	38
107	36
121	9999
122	764
123	75
150	1404
151	140
152	6
