Mass Spectrum: Adamantan-2-ol
Formula: C10 H16 O
CAS: 700-57-2
Molecular weight: 152
Origin: Japan AIST/NIMC Database- Spectrum MS-NW-7224
m/z	RELATIVE INTENSITY
15	20
18	20
26	30
27	609
28	90
29	399
30	10
31	209
32	10
37	10
38	50
39	999
40	149
41	1509
42	149
43	279
44	30
45	30
50	70
51	269
52	139
53	599
54	309
55	819
56	949
57	539
58	50
59	10
60	10
61	20
62	40
63	80
64	40
65	339
66	639
67	1569
68	209
69	179
70	239
71	189
72	30
73	10
74	10
75	20
76	10
77	939
78	1399
79	4759
80	2309
81	1229
82	139
83	189
84	60
85	10
89	20
90	20
91	2199
92	5149
93	2679
94	289
95	369
96	80
97	50
98	10
102	10
103	40
104	40
105	929
106	589
107	189
108	70
109	219
110	80
111	30
115	40
116	20
117	60
118	30
119	1339
120	149
121	169
122	20
123	80
124	10
128	10
129	10
130	10
131	20
132	10
133	169
134	9999
135	1149
136	90
137	10
150	30
151	389
152	469
153	50
