Mass Spectrum: Quinazoline, 4-methyl-
Formula: C9 H8 N2
CAS: 700-46-9
Molecular weight: 144
m/z	RELATIVE INTENSITY
72	200
74	400
75	601
76	2102
77	400
87	300
88	200
89	1001
90	801
91	200
101	200
102	1401
103	2803
104	400
114	200
115	200
116	400
117	2803
118	601
119	200
129	2202
130	300
142	300
143	1802
144	9999
145	1201
146	200
