Mass Spectrum: 2-Methylcyclohexylamine
Formula: C7 H15 N
CAS: 7003-32-9
Molecular weight: 113
Origin: NIST Mass Spectrometry Data Center
m/z	RELATIVE INTENSITY
15	240
17	30
18	240
26	110
27	971
28	1782
29	581
30	1732
37	20
39	1041
40	170
41	1181
42	891
43	2752
44	410
45	20
47	20
50	60
51	110
52	80
53	240
54	310
56	9999
57	1031
58	50
62	10
63	20
65	70
66	40
67	310
68	180
70	4074
71	200
77	60
78	10
79	40
80	50
81	170
82	80
83	40
84	370
85	20
91	20
93	30
94	10
95	80
96	70
97	10
98	40
113	1331
114	110
