Mass Spectrum: 2-Chlorobenzoic acid, pentyl ester
Formula: C12 H15 Cl O2
CAS: 70086-68-9
Molecular weight: 226
Origin: Zaikin V.G., TIPS RAS, Moscow, Russia
m/z	RELATIVE INTENSITY
27	160
28	20
29	190
36	60
39	150
41	370
42	480
43	270
44	50
50	220
51	130
53	30
55	561
56	30
65	30
69	200
70	981
71	60
74	130
75	951
76	340
77	260
78	30
85	110
87	30
104	120
105	70
110	60
111	2112
112	250
113	771
114	70
115	20
121	30
139	9999
140	811
141	3173
142	260
156	4274
157	8317
158	1962
159	2522
160	200
169	40
226	260
227	40
228	80
