Mass Spectrum: Acronine
Formula: C20 H19 N O3
CAS: 7008-42-6
Molecular weight: 321
Origin: NIST Mass Spectrometry Data Center, 1998.
m/z	RELATIVE INTENSITY
15	60
26	10
27	90
29	70
31	10
38	30
39	270
40	20
41	230
42	40
43	250
50	140
51	330
52	90
53	150
54	10
55	70
57	10
59	10
61	10
62	90
63	330
64	110
65	150
66	60
67	40
68	10
69	180
70	10
74	110
75	270
76	410
77	780
78	190
79	100
80	20
81	60
82	100
83	100
86	60
87	140
88	280
89	350
90	200
91	190
92	70
93	30
94	120
95	390
96	150
98	50
99	70
100	70
101	330
102	880
104	210
105	120
106	30
107	130
108	280
109	190
110	170
111	60
113	140
114	240
115	390
116	1470
119	30
120	30
123	450
126	140
127	220
128	230
129	150
130	740
134	60
135	20
138	1060
140	260
141	80
142	50
143	60
144	330
145	140
146	80
149	40
150	170
151	320
152	420
153	560
154	190
155	40
156	40
157	20
158	20
159	20
160	520
162	40
163	180
164	250
165	290
166	280
167	300
168	120
169	40
170	40
171	10
172	20
174	30
175	60
176	160
177	250
178	490
179	220
180	260
181	80
182	100
183	90
184	40
185	10
186	30
187	30
188	70
189	150
190	420
191	640
192	310
193	110
194	110
195	100
196	220
197	70
198	30
199	10
200	20
201	40
202	160
203	260
204	770
205	260
206	250
207	230
208	200
209	60
210	100
211	30
212	40
213	10
214	40
215	80
216	170
217	270
218	250
219	240
220	530
221	150
222	150
223	70
224	270
225	100
226	40
227	20
228	30
229	30
230	70
231	140
232	450
233	420
234	500
235	270
236	460
237	160
238	110
239	20
240	10
241	10
243	20
244	80
245	230
246	320
247	180
248	760
249	260
250	340
251	110
252	40
253	10
257	10
258	40
259	100
260	340
261	1060
262	4400
263	940
264	740
265	160
266	70
267	10
271	10
272	30
273	60
274	630
275	310
276	1000
277	610
278	430
279	90
280	10
286	40
287	20
288	200
289	60
290	600
291	710
292	2820
293	590
294	70
302	50
303	40
304	700
305	210
306	9999
307	2080
308	250
309	30
318	10
319	10
320	390
321	5669
322	1220
323	160
324	10
