Mass Spectrum: Ethyl 4-nitrobenzoylformate
Formula: C10 H9 N O5
CAS: 70091-75-7
Molecular weight: 223
Origin: NIST Mass Spectrometry Data Center, 1994
m/z	RELATIVE INTENSITY
6	3
12	25
13	17
14	70
15	323
16	37
17	11
18	34
19	6
20	2
25	19
26	288
27	1918
28	404
29	5248
30	832
36	9
37	96
38	271
39	173
40	7
41	1
42	28
43	122
44	61
45	49
46	126
47	3
50	2769
51	245
52	40
53	134
54	10
55	4
57	2
60	3
61	58
62	138
63	360
64	515
65	110
66	48
67	6
69	3
72	4
73	111
74	751
75	1212
76	3641
77	310
78	40
79	8
80	3
85	10
86	17
87	20
88	15
89	41
90	47
92	1943
93	146
94	16
101	6
104	3553
105	288
106	36
107	21
108	5
109	11
118	6
120	895
121	96
122	72
123	11
132	14
134	346
135	51
136	31
137	30
138	5
145	2
146	6
150	9999
151	953
152	101
153	8
162	36
163	3
164	5
166	3
167	77
168	8
177	85
178	138
179	17
193	5
195	43
196	8
207	5
209	6
223	43
224	7
