Mass Spectrum: Acetyl chloride, phenoxy-
Formula: C8 H7 Cl O2
CAS: 701-99-5
Molecular weight: 170
Origin: Japan AIST/NIMC Database- Spectrum MS-NW-2942
m/z	RELATIVE INTENSITY
13	30
14	139
18	10
25	10
26	80
27	189
28	239
29	109
30	30
31	20
35	30
36	139
37	119
38	319
39	1159
40	80
41	30
42	239
43	10
44	40
48	10
49	249
50	599
51	1789
52	139
53	289
54	20
55	30
60	10
61	60
62	109
63	299
64	159
65	1119
66	179
67	10
73	30
74	139
75	119
76	179
77	7029
78	569
79	1659
80	109
89	10
91	70
92	40
93	109
94	969
95	70
100	20
105	119
106	40
107	9999
108	759
109	50
111	20
112	80
113	10
114	30
119	129
120	10
128	10
134	40
136	10
141	20
142	80
143	10
144	30
152	10
154	10
170	3569
171	299
172	1169
173	99
