Mass Spectrum: Methyl 4-nitrophenyl sulphide
Formula: C7 H7 N O2 S
CAS: 701-57-5
Molecular weight: 169
Origin: R.T. LOEFFLER,LONG ASHTON RES. STN.,LONG ASHTON,BRISTOL,U.K.
m/z	RELATIVE INTENSITY
30	1000
45	5600
50	2000
51	900
63	1700
69	2500
74	1000
75	900
77	2700
79	2400
82	1500
108	3200
111	1800
121	800
123	1500
139	7900
169	9999
170	900
171	600
