Mass Spectrum: Silane, trichloro(4-methylphenyl)-
Formula: C7 H7 Cl3 Si
CAS: 701-35-9
Molecular weight: 224
Origin: RADIAN CORP
m/z	RELATIVE INTENSITY
18	30
27	140
37	30
38	280
39	1710
40	60
41	210
50	640
51	500
52	90
53	200
61	80
62	560
63	2830
64	350
65	2160
66	80
74	80
75	70
77	30
86	70
87	30
89	1050
90	330
91	9999
92	620
98	290
100	190
123	30
125	110
133	1120
135	1200
137	340
189	50
224	400
225	30
226	450
228	130
