Mass Spectrum: 4-Chlorobenzoic acid, decyl ester
Formula: C17 H25 Cl O2
CAS: 70136-01-5
Molecular weight: 296
Origin: V.G.Zaikin, Petrochem. Synth. Inst., Moscow
m/z	RELATIVE INTENSITY
26	50
27	581
28	300
29	1271
30	80
38	230
39	611
40	180
41	2672
42	1191
43	2913
44	1151
45	60
48	30
49	30
50	540
51	410
53	220
54	591
55	3633
56	3663
57	1992
58	90
61	50
63	20
64	70
65	90
66	60
67	450
68	971
69	2752
70	3793
71	691
73	90
74	290
75	1381
76	530
77	410
78	30
79	80
81	220
82	811
83	2612
84	1952
85	490
87	40
88	20
89	20
91	90
92	20
93	20
95	90
96	330
97	1561
98	1111
99	120
101	20
104	270
105	190
109	50
110	250
111	3894
112	1561
113	1271
114	110
138	120
139	9999
140	2652
141	3653
142	390
155	70
156	5285
157	8157
158	2392
159	2612
160	280
161	20
169	60
171	20
