Mass Spectrum: 2-Chlorobenzoic acid, octadecyl ester
Formula: C25 H41 Cl O2
CAS: 70153-10-5
Molecular weight: 408
Origin: Zaikin V.G., TIPS RAS, Moscow, Russia
m/z	RELATIVE INTENSITY
27	60
28	10
29	130
36	30
39	80
41	480
42	130
43	741
44	50
50	40
51	30
53	30
54	150
55	831
56	380
57	751
58	30
67	240
68	220
69	741
70	380
71	400
75	140
76	80
77	110
79	30
81	200
82	280
83	791
84	280
85	260
95	150
96	180
97	731
98	190
99	60
104	50
105	100
109	80
110	90
111	891
112	200
113	220
121	60
123	90
124	50
125	190
126	90
127	30
137	30
138	30
139	2532
140	290
141	861
142	70
153	50
154	40
156	1311
157	9999
158	1151
159	3003
160	250
167	30
168	30
224	70
252	140
253	30
372	50
373	30
408	40
