Mass Spectrum: 2,6-Dimethyl-1,6-heptadien-4-ol acetate
Formula: C11 H18 O2
CAS: 70187-91-6
Molecular weight: 182
Origin: NIST Mass Spectrometry Data Center, 1990.
m/z	RELATIVE INTENSITY
14	64
15	76
27	450
29	622
39	1278
40	265
41	1149
42	265
43	9999
44	284
45	121
50	75
51	196
52	112
53	528
54	128
55	893
56	293
57	259
60	51
63	67
65	222
66	95
67	376
68	82
69	140
77	394
78	138
79	1048
80	497
81	358
82	68
83	336
84	545
85	256
91	915
92	262
93	1420
94	1324
95	171
98	99
99	111
103	49
105	329
107	1784
108	176
109	331
122	827
123	107
125	50
126	163
127	329
140	145
