Mass Spectrum: 2-(4-Methoxyphenyl)ethanol
Formula: C9 H12 O2
CAS: 702-23-8
Molecular weight: 152
Origin: NIST Mass Spectrometry Data Center, 1990.
m/z	RELATIVE INTENSITY
15	92
18	22
26	40
27	148
28	24
29	146
31	206
37	20
38	89
39	391
40	57
41	124
43	69
45	16
50	229
51	562
52	367
53	187
54	30
55	106
61	32
62	134
63	287
64	117
65	420
66	76
67	31
74	65
75	56
77	1622
78	1015
79	262
80	29
81	14
86	23
89	252
90	165
91	1024
92	142
93	44
102	33
103	55
104	17
105	73
106	132
107	156
108	62
118	28
119	89
121	9999
122	921
123	59
133	29
134	52
135	34
150	66
152	1742
153	185
154	17
