Mass Spectrum: 1,3-Cyclohexanedione, 2,2,5,5-tetramethyl-
Formula: C10 H16 O2
CAS: 702-50-1
Molecular weight: 168
m/z	RELATIVE INTENSITY
39	550
40	150
41	921
42	981
43	150
44	250
54	150
56	1381
57	310
67	60
69	250
70	1381
71	150
83	9999
84	681
85	60
97	60
98	150
125	250
153	60
168	1541
169	250
