Mass Spectrum: Adamantane, 1,3-dimethyl-
Formula: C12 H20
CAS: 702-79-4
Molecular weight: 164
Origin: NIST Mass Spectrometry Data Center, 1990.
m/z	RELATIVE INTENSITY
15	64
16	27
27	581
28	123
29	690
32	1
39	953
40	215
41	1567
42	104
43	193
44	18
50	55
51	229
52	103
53	589
54	105
55	740
56	81
57	137
58	20
62	23
63	56
65	399
66	128
67	701
68	91
69	317
70	32
71	51
75	17
77	790
78	196
79	1051
80	203
81	853
82	97
83	75
91	1040
93	3843
94	396
95	238
96	26
103	45
105	278
107	2175
108	292
109	155
115	23
117	15
119	37
121	491
122	49
149	9999
150	1306
151	84
164	886
165	115
