Mass Spectrum: 2-Methyl-5-butylpyridine
Formula: C10 H15 N
CAS: 702-16-9
Molecular weight: 149
Origin: V.A.KOPTYUG, ATLAS OF MASS SPECTRA OF ORGANIC COMPOUNDS
m/z	RELATIVE INTENSITY
39	390
41	270
43	140
44	550
51	270
52	180
53	290
63	100
65	370
66	120
77	1340
78	360
79	950
80	120
91	230
92	200
93	230
104	100
105	140
106	9999
107	1570
108	120
118	160
120	410
121	250
134	200
149	3480
150	410
