Mass Spectrum: Hexestrol, 2TMS derivative
Formula: C24 H38 O2 Si2
CAS: 70244-15-4
Molecular weight: 414
Origin: D. JAHR, NATL. RES. OFFICE HEALTH SUDBAYERN, MUNICH, W.
m/z	RELATIVE INTENSITY
41	220
43	160
44	160
45	830
59	170
73	9440
74	770
75	830
77	170
82	110
91	330
105	170
115	220
117	280
135	220
147	110
149	280
151	720
161	170
163	500
164	110
165	110
175	110
177	1670
178	220
179	1780
180	220
191	830
192	500
193	220
205	110
206	1170
207	9999
208	4780
209	1330
210	110
399	390
400	110
414	280
415	110
