Mass Spectrum: N-Carboxyethylrhodanine
Formula: C6 H7 N O3 S2
CAS: 7025-19-6
Molecular weight: 205
Origin: NIST Mass Spectrometry Data Center, 1994
m/z	RELATIVE INTENSITY
13	106
15	546
26	745
27	2932
28	1024
29	1386
30	240
31	436
32	110
33	125
39	175
40	415
41	602
42	2572
43	1311
44	735
45	6574
46	5774
47	804
48	398
52	176
53	143
54	380
55	2240
56	932
57	349
58	953
59	1824
60	3301
61	301
62	113
63	113
64	1516
65	118
66	216
69	125
70	549
71	3451
72	3411
73	2125
74	1660
75	815
76	909
77	643
78	485
79	117
80	107
82	95
83	218
85	3579
86	4228
87	1974
88	1963
89	234
90	454
91	518
92	107
98	747
100	164
101	791
102	126
103	342
104	379
105	152
106	150
112	407
114	1945
115	199
116	113
117	345
118	1092
119	199
120	103
130	2107
131	550
132	1096
133	1174
134	233
158	301
159	1237
160	809
161	170
162	170
163	5045
164	508
165	556
172	234
177	622
187	82
188	242
205	9999
206	1059
207	1214
