Mass Spectrum: 3-Chlorobenzal bromide
Formula: C7 H5 Br2 Cl
CAS: 70288-97-0
Molecular weight: 282
Origin: NIST Mass Spectrometry Data Center
m/z	RELATIVE INTENSITY
12	10
18	30
25	30
26	50
35	60
36	80
37	430
38	611
39	1081
40	50
43	130
44	520
47	40
48	30
49	310
50	811
51	370
52	20
60	140
61	691
62	1862
63	2242
64	140
71	10
72	80
73	510
75	280
76	30
77	30
79	380
80	150
81	390
82	150
83	80
84	230
85	330
86	460
87	510
88	330
89	3403
90	280
91	30
92	10
93	30
94	10
96	40
97	220
98	40
99	190
100	10
102	420
103	681
106	20
111	20
112	20
114	10
116	20
117	80
118	30
119	90
120	20
121	20
123	621
124	1932
125	550
126	631
127	110
128	10
129	10
139	30
140	20
141	60
142	40
143	70
145	20
151	10
153	10
155	70
156	50
157	30
158	20
159	110
160	30
161	80
163	10
167	40
168	40
169	30
170	40
175	10
176	20
177	70
178	90
179	70
203	8227
204	625
205	9999
206	821
207	2242
208	190
212	20
213	10
248	40
249	10
250	10
282	150
284	450
285	40
286	320
287	20
288	60
