Mass Spectrum: Cyclohexanecarboxylic acid, nonyl ester
Formula: C16 H30 O2
CAS: 70289-37-1
Molecular weight: 254
Origin: Zaikin V.G., TIPS RAS, Moscow, Russia
m/z	RELATIVE INTENSITY
26	100
27	410
28	300
29	761
30	30
38	50
39	550
40	130
41	3153
42	801
43	3003
44	160
45	40
47	50
50	70
51	70
52	60
53	320
54	591
55	5955
56	3363
57	1922
58	80
60	120
61	100
65	70
66	70
67	1081
68	1341
69	2252
70	2732
71	1682
72	80
73	1451
74	90
75	60
76	40
77	100
78	40
79	250
80	100
81	1061
82	1231
83	8628
84	3293
85	1061
86	270
87	230
91	30
93	430
94	40
95	90
96	260
97	2712
98	1651
99	330
100	70
101	30
108	50
109	160
110	1161
111	5445
112	340
113	190
124	30
126	4384
127	460
128	2732
129	9999
130	2582
131	200
139	190
141	180
143	40
155	110
156	160
157	60
158	30
169	60
171	691
172	70
183	190
184	130
185	170
199	440
200	160
202	100
213	70
254	90
255	70
