Mass Spectrum: Ethanone, 1-(1H-indol-3-yl)-
Formula: C10 H9 N O
CAS: 703-80-0
Molecular weight: 159
Origin: ALPHA Chemicals / NIST MS Data Center.
m/z	RELATIVE INTENSITY
13	13
14	41
15	146
16	7
17	9
18	7
26	34
27	89
28	358
29	30
32	30
36	7
37	60
38	158
39	366
40	55
41	28
42	50
43	283
44	29
45	12
49	32
50	226
51	285
52	163
53	54
56	23
58	325
61	144
62	439
63	788
64	188
65	184
72	387
74	173
75	172
76	179
77	355
78	75
80	42
84	15
85	52
86	149
87	263
88	341
89	1809
90	228
91	18
97	13
98	27
99	17
100	17
101	67
102	144
103	198
104	42
110	8
111	10
113	37
114	237
115	455
116	2684
117	276
118	19
128	79
129	39
130	351
131	39
140	14
141	15
144	9999
145	976
146	65
159	4300
160	485
161	28
