Mass Spectrum: 3-Phenyl-2-oxazolidinone
Formula: C9 H9 N O2
CAS: 703-56-0
Molecular weight: 163
Origin: NIST Mass Spectrometry Data Center, 1994
m/z	RELATIVE INTENSITY
13	29
14	67
15	585
18	22
25	28
26	377
27	747
28	795
29	72
30	80
37	332
38	739
39	1361
40	243
41	226
42	267
44	47
49	93
50	1129
51	3102
52	1172
54	33
56	27
59	44
61	134
62	346
63	904
64	988
65	654
66	125
67	27
73	36
74	205
75	238
76	27
77	9999
78	824
79	89
87	26
88	44
89	91
90	234
91	1554
92	171
104	8924
105	1029
106	93
117	219
118	1580
119	451
120	46
161	18
163	4905
164	489
165	49
