Mass Spectrum: Benzene, 1-(chloromethyl)-2-methoxy-
Formula: C8 H9 Cl O
CAS: 7035-02-1
Molecular weight: 156
Origin: NIST Mass Spectrometry Data Center, 1994
m/z	RELATIVE INTENSITY
13	22
14	167
15	1204
26	287
27	380
28	150
29	260
30	73
31	28
32	2
35	95
36	84
37	259
38	616
39	1541
40	103
41	158
42	32
43	82
44	21
45	70
48	25
49	223
50	1334
51	2725
52	1364
53	294
54	44
55	51
60	35
61	211
62	526
63	1196
64	277
65	1765
66	141
73	159
74	295
75	275
76	239
77	2388
78	1972
79	185
84	28
85	82
86	120
87	101
88	28
89	1009
90	28
91	9999
92	817
93	1289
94	113
99	118
101	49
105	153
106	120
107	37
112	65
113	93
114	29
115	27
119	43
121	8369
122	719
123	46
125	171
127	50
141	213
143	58
156	2477
157	229
158	814
159	71
