Mass Spectrum: 2,2',3,6-Tetrachloro-1,1'-biphenyl
Formula: C12 H6 Cl4
CAS: 70362-45-7
Molecular weight: 290
Origin: Organic Synthesis Lab, MSU, Moscow.TRC 1342
m/z	RELATIVE INTENSITY
51	460
55	127
60	224
61	916
62	623
63	365
66	92
72	199
73	904
74	1455
75	1580
76	231
78	167
79	438
83	62
84	403
85	841
86	853
87	522
92	2178
93	666
96	325
97	692
98	1205
99	1479
100	136
107	208
108	377
109	1225
110	3517
111	2622
112	426
113	113
114	189
115	182
116	119
120	321
121	366
122	591
123	807
124	199
125	274
127	1283
128	1436
130	153
131	102
132	171
133	376
134	171
135	171
136	161
137	131
145	882
146	949
147	570
148	428
149	1428
150	3028
151	359
157	123
158	138
159	244
160	116
171	111
183	244
184	1443
185	1045
186	528
187	362
194	159
196	126
218	116
220	8006
221	1169
222	5344
223	884
224	865
225	189
255	3604
256	758
257	3836
258	668
259	1212
260	168
261	234
290	7300
291	1138
292	9999
293	1467
294	5329
295	790
296	1057
297	112
