Mass Spectrum: 1,1'-Biphenyl, 2,2',3,5-Tetrachloro-
Formula: C12 H6 Cl4
CAS: 70362-46-8
Molecular weight: 290
Origin: T.L.Hayes, Battelle Columbus Laboratories, Columbus, OH 43221
m/z	RELATIVE INTENSITY
34	57
35	220
36	502
37	389
38	442
39	289
40	444
43	19
44	153
47	174
48	26
49	527
50	1125
51	552
52	41
55	120
56	65
57	9
58	18
59	20
60	297
61	1555
62	1347
63	537
66	45
67	129
68	55
71	45
72	300
73	1884
74	3879
75	2972
76	292
77	10
78	76
79	570
80	364
81	69
82	39
83	112
84	713
85	1182
86	1135
87	619
88	84
90	9
92	5222
93	2271
95	64
96	262
97	1133
98	2080
99	1749
100	285
101	41
102	28
103	39
104	20
105	28
106	12
107	193
108	475
109	2089
110	7229
111	5164
112	841
113	165
114	125
115	189
116	100
117	33
118	24
119	41
120	307
121	395
122	890
123	1253
124	442
125	181
127	1998
128	2614
129	710
130	39
131	110
132	195
133	357
134	299
135	469
136	168
137	146
138	55
142	31
144	89
145	1284
146	1725
147	1338
148	805
149	1784
150	4970
151	634
152	36
155	15
156	31
157	119
158	150
159	362
160	260
161	157
162	77
167	10
168	13
169	60
170	292
171	124
172	186
173	70
174	24
177	18
180	28
181	65
182	84
183	310
184	1995
185	1743
186	852
187	563
188	82
193	45
194	249
195	88
196	163
197	34
198	39
204	23
206	44
208	21
209	25
217	16
218	112
219	147
220	9999
221	1363
222	6279
223	811
224	1031
225	118
254	242
255	3797
256	763
257	3791
258	564
259	1275
260	185
290	7405
291	1020
292	9565
293	1269
294	4647
295	628
296	1052
297	153
298	95
