Mass Spectrum: 1,2-Benzenediamine, N,N,N',N'-tetramethyl-
Formula: C10 H16 N2
CAS: 704-01-8
Molecular weight: 164
Origin: NIST Mass Spectrometry Data Center, 2010
m/z	RELATIVE INTENSITY
15	170
26	20
27	90
28	130
29	40
30	90
37	20
38	70
39	320
40	50
41	170
42	761
43	130
44	921
45	30
46	10
49	10
50	240
51	681
52	260
53	90
54	40
55	30
56	20
58	80
59	30
61	20
62	70
63	350
64	260
65	821
66	500
67	731
68	70
69	10
70	10
72	20
73	400
74	671
76	180
77	1551
78	671
79	350
80	130
81	80
82	460
87	10
88	30
89	70
90	250
91	1892
92	1141
93	260
94	60
95	10
102	40
103	100
104	871
105	420
106	1591
107	190
108	150
109	10
115	10
116	40
117	330
118	1802
119	621
120	2292
121	340
122	50
128	10
129	10
130	40
131	500
132	3253
133	9999
134	4524
135	460
136	20
145	80
146	90
147	2372
148	510
149	1772
150	200
151	10
160	10
161	10
162	10
164	8658
165	1041
166	60
