Mass Spectrum: Glycyl-L-proline
Formula: C7 H12 N2 O3
CAS: 704-15-4
Molecular weight: 172
Origin: Japan AIST/NIMC Database- Spectrum MS-NW-4775
m/z	RELATIVE INTENSITY
13	10
14	70
15	239
16	20
17	156
18	599
25	10
26	149
27	879
28	1589
29	549
30	9999
31	199
32	20
33	10
37	60
38	129
39	999
40	409
41	3109
42	1739
43	699
44	109
45	90
49	20
50	30
51	50
52	70
53	129
54	249
55	1669
56	589
57	349
58	40
59	10
63	10
64	20
65	20
66	70
67	159
68	1719
69	2749
70	6999
71	409
72	20
73	30
74	10
78	20
80	40
81	80
82	229
83	5719
84	479
85	60
86	20
87	30
92	20
93	10
94	30
95	20
96	169
97	319
98	1569
99	109
100	20
107	10
109	10
110	10
111	5229
112	509
113	30
114	519
115	189
116	90
117	10
120	10
123	10
124	20
125	249
126	499
127	339
128	40
137	10
138	10
142	10
143	10
150	10
151	10
152	30
153	30
154	4529
155	909
156	80
172	199
173	20
