Mass Spectrum: Methyl pinacolyl methylphosphonate
Formula: C8 H19 O3 P
CAS: 7040-59-7
Molecular weight: 194
Origin: VERIFIN - Methodology B2-1980
m/z	RELATIVE INTENSITY
27	500
28	300
29	300
39	600
40	70
41	2101
42	200
43	800
45	100
47	300
53	100
55	300
56	60
57	600
63	600
65	200
69	1101
70	60
79	1101
80	400
84	300
85	200
93	3603
94	3403
95	100
97	100
110	200
111	9999
112	90
137	4003
138	5304
139	300
179	100
