Mass Spectrum: Bis(1,2,2-trimethylpropyl) methylphosphonate
Formula: C13 H29 O3 P
CAS: 7040-58-6
Molecular weight: 264
Origin: CBDCOM/ERDEC, Edgewood, MD
m/z	RELATIVE INTENSITY
51	20
53	140
54	50
55	720
56	140
57	1211
58	40
62	10
63	120
65	150
67	120
68	50
69	900
70	270
71	40
78	20
79	480
80	1050
81	130
82	10
83	100
84	500
85	3443
86	220
87	70
91	110
94	10
95	10
97	9999
98	130
99	50
101	60
106	10
111	190
112	10
123	9418
124	5695
125	840
126	50
163	10
165	760
166	50
179	10
180	70
181	140
182	10
207	200
208	230
209	30
249	10
