Mass Spectrum: (E)-1,3-Butadien-1-ol
Formula: C4 H6 O
CAS: 70411-98-2
Molecular weight: 70
Origin: F. TURECEK,HEYROVSKY INST.PHYS.CHEM.ELECTROCHEM.,PRAGUE,CZECH.
m/z	RELATIVE INTENSITY
14	200
15	700
25	100
26	700
27	2800
28	600
29	2100
30	200
31	400
36	100
37	400
38	1000
39	5900
40	600
41	9999
42	3700
43	2000
44	200
49	100
50	800
51	900
52	400
53	600
54	200
55	700
68	400
69	4600
70	9200
71	500
