Mass Spectrum: trans-2-(2-Pentenyl)furan
Formula: C9 H12 O
CAS: 70424-14-5
Molecular weight: 136
Origin: M.Smagula ET AL.JAOCS, 56, 516(1978)
m/z	RELATIVE INTENSITY
37	180
38	631
39	4744
40	801
41	3023
42	180
43	250
50	611
51	1732
52	841
53	4334
54	370
55	1251
62	170
63	490
64	100
65	1641
66	1882
67	1201
68	2322
69	661
77	4774
78	801
79	8027
80	951
81	5645
82	591
91	1972
92	370
93	771
94	7487
95	691
103	370
105	220
107	9999
108	881
121	691
135	120
136	7287
137	791
138	130
