Mass Spectrum: cis-2-(2-Pentenyl)furan
Formula: C9 H12 O
CAS: 70424-13-4
Molecular weight: 136
Origin: M.Smagula ET AL.JAOCS, 56, 516(1978)
m/z	RELATIVE INTENSITY
36	661
38	250
39	470
41	350
45	70
50	160
51	350
52	190
53	781
54	130
55	320
63	130
65	530
66	621
67	781
68	4004
70	350
77	3423
78	530
79	5145
80	1001
81	5055
82	561
91	1972
92	380
93	681
94	6746
95	661
103	370
105	250
107	9999
108	811
121	741
135	130
136	8267
137	741
138	90
