Mass Spectrum: 2,5-Dihydroxyheptane
Formula: C7 H16 O2
CAS: 70444-25-6
Molecular weight: 132
Origin: James Little,Eastman Chem.Co.,Kingsport,TN
m/z	RELATIVE INTENSITY
28	1331
29	8498
31	5625
39	1672
41	8958
42	4944
43	9999
44	1221
45	6616
55	6246
56	8588
57	6706
58	2522
59	5785
67	2843
69	280
70	2712
71	500
72	1261
73	130
81	1471
85	8828
86	530
99	661
103	410
