Mass Spectrum: .beta.-D-Galactofuranose, 1,2,3,5,6-pentakis-O-(trimethylsilyl)-
Formula: C21 H52 O6 Si5
CAS: 7045-52-5
Molecular weight: 540
m/z	RELATIVE INTENSITY
45	300
59	200
72	200
73	8207
74	701
75	701
101	100
103	601
117	400
129	500
131	200
133	400
143	100
147	2002
148	300
149	300
157	300
189	400
190	200
191	2102
192	400
193	200
203	100
204	400
205	701
206	200
217	9999
218	2102
219	901
220	100
221	100
227	10
229	50
230	130
231	260
232	50
233	60
234	20
241	10
242	20
243	110
244	40
245	90
246	30
247	40
248	10
257	30
258	10
259	20
260	10
265	20
267	10
271	80
272	20
273	10
277	10
278	20
279	20
291	120
292	40
293	30
294	10
303	20
304	30
305	430
306	170
307	80
308	30
315	20
316	20
317	60
318	60
319	1251
320	390
321	260
322	60
323	30
331	30
332	260
333	90
334	40
335	40
336	10
345	130
346	40
347	110
348	30
349	20
360	30
361	30
362	10
379	20
393	10
405	20
407	10
435	60
436	30
437	30
