Mass Spectrum: 1-Silacyclo-3-pentene
Formula: C4 H8 Si
CAS: 7049-25-4
Molecular weight: 84
Origin: V.A.KOPTYUG, ATLAS OF MASS SPECTRA OF ORGANIC COMPOUNDS
m/z	RELATIVE INTENSITY
29	300
30	200
41	400
42	400
43	2100
44	800
45	300
54	600
55	2600
56	7199
57	4100
58	2700
59	200
67	600
68	100
69	1100
70	100
81	800
82	3100
83	9799
84	9999
85	1200
86	400
