Mass Spectrum: Benzene, 1-(chloromethyl)-3-(trifluoromethyl)-
Formula: C8 H6 Cl F3
CAS: 705-29-3
Molecular weight: 194
Origin: Japan AIST/NIMC Database- Spectrum MS-NW-7793
m/z	RELATIVE INTENSITY
14	10
20	10
26	20
27	60
28	90
31	40
35	20
36	50
37	60
38	129
39	319
40	30
43	40
44	30
49	30
50	179
51	199
52	30
56	20
57	119
59	20
60	20
61	90
62	229
63	459
64	99
65	30
68	20
69	209
70	229
73	40
74	60
75	159
76	20
77	40
78	10
79	50
80	20
81	60
82	10
83	159
84	10
85	40
86	60
87	139
88	99
89	449
90	159
91	30
92	10
93	30
94	20
95	50
96	10
97	10
99	109
100	20
101	30
105	10
106	10
107	159
108	139
109	1329
110	99
111	10
112	20
113	90
114	80
117	10
118	10
119	489
120	60
121	20
123	10
125	269
126	30
127	109
131	10
132	70
133	50
137	70
138	159
139	229
140	199
141	20
143	70
145	40
156	20
157	70
158	249
159	9999
160	899
161	40
174	10
175	409
176	40
177	139
178	10
193	179
194	1899
195	229
196	609
197	60
