Mass Spectrum: Benzene, (2-nitropropen-1-yl)-
Formula: C9 H9 N O2
CAS: 705-60-2
Molecular weight: 163
Origin: Japan AIST/NIMC Database- Spectrum MS-IW-5406
m/z	RELATIVE INTENSITY
15	10
18	20
26	30
27	219
28	149
29	10
30	70
37	50
38	149
39	1319
40	119
41	179
42	119
43	249
44	20
45	10
46	10
49	20
50	559
51	1329
52	279
53	70
54	20
55	129
56	20
57	1809
58	409
59	30
61	80
62	359
63	979
64	199
65	1089
66	1179
67	109
68	50
69	10
73	20
74	269
75	249
76	299
77	1239
78	479
79	679
80	309
81	319
82	40
83	10
85	50
86	109
87	139
88	99
89	1069
90	259
91	3829
92	369
93	229
94	509
95	40
96	10
97	60
98	20
101	40
102	469
103	399
104	169
105	3889
106	949
107	389
108	50
109	20
110	109
111	10
113	99
114	159
115	9999
116	4029
117	2379
118	599
119	60
120	189
121	40
122	20
128	10
129	10
130	99
131	129
132	80
133	319
134	169
135	1249
136	139
146	1609
147	199
148	50
149	10
162	229
163	5159
164	539
165	40
