Mass Spectrum: 6H-Pyrazolo[1,2-a][1,2,4,5]tetrazine, hexahydro-2,3-dimethyl-
Formula: C7 H16 N4
CAS: 70517-50-9
Molecular weight: 156
Origin: D.HENNEBERG, MAX-PLANCK INSTITUTE, MULHEIM, WEST GERMANY
m/z	RELATIVE INTENSITY
24	7
25	37
26	356
27	1420
28	3201
29	469
30	1634
31	69
32	110
33	3
35	4
36	12
37	40
38	146
39	468
40	582
41	1666
42	8397
43	5035
44	9999
45	592
46	95
50	6
51	33
52	81
53	68
54	210
55	325
56	1134
57	1773
58	159
59	80
60	53
66	9
67	14
68	96
69	174
70	347
71	2209
72	1760
73	652
74	26
80	8
81	62
82	114
83	1506
84	799
85	309
86	152
87	13
95	6
96	31
97	111
98	70
99	16
112	5
113	6
114	396
115	22
156	628
157	59
