Mass Spectrum: Cyclopropane, (bromomethyl)-
Formula: C4 H7 Br
CAS: 7051-34-5
Molecular weight: 134
Origin: NIST Mass Spectrometry Data Center, 1990.
m/z	RELATIVE INTENSITY
13	28
14	70
15	68
25	96
26	729
27	2709
28	1060
29	2491
30	55
32	92
37	191
38	385
39	2181
40	165
41	453
48	28
49	101
50	409
51	408
52	159
53	1026
54	28
55	9999
56	429
79	128
80	50
81	117
82	42
93	74
95	57
105	37
106	209
107	56
108	189
119	31
121	41
134	53
136	54
