Mass Spectrum: 5-Chlorovaleric acid, pentyl ester
Formula: C10 H19 Cl O2
CAS: 70543-39-4
Molecular weight: 206
Origin: Zaikin V.G., TIPS RAS, Moscow, Russia
m/z	RELATIVE INTENSITY
26	180
27	1672
28	10
29	2222
30	70
31	110
35	30
36	200
38	100
39	1181
40	240
41	2963
42	3693
43	4844
44	310
45	230
49	220
50	40
51	140
52	40
53	490
54	410
55	9999
56	791
57	400
58	170
59	450
60	230
61	110
62	130
63	390
64	40
65	140
67	80
68	90
69	971
70	9729
71	1491
72	80
73	1331
74	110
75	80
77	30
81	30
82	100
83	1772
84	120
85	230
86	40
87	490
88	30
89	40
90	50
91	3733
92	190
93	1231
94	50
98	30
99	80
100	961
101	4244
102	270
115	210
118	90
119	9709
120	581
121	3213
122	170
134	80
136	901
137	6186
138	631
139	2042
140	110
149	40
163	100
165	30
170	70
171	300
172	30
177	100
179	30
