Mass Spectrum: Cyclohexane, 1-ethyl-2,3-dimethyl-
Formula: C10 H20
CAS: 7058-05-1
Molecular weight: 140
Origin: D.HENNEBERG, MAX-PLANCK INSTITUTE, MULHEIM, WEST GERMANY
m/z	RELATIVE INTENSITY
26	25
27	813
28	68
29	1135
30	30
37	151
38	15
39	833
40	148
41	3107
42	721
43	1215
44	14
45	1
46	6
47	3
49	3
50	22
51	92
52	47
53	406
54	193
55	6033
56	1730
57	1025
58	50
59	3
60	4
62	4
63	18
64	3
65	96
66	53
67	584
68	246
69	9999
70	2484
71	422
72	18
75	13
77	93
78	18
79	99
80	24
81	264
82	287
83	1286
84	798
85	152
86	11
88	25
89	4
91	39
92	5
93	17
94	3
95	160
96	73
97	399
98	154
99	11
103	2
105	1
107	2
109	37
110	690
111	7712
112	720
113	28
123	3
124	3
125	215
139	11
140	1254
141	136
142	4
