Mass Spectrum: Ethyl 2-quinoxalinecarboxylate
Formula: C11 H10 N2 O2
CAS: 7065-23-8
Molecular weight: 202
Origin: Japan AIST/NIMC Database- Spectrum MS-IW-7792
m/z	RELATIVE INTENSITY
15	10
26	20
27	179
28	80
29	439
30	10
31	20
37	10
38	20
39	40
43	20
44	10
45	20
50	239
51	359
52	99
53	50
57	10
59	10
62	20
63	50
64	99
65	10
74	70
75	639
76	599
77	80
78	20
89	10
90	20
91	10
99	10
100	30
101	109
102	2189
103	1079
104	80
116	10
128	139
129	2779
130	9999
131	989
132	40
143	10
144	10
156	20
157	489
158	4979
159	549
160	30
202	1189
203	209
204	20
