Mass Spectrum: 1-Butanamine, N-methyl-N-nitroso-
Formula: C5 H12 N2 O
CAS: 7068-83-9
Molecular weight: 116
Origin: T. BRYCE UNILEVER RESEARCH COLWORTH/WELWYN, BEDFORD U.K.
m/z	RELATIVE INTENSITY
27	2750
29	2000
30	1150
31	180
38	115
39	900
40	235
41	3500
42	9500
43	9999
44	8000
45	375
53	115
54	135
55	670
56	950
57	1875
58	415
59	150
61	600
70	350
71	125
73	6250
74	4500
75	170
84	500
85	75
87	240
99	1400
100	95
116	1700
117	130
