Mass Spectrum: 1,3,5-Trimethyladamantane
Formula: C13 H22
CAS: 707-35-7
Molecular weight: 178
Origin: V.G.Zaikin, TIPS, Russian Acad. Sci.
m/z	RELATIVE INTENSITY
51	200
53	550
54	100
55	900
56	200
57	200
65	300
67	500
69	450
70	100
77	600
78	200
79	700
80	100
81	550
83	200
91	900
92	200
93	1101
94	200
95	450
105	400
107	4604
108	500
109	200
121	900
122	150
135	300
149	200
163	9999
164	1201
165	200
178	600
179	81
180	9
