Mass Spectrum: 3,5-Dimethyl-1-adamantanol
Formula: C12 H20 O
CAS: 707-37-9
Molecular weight: 180
Origin: Chuck Anderson, Aldrich Chemical Co.
m/z	RELATIVE INTENSITY
27	392
28	119
29	916
31	96
39	1226
40	202
41	2499
42	193
43	1452
51	145
52	73
53	743
54	130
55	1327
56	116
57	379
65	255
66	119
67	618
68	133
69	371
71	105
77	660
78	133
79	815
80	150
81	815
82	180
83	175
91	607
92	95
93	416
94	141
95	559
96	33
105	275
106	315
107	2714
108	857
109	9999
110	708
119	34
121	404
122	1279
123	8856
124	797
125	83
147	104
165	1142
166	139
180	3166
181	476
