Mass Spectrum: 2-Chloro-4-nitrobenzoyl chloride
Formula: C7 H3 Cl2 N O3
CAS: 7073-36-1
Molecular weight: 219
Origin: Japan AIST/NIMC Database- Spectrum MS-NW-4718
m/z	RELATIVE INTENSITY
12	10
16	10
25	20
26	30
27	30
28	259
29	10
30	479
32	10
35	90
36	349
37	359
38	199
39	30
41	10
42	10
43	10
44	129
46	70
47	30
48	40
49	179
50	559
51	109
52	20
53	99
54	10
55	70
56	20
60	80
61	159
62	179
63	429
64	50
65	30
69	10
71	10
72	99
73	359
74	1659
75	2519
76	289
77	40
78	10
83	10
84	439
85	109
86	169
87	80
88	30
89	20
90	10
91	20
92	50
93	30
95	10
96	20
97	50
98	80
99	30
100	30
101	20
103	149
104	149
105	20
107	20
108	80
109	959
110	1809
111	449
112	589
113	50
119	99
120	30
121	10
122	10
124	30
125	10
126	999
127	70
128	339
129	40
131	10
133	50
135	30
136	10
137	269
138	3389
139	369
140	1109
141	99
143	10
144	20
145	239
146	30
147	149
148	10
149	30
150	429
151	40
154	299
155	30
156	99
157	30
159	10
161	20
163	10
168	60
169	10
170	20
171	10
172	30
173	139
174	30
175	139
176	10
177	50
179	10
184	9999
185	849
186	3299
187	279
188	30
191	10
201	10
203	20
218	50
219	159
220	50
221	99
222	10
223	10
