Mass Spectrum: 2-(p-Methoxyphenyl)vinylmethylsulfone
Formula: C10 H12 O3 S
CAS: 70784-98-4
Molecular weight: 212
Origin: Humboldt-Universitat zu Berlin, Department of Chemistry, Analytical Group
m/z	RELATIVE INTENSITY
12	8
13	13
14	75
15	1216
16	19
17	5
18	5
19	3
25	3
26	33
27	125
28	20
29	176
30	23
31	75
32	20
33	21
34	23
35	10
36	3
37	28
38	158
39	474
40	57
41	51
42	14
43	30
44	20
45	213
46	45
47	47
48	115
49	37
50	386
51	570
52	179
53	143
54	17
55	75
56	7
57	10
58	25
59	13
60	8
61	68
62	370
63	1679
64	618
65	314
66	62
67	23
68	11
69	43
70	14
71	13
72	4
73	24
74	199
75	296
76	271
77	1274
78	402
79	646
80	45
81	23
82	17
83	9
84	14
85	14
86	44
87	62
88	59
89	1851
90	964
91	324
92	397
93	56
94	23
95	22
96	18
97	22
98	35
99	14
100	19
101	156
102	469
103	493
104	83
105	96
106	56
107	66
108	20
109	32
110	24
111	11
112	4
113	4
114	4
115	59
116	55
117	1356
118	842
119	101
120	36
121	893
122	107
123	20
124	6
125	8
126	2
127	4
128	3
129	6
132	9999
133	2013
134	185
135	39
136	7
137	27
138	19
139	4
140	2
145	3
146	7
147	24
148	90
149	138
150	31
151	10
152	4
153	9
154	2
155	1
163	2
164	13
165	13
166	11
167	3
168	1
169	3
179	2
180	5
181	18
182	2
183	1
196	1
197	101
198	11
199	6
200	1
207	1
209	1
210	1
212	1020
213	127
214	55
215	6
216	1
