Mass Spectrum: Disiloxane, pentamethyl-2-propenyl-
Formula: C8 H20 O Si2
CAS: 7087-19-6
Molecular weight: 188
Origin: P. BRUCK, MAGYAR TUDOMANYOS AKADEMIA, HUNGARY
m/z	RELATIVE INTENSITY
43	310
45	620
52	280
59	1010
66	970
73	1960
74	170
87	140
103	200
105	140
117	340
119	310
131	720
133	2070
134	310
135	200
145	170
147	9999
148	1590
149	760
157	170
159	220
171	70
173	2000
174	380
175	220
188	70
