Mass Spectrum: .beta.-D-Glucopyranoside, methyl
Formula: C7 H14 O6
CAS: 709-50-2
Molecular weight: 194
Origin: Japan AIST/NIMC Database- Spectrum MS-NW-6898
m/z	RELATIVE INTENSITY
14	60
15	949
16	20
17	30
18	109
19	30
26	80
27	589
28	659
29	1199
30	179
31	1689
32	139
33	719
34	10
38	30
39	239
40	70
41	539
42	639
43	1349
44	599
45	1329
46	70
47	149
49	10
51	20
52	20
53	80
54	119
55	669
56	1249
57	4069
58	229
59	569
60	9999
61	3479
62	149
63	30
67	10
68	80
69	649
70	629
71	2009
72	289
73	4299
74	4029
75	1139
76	60
77	10
78	30
79	20
80	20
81	50
82	10
83	40
84	30
85	499
86	219
87	529
88	70
89	119
90	20
91	60
95	10
96	20
97	479
98	589
99	169
100	20
101	90
102	30
103	319
104	259
105	30
109	10
110	10
112	10
113	40
114	30
115	40
116	429
117	70
118	10
120	40
121	179
122	10
126	20
127	30
128	10
129	10
131	669
132	40
133	90
134	20
139	10
143	10
144	359
145	189
146	20
163	209
164	20
193	10
