Mass Spectrum: Etilefrine
Formula: C10 H15 N O2
CAS: 709-55-7
Molecular weight: 181
Origin: Japan AIST/NIMC Database- Spectrum MS-NW-7938
m/z	RELATIVE INTENSITY
15	30
17	10
18	30
26	10
27	129
28	249
29	249
30	1889
31	30
39	189
40	40
41	90
42	90
43	80
44	90
45	10
50	30
51	90
52	20
53	30
54	20
55	50
56	189
57	80
58	9999
59	399
60	10
62	20
63	50
64	20
65	159
66	60
67	30
68	10
69	10
70	10
71	10
74	10
76	10
77	319
78	50
79	30
80	10
81	10
83	10
85	10
88	10
89	20
90	10
91	80
92	10
93	70
94	70
95	159
96	10
97	10
103	20
104	10
105	20
106	30
107	109
108	70
109	10
116	10
117	10
118	10
119	20
120	60
121	109
122	50
123	50
124	20
131	10
132	10
133	40
134	40
135	10
136	10
137	10
146	20
148	40
149	10
159	10
162	80
163	50
164	10
181	70
182	10
