Mass Spectrum: Propanil
Formula: C9 H9 Cl2 N O
CAS: 709-98-8
Molecular weight: 217
Origin: NIST Mass Spectrometry Data Center, 1990.
m/z	RELATIVE INTENSITY
13	12
15	15
18	33
25	31
26	205
27	1145
28	74
29	3625
30	74
35	30
36	45
37	134
38	150
39	121
40	39
41	54
42	74
43	31
44	36
47	36
48	16
49	80
50	120
51	76
52	126
53	39
54	29
55	159
56	16
57	3487
58	142
60	36
61	225
62	563
63	728
64	177
65	90
66	16
71	25
72	146
73	420
74	282
75	309
76	49
77	21
80	10
81	9
83	83
84	85
85	107
86	52
87	74
88	173
89	189
90	530
91	146
92	13
94	15
95	12
96	38
97	271
98	132
99	423
100	76
101	108
102	26
103	9
104	8
106	13
107	104
108	29
109	325
110	85
111	117
112	28
113	16
114	7
117	19
118	25
119	26
120	11
122	9
124	348
125	465
126	455
127	177
128	118
129	15
131	10
133	534
134	169
135	359
136	122
137	81
138	42
139	29
140	16
141	10
145	151
146	43
147	116
148	19
149	15
150	8
151	8
152	25
153	54
154	16
155	19
161	9999
162	1117
163	6027
164	495
165	986
166	82
167	19
171	8
172	25
173	16
174	46
175	16
176	17
181	15
182	22
187	75
188	92
189	44
190	53
191	15
192	12
201	10
214	6
217	1996
218	269
219	1193
220	137
221	189
222	19
