Mass Spectrum: Cyclohexane, 1,1,2-trimethyl-
Formula: C9 H18
CAS: 7094-26-0
Molecular weight: 126
Origin: NIST Mass Spectrometry Data Center, 1990.
m/z	RELATIVE INTENSITY
14	121
15	129
16	85
27	1271
28	185
29	1062
37	38
39	2768
40	662
41	5895
42	1261
43	1353
44	94
50	173
51	462
52	222
53	1240
54	38
55	6189
56	5348
57	2105
58	104
62	59
63	119
65	416
66	172
67	1504
68	1074
69	9999
70	2601
71	269
77	397
78	105
79	385
80	58
81	287
82	544
83	1833
84	1278
85	129
91	156
93	50
95	112
97	219
98	846
99	61
111	5959
112	533
126	1230
127	123
