Mass Spectrum: (2S)-Glycidyl tosylate
Formula: C10 H12 O4 S
CAS: 70987-78-9
Molecular weight: 228
Origin: Chuck Anderson, Aldrich Chemical Co.
m/z	RELATIVE INTENSITY
14	76
15	525
18	6
26	107
27	667
28	278
29	1080
30	76
31	751
32	12
36	41
37	38
38	160
39	1401
40	122
41	439
42	168
43	491
44	44
45	489
48	44
49	25
50	232
51	422
52	137
53	109
55	129
56	320
57	240
61	20
62	164
63	616
64	209
65	2364
66	139
67	52
71	61
72	5
73	143
74	55
75	52
76	43
77	439
78	125
79	219
80	54
86	22
87	35
89	734
90	352
91	9999
92	1182
93	98
103	35
105	194
106	21
107	380
108	247
109	20
111	38
119	44
121	13
133	18
139	650
140	64
141	34
155	4560
156	407
157	242
172	937
173	608
174	95
175	29
184	17
228	434
229	51
230	12
