Mass Spectrum: Tritetracontane
Formula: C43 H88
CAS: 7098-21-7
Molecular weight: 604
m/z	RELATIVE INTENSITY
39	210
40	60
41	1421
42	480
43	4764
44	180
45	10
49	10
50	20
51	30
52	20
53	130
54	360
55	2863
56	1641
57	9999
58	520
59	80
60	10
62	10
63	10
64	10
65	30
66	40
67	430
68	470
69	2202
70	1281
71	6416
72	370
73	20
74	10
75	10
76	20
77	40
78	30
79	70
80	50
81	330
82	540
83	2162
84	791
85	4184
86	290
87	20
88	10
89	10
91	60
92	30
93	30
94	30
95	220
96	320
97	1571
98	510
99	1001
100	90
101	20
102	10
103	10
104	20
105	70
106	20
107	20
108	20
109	110
110	130
111	701
112	350
113	671
114	60
115	20
116	10
117	20
118	10
119	20
120	20
121	20
122	10
123	50
124	80
125	310
126	260
127	510
128	60
129	10
130	10
131	20
132	10
137	30
138	50
139	140
140	210
141	400
142	50
143	10
151	20
152	40
153	80
154	160
155	330
156	40
157	10
166	30
167	60
168	140
169	280
170	40
171	10
180	20
181	40
182	120
183	230
184	30
185	10
194	20
195	30
196	110
197	200
198	30
199	10
208	20
209	30
210	90
211	170
212	30
213	10
222	20
223	20
224	80
225	150
226	40
227	10
236	20
237	20
238	70
239	130
240	30
241	10
249	10
250	20
251	20
252	60
253	120
254	30
255	10
264	20
265	10
266	60
267	110
268	20
269	10
280	50
281	100
282	20
283	10
294	50
295	90
296	20
297	10
308	40
309	80
310	20
311	10
322	40
323	80
324	20
325	10
336	40
337	70
338	20
339	10
350	30
351	70
352	20
362	10
364	30
365	60
366	20
376	10
378	30
379	60
380	20
390	10
391	10
392	20
393	60
394	20
404	10
406	20
407	50
408	20
418	10
420	20
421	50
422	20
434	20
435	50
436	20
448	20
449	50
450	20
451	10
462	20
463	50
464	20
476	10
477	40
478	20
490	10
491	40
492	20
493	10
504	10
505	40
506	20
518	10
519	40
520	20
521	10
532	10
533	40
534	20
546	10
547	40
548	20
560	10
561	20
562	10
575	20
576	10
604	10
605	10
