Mass Spectrum: 1,3,5-Triazine-2,4(1H,3H)-dione
Formula: C3 H3 N3 O2
CAS: 71-33-0
Molecular weight: 113
Origin: Japan AIST/NIMC Database- Spectrum MS-NW-7228
m/z	RELATIVE INTENSITY
12	60
13	159
14	60
15	99
16	219
17	30
18	99
24	10
25	10
26	159
27	839
28	6709
29	569
30	80
31	30
35	20
38	50
39	30
40	129
41	1439
42	1159
43	5269
44	3029
45	60
46	10
49	40
52	50
53	90
54	129
55	70
56	30
57	60
59	20
60	399
61	60
64	20
66	10
67	10
68	70
69	1369
70	8339
71	349
72	30
75	30
77	20
81	20
82	10
83	30
84	20
85	1569
86	359
87	90
95	10
96	10
97	40
98	10
109	10
110	10
111	20
113	9999
114	509
115	60
