Mass Spectrum: 1-Pentanol
Formula: C5 H12 O
CAS: 71-41-0
Molecular weight: 88
Origin: NIST Mass Spectrometry Data Center, 1998.
m/z	RELATIVE INTENSITY
14	10
15	90
19	40
25	10
26	250
27	1920
28	540
29	3300
30	140
31	3690
32	50
33	40
37	70
38	190
39	2160
40	380
41	6899
42	9999
43	2720
44	390
45	560
46	40
47	10
49	20
50	150
51	190
52	60
53	360
54	230
55	9499
56	1920
57	2580
58	240
59	80
60	140
61	20
62	20
63	20
65	20
66	10
67	70
68	20
69	650
70	4890
71	300
72	10
87	30
