Mass Spectrum: Ethane, 1,1,1-trichloro-
Formula: C2 H3 Cl3
CAS: 71-55-6
Molecular weight: 132
Origin: NIST Mass Spectrometry Data Center, 1998.
m/z	RELATIVE INTENSITY
12	10
13	10
14	10
15	30
24	50
25	270
26	880
27	590
35	620
36	130
37	210
38	40
47	340
48	60
49	140
50	20
51	10
59	130
60	960
61	4800
62	670
63	1640
64	120
70	40
72	30
82	270
83	20
84	180
85	10
86	30
94	30
95	220
96	250
97	9999
98	420
99	7179
100	200
101	1340
102	30
117	1720
119	1650
120	20
121	540
122	10
123	60
