Mass Spectrum: Digitoxin
Formula: C41 H64 O13
CAS: 71-63-6
Molecular weight: 764
Origin: Patti Price, Georgia Bureau of Investigation, Decatur, Georgia
m/z	RELATIVE INTENSITY
41	8307
42	1971
43	9999
44	4634
45	4664
46	320
48	530
50	70
51	540
52	320
53	2011
54	760
55	7937
56	1241
57	6786
58	3333
59	1531
60	2662
61	350
63	220
64	440
65	920
66	570
67	4063
68	1621
69	7346
70	1070
71	3483
72	410
73	4393
74	290
75	320
76	10
77	1671
78	480
79	3493
80	980
81	4093
82	890
83	2402
84	1481
85	2822
86	1020
87	630
88	210
89	130
91	3333
92	720
93	2692
94	990
95	5625
96	1731
97	3563
98	1521
99	650
100	150
101	310
103	500
104	660
105	2312
106	830
107	2612
108	1501
109	2071
110	1111
111	4413
112	870
113	6946
114	870
115	670
116	490
117	770
118	480
119	3002
120	720
121	1451
122	590
123	910
124	1821
125	780
126	930
127	940
128	600
129	1661
130	640
131	5965
132	770
133	1551
134	570
135	1261
136	570
137	680
138	290
139	440
140	230
141	570
142	380
143	830
144	430
145	1271
146	520
147	3513
148	1271
149	1020
150	310
151	500
152	380
153	570
154	380
155	530
156	300
157	720
158	310
159	900
160	430
161	990
162	1321
163	1501
164	370
165	620
166	300
167	290
168	240
169	380
170	200
171	470
172	290
173	590
174	630
175	860
176	540
177	840
178	360
179	570
180	400
181	910
182	340
183	480
184	200
185	510
186	180
187	440
188	190
189	550
190	240
191	430
192	230
193	380
194	230
195	820
196	230
197	550
198	220
199	370
200	160
201	940
202	390
203	7356
204	1371
205	260
206	250
207	440
208	240
209	230
210	230
211	350
213	630
214	210
215	370
217	330
218	180
219	540
220	200
221	1931
222	500
223	160
224	160
225	290
226	170
227	260
228	340
229	360
230	190
231	540
232	200
233	250
234	160
235	280
236	290
237	410
239	230
241	190
242	150
243	610
244	160
245	200
246	1501
247	440
250	200
255	440
256	170
257	510
258	160
259	390
262	170
263	160
264	230
269	160
271	240
275	200
281	190
283	170
285	170
313	200
323	410
338	500
339	2502
340	660
341	470
355	200
356	1631
357	1721
358	410
374	300
401	440
