Mass Spectrum: Tetraethylammonium bromide
Formula: C8 H20 Br N
CAS: 71-91-0
Molecular weight: 209
Origin: Japan AIST/NIMC Database- Spectrum MS-NW-5651
m/z	RELATIVE INTENSITY
12	10
13	20
14	50
15	309
17	10
18	30
24	10
25	109
26	719
27	2969
28	1159
29	3819
30	2569
31	40
38	10
39	60
40	60
41	249
42	1029
43	169
44	979
45	20
51	10
52	30
53	10
54	109
55	70
56	659
57	169
58	2579
59	99
68	20
69	10
70	349
71	139
72	319
73	20
79	119
80	109
81	119
82	90
84	99
85	30
86	9999
87	569
88	20
91	20
92	10
93	90
94	20
95	70
99	60
100	569
101	1739
102	119
104	20
105	10
106	20
107	20
108	1749
109	50
110	1749
111	40
