Mass Spectrum: Pyridine, 5-hexyl-2-methyl-
Formula: C12 H19 N
CAS: 710-40-7
Molecular weight: 177
Origin: V.A.KOPTYUG, ATLAS OF MASS SPECTRA OF ORGANIC COMPOUNDS
m/z	RELATIVE INTENSITY
39	580
41	650
42	170
43	690
51	250
52	190
53	370
55	160
65	440
66	150
77	1480
78	430
79	880
80	140
91	350
92	260
93	290
94	170
104	140
105	270
106	9999
107	3570
108	300
117	290
118	180
119	480
120	3580
121	710
130	100
131	130
132	580
133	120
134	1340
135	360
148	440
149	100
162	160
175	230
176	480
177	2270
178	360
