Mass Spectrum: 1,2-Phenylene diisothiocyanate
Formula: C8 H4 N2 S2
CAS: 71105-17-4
Molecular weight: 192
Origin: NIST Mass Spectrometry Data Center, 1994
m/z	RELATIVE INTENSITY
4	18
18	20
25	29
26	199
27	206
28	252
32	528
34	31
36	58
37	579
38	621
39	1038
40	96
44	660
45	408
46	66
48	43
49	236
50	1461
51	858
52	347
53	51
56	89
57	135
58	369
59	121
60	88
61	317
62	466
63	1597
64	5234
65	174
66	357
67	59
68	57
69	380
70	944
71	142
72	92
73	160
74	739
75	1311
76	861
77	172
78	97
80	40
81	119
82	250
83	380
84	190
85	25
86	59
87	113
88	267
89	207
90	1819
91	131
92	18
93	96
94	171
95	184
96	924
98	19
99	79
100	65
101	231
102	491
103	67
104	56
107	570
108	231
109	72
116	301
117	27
120	97
121	83
122	195
128	340
129	27
133	373
134	1619
135	154
136	79
147	64
148	187
149	24
160	285
161	36
165	58
192	9999
193	1123
194	949
195	109
196	29
