Mass Spectrum: n-Propyl heptyl ether
Formula: C10 H22 O
CAS: 71112-89-5
Molecular weight: 158
Origin: J. Klune, Insect Chem. Ecol. Lab., USDA, Beltsville, MD 20705
m/z	RELATIVE INTENSITY
41	3444
42	1482
43	9999
44	536
45	259
46	10
47	18
50	8
51	24
52	16
53	144
54	193
55	2460
56	2237
57	8786
58	502
59	313
60	52
66	12
67	122
68	852
69	1444
70	3907
71	370
72	51
73	2588
74	129
75	33
77	11
78	5
79	14
80	6
81	50
82	54
83	423
84	53
85	37
86	14
87	11
88	17
89	6
91	3
93	8
96	39
97	1386
98	1364
99	295
100	19
101	14
106	3
110	4
111	9
114	3
115	98
116	10
117	5
124	3
127	5
128	6
129	117
130	22
133	3
135	3
136	2
142	3
143	5
157	13
158	36
159	17
160	7
