Mass Spectrum: 1-Hexene, 5,5-dimethyl-
Formula: C8 H16
CAS: 7116-86-1
Molecular weight: 112
Origin: D.HENNEBERG, MAX-PLANCK INSTITUTE, MULHEIM, WEST GERMANY
m/z	RELATIVE INTENSITY
29	2321
30	45
32	229
37	14
38	54
39	1194
40	155
41	4249
42	229
43	2712
44	80
45	12
46	24
47	2
49	14
50	71
51	134
52	46
53	307
54	118
55	5590
56	2371
57	9999
58	417
59	7
62	7
63	19
64	5
65	50
66	23
67	93
68	39
69	800
70	563
71	752
72	37
74	4
75	4
76	5
77	65
78	19
79	68
80	8
81	95
82	15
83	228
84	453
85	37
91	16
92	5
93	6
94	3
95	17
96	25
97	1401
98	106
99	6
102	3
104	8
108	3
111	3
112	431
113	38
