Mass Spectrum: iso-Amyl levulinate
Formula: C10 H18 O3
CAS: 71172-75-3
Molecular weight: 186
Origin: W.Jennings, T.Shibamoto
m/z	RELATIVE INTENSITY
26	520
27	90
28	310
29	761
30	90
34	540
39	90
41	951
42	1251
43	9999
44	651
45	90
51	330
55	3723
56	1251
57	671
58	410
61	110
69	470
70	5635
71	6576
72	1431
73	290
74	1331
75	210
81	80
84	210
98	851
99	6055
100	1041
101	1341
115	90
116	90
117	1651
118	120
143	210
144	981
171	220
