Mass Spectrum: Megastigma-4,6(Z),8(Z)-triene
Formula: C13 H20
CAS: 71186-25-9
Molecular weight: 176
Origin: MASS SPECTRA OF ORGANIC COMPOUNDS, CSIRO, B.H. KENNETT ET AL
m/z	RELATIVE INTENSITY
26	600
27	3000
29	2900
30	100
39	3700
41	6800
42	500
43	1700
45	200
50	400
51	1600
52	600
53	3000
54	400
55	4800
56	700
57	400
63	700
64	400
65	2400
66	600
67	1800
69	2300
70	400
71	600
72	500
73	500
75	600
76	400
77	4300
78	1400
79	3000
80	600
81	1600
82	300
83	300
91	5900
92	1200
93	2200
94	700
95	1200
96	300
103	1000
104	600
105	9999
106	2300
107	2600
108	800
109	300
115	1600
116	800
117	1500
118	600
119	7300
120	4700
121	3400
127	300
128	900
129	900
130	400
131	1300
132	500
133	4100
134	700
135	600
136	100
137	100
145	500
146	500
147	1800
148	1400
149	300
159	600
161	7300
162	1100
163	200
176	6000
177	1100
