Mass Spectrum: Ethanamine, N-ethyl-N-nitro-
Formula: C4 H10 N2 O2
CAS: 7119-92-8
Molecular weight: 118
Origin: T. BRYCE UNILEVER RESEARCH COLWORTH/WELWYN, BEDFORD U.K.
m/z	RELATIVE INTENSITY
29	3286
30	1857
31	124
39	162
40	476
41	952
42	9999
43	571
44	8381
45	276
46	195
52	100
54	229
55	143
56	3524
57	7619
58	952
61	171
70	324
71	1095
72	319
73	357
102	410
103	5810
104	290
118	3333
119	195
