Mass Spectrum: 6-Nitropiperonal
Formula: C8 H5 N O5
CAS: 712-97-0
Molecular weight: 195
Origin: NIST Mass Spectrometry Data Center
m/z	RELATIVE INTENSITY
12	40
13	50
14	360
16	160
17	130
18	130
19	100
25	170
26	320
27	350
28	310
29	4144
30	3703
31	300
32	70
36	200
37	1601
38	1031
39	3003
40	270
41	210
42	711
43	140
44	80
45	200
46	260
48	150
49	1011
50	3513
51	3914
52	1361
53	6306
54	480
55	2762
56	90
60	310
61	3924
62	9999
63	8938
64	1281
65	3904
66	470
67	290
69	3573
70	160
73	220
74	500
75	571
76	520
77	851
79	8137
80	621
81	400
89	150
90	450
91	1241
92	310
93	200
95	150
105	140
107	8868
108	661
109	781
119	3333
120	6656
121	1712
122	320
123	130
134	711
135	250
136	160
137	1151
138	90
148	2772
149	330
150	80
151	801
165	7867
166	821
167	120
178	340
195	3413
196	350
