Mass Spectrum: 1,2-Cyclooctadiene
Formula: C8 H12
CAS: 7124-40-5
Molecular weight: 108
Origin: JACSAT, 100(2)520(1978); R. G. SALOMON ET AL.
m/z	RELATIVE INTENSITY
59	2300
65	1600
67	2600
74	1900
77	4600
78	2100
79	6800
80	3300
91	3700
93	9200
94	1200
108	9999
