Mass Spectrum: .delta.-Dodecalactone
Formula: C12 H22 O2
CAS: 713-95-1
Molecular weight: 198
Origin: Japan AIST/NIMC Database- Spectrum MS-NW-3510
m/z	RELATIVE INTENSITY
14	20
15	60
17	10
18	80
26	80
27	1339
28	189
29	1289
30	30
31	50
32	40
37	10
38	40
39	919
40	189
41	2699
42	1849
43	2569
44	139
45	70
50	30
51	80
52	30
53	249
54	399
55	2299
56	1149
57	809
58	169
59	40
60	199
61	30
63	20
65	60
66	50
67	479
68	609
69	1219
70	2299
71	3089
72	189
73	219
74	20
77	60
78	30
79	119
80	60
81	349
82	329
83	579
84	729
85	169
86	239
87	99
88	10
91	70
92	30
93	50
94	60
95	229
96	429
97	549
98	319
99	9999
100	1009
101	159
102	30
103	10
105	40
106	10
107	40
108	20
109	159
110	209
111	189
112	60
113	179
114	1059
115	219
116	40
117	20
119	50
120	20
121	20
122	10
123	119
124	90
125	60
126	90
127	319
128	90
129	30
130	10
131	10
133	50
134	20
135	10
136	269
137	149
138	249
139	50
140	10
141	60
142	90
143	20
147	10
151	80
152	40
153	10
154	10
155	50
156	20
161	10
162	139
163	20
165	10
169	50
170	20
180	179
181	30
197	10
198	40
199	10
