Mass Spectrum: Alpha,alpha,alpha-trifluoro-4'-nitroanisole
Formula: C7 H4 F3 N O3
CAS: 713-65-5
Molecular weight: 207
Origin: A.A.Kutin, Moscow, Russia
m/z	RELATIVE INTENSITY
33	79
37	582
38	1437
39	283
40	126
41	25
42	15
43	5
44	37
46	183
47	97
50	1781
51	551
52	494
53	292
54	129
55	22
57	200
58	6
61	487
62	1091
63	3335
64	3057
65	165
66	126
69	5618
71	13
73	185
74	811
75	2696
76	647
77	55
78	67
79	78
80	240
81	31
83	795
84	33
89	19
92	2713
93	283
95	9999
96	538
97	21
100	12
101	307
102	11
106	42
107	20
108	106
109	9
111	55
112	6
113	109
114	20
121	150
122	977
123	96
132	31
133	52
147	35
149	1047
150	51
159	16
161	1321
162	99
174	4
175	46
177	2812
178	201
179	13
188	149
189	13
191	262
192	20
205	126
207	6567
208	475
209	46
