Mass Spectrum: Benzene, 1-methyl-2-(phenylmethyl)-
Formula: C14 H14
CAS: 713-36-0
Molecular weight: 182
Origin: D.HENNEBERG, MAX-PLANCK INSTITUTE, MULHEIM, WEST GERMANY
m/z	RELATIVE INTENSITY
27	120
28	15
29	17
38	3
39	206
40	24
41	99
42	5
43	4
49	4
50	22
51	165
52	58
53	125
54	9
55	10
56	4
57	10
59	8
62	8
63	106
64	52
65	869
66	65
67	32
68	3
69	5
74	3
75	18
76	35
77	787
78	635
79	441
80	35
81	6
82	5
83	21
87	4
88	14
89	374
90	301
91	1898
92	150
93	16
94	4
95	5
101	24
102	137
103	682
104	3585
105	1015
106	78
107	9
113	8
114	13
115	532
116	97
117	17
119	3
121	4
125	4
126	27
127	114
128	539
129	106
130	10
131	3
139	153
140	31
141	368
142	63
143	9
147	4
149	5
150	14
151	135
152	1234
153	423
154	135
155	44
156	10
157	5
158	4
159	5
161	7
163	87
164	198
165	3356
166	1753
167	9999
168	1398
169	89
170	4
175	8
176	53
177	91
178	591
179	450
180	141
181	1185
182	7800
183	1169
184	80
