Mass Spectrum: Pentadecanoic acid, methyl ester
Formula: C16 H32 O2
CAS: 7132-64-1
Molecular weight: 256
Origin: NIST Mass Spectrometry Data Center
m/z	RELATIVE INTENSITY
15	60
26	10
27	230
28	80
29	631
30	20
31	30
33	10
38	10
39	280
40	60
41	1942
42	450
43	2622
44	100
45	100
51	10
52	10
53	150
54	170
55	2302
56	450
57	1281
58	90
59	911
60	30
61	20
65	30
66	20
67	270
68	130
69	1221
70	230
71	460
72	40
73	230
74	9999
75	1812
76	90
77	30
78	10
79	90
80	30
81	220
82	100
83	781
84	340
85	250
87	6956
88	621
89	50
91	20
93	60
94	20
95	170
96	80
97	621
98	300
99	60
100	30
101	661
102	70
103	10
107	50
108	10
109	90
110	40
111	220
112	70
113	40
114	10
115	270
116	100
117	10
121	50
122	10
123	40
124	20
125	100
126	20
127	10
129	701
130	130
131	10
135	40
136	10
137	20
138	20
139	50
140	10
141	10
143	1872
144	180
145	20
149	20
151	10
152	10
153	30
154	10
157	530
158	70
159	10
163	10
167	10
171	310
172	40
177	10
180	20
181	10
182	30
183	10
185	280
186	40
195	10
199	390
200	60
201	10
205	10
213	841
214	120
215	10
223	10
225	450
226	80
227	190
228	30
256	601
257	120
258	10
