Mass Spectrum: 1-Dimethyl(pentafluorophenyl)silyloxycyclohexane
Formula: C14 H17 F5 O Si
CAS: 71338-76-6
Molecular weight: 324
Origin: V.G.Zaikin, TIPS, Russian Acad. Sci.
m/z	RELATIVE INTENSITY
119	600
125	3403
129	800
141	800
159	1201
160	500
161	600
185	600
225	1701
227	1201
281	9999
282	2001
283	600
295	1601
296	300
309	1401
310	280
311	70
312	10
324	5204
325	1070
326	270
327	30
