Mass Spectrum: Dimethyl(pentafluorophenyl)silyloxymethylbenzene
Formula: C15 H13 F5 O Si
CAS: 71338-90-4
Molecular weight: 332
Origin: V.G.Zaikin,TIPS,Russian Acad.Sci.Moscow
m/z	RELATIVE INTENSITY
26	60
27	390
28	20
29	280
31	240
36	30
38	150
39	1031
40	60
41	360
42	60
43	250
45	250
46	60
47	1131
48	80
49	520
50	370
51	1081
52	180
53	110
55	20
56	20
57	130
58	110
59	110
61	110
62	190
63	751
64	190
65	2292
66	80
69	40
73	20
74	180
75	691
76	150
77	3403
78	470
79	741
80	150
81	941
82	180
83	80
85	70
86	60
87	60
89	420
90	290
91	9999
92	991
93	170
94	50
95	50
98	110
99	250
101	170
105	450
106	110
107	210
109	20
110	70
111	80
117	130
119	100
125	621
129	180
132	110
135	110
139	180
141	40
144	40
145	40
146	210
148	110
149	791
150	110
151	20
155	170
156	20
157	20
159	270
161	40
162	20
163	460
164	3173
165	520
166	230
167	80
169	130
183	250
187	480
188	80
225	110
226	190
239	40
257	80
287	130
317	591
318	150
319	50
331	290
332	270
333	50
