Mass Spectrum: Dimethyl(pentafluorophenyl)silyloxyethane
Formula: C10 H11 F5 O Si
CAS: 71338-73-3
Molecular weight: 270
Origin: V.G.Zaikin, TIPS, Russian Acad. Sci., Moscow
m/z	RELATIVE INTENSITY
30	320
31	610
32	310
35	70
36	200
37	50
38	90
39	220
41	90
42	200
43	1171
44	230
45	1451
46	70
47	3142
48	190
49	1361
50	200
51	560
53	90
55	70
56	60
57	430
58	140
59	560
60	70
61	310
62	240
63	800
64	110
65	500
66	20
67	90
68	140
69	270
70	120
71	30
72	160
74	270
75	3092
76	350
77	5114
78	670
79	9999
80	900
81	2952
82	210
83	440
84	50
85	370
86	100
87	210
88	50
89	140
90	320
91	190
92	610
94	80
95	620
96	100
97	120
98	350
99	690
100	100
101	850
102	830
103	550
104	70
105	390
106	110
107	3733
108	320
109	180
110	350
111	520
112	100
113	180
114	110
115	50
117	410
118	30
119	290
120	50
122	30
123	290
124	70
125	1881
126	160
127	480
128	300
129	780
130	50
131	70
132	190
133	70
135	100
137	300
138	100
139	100
140	70
141	620
142	80
143	320
144	230
145	2472
146	260
147	100
148	240
149	60
157	160
158	100
159	480
160	50
161	370
162	70
163	50
164	50
165	120
168	70
177	180
178	50
179	120
181	70
185	140
191	60
199	60
207	220
208	60
209	170
210	40
211	80
212	40
225	530
226	190
227	300
228	40
239	60
240	60
241	40
242	60
245	80
247	40
253	170
254	80
255	4604
256	790
257	210
269	60
270	380
271	60
272	20
