Mass Spectrum: 1-Dimethyl(pentafluorophenyl)silyloxypropane
Formula: C11 H13 F5 O Si
CAS: 71338-89-1
Molecular weight: 284
Origin: V.G.Zaikin, TIPS, Russian Acad. Sci., Moscow
m/z	RELATIVE INTENSITY
30	320
31	710
35	60
36	410
37	110
38	410
39	1161
40	240
41	2362
42	410
43	8077
44	660
45	1241
47	3763
48	180
49	1841
50	270
51	690
52	50
53	90
55	140
56	140
57	930
58	250
59	230
61	280
62	250
63	680
64	170
65	420
66	80
67	120
68	170
69	330
70	60
71	120
73	100
74	230
75	4053
76	530
77	9999
78	910
79	9808
80	930
81	3423
82	160
83	420
84	50
85	330
86	160
87	210
88	120
89	210
91	350
92	180
93	890
94	140
95	570
96	50
97	120
98	160
99	1080
100	100
101	890
102	110
103	70
104	120
105	270
106	50
107	990
108	140
109	50
110	250
111	590
112	160
113	230
114	90
116	1601
117	740
118	140
119	800
120	110
121	930
123	270
124	90
125	3653
126	320
127	230
128	50
129	930
130	140
131	70
132	230
133	110
134	110
137	110
138	90
139	200
140	110
141	560
142	50
143	330
144	230
145	2452
146	250
147	90
148	110
149	90
151	240
155	50
157	90
158	70
159	970
160	90
161	390
162	70
163	290
165	110
168	90
169	40
170	50
178	90
181	70
185	180
186	50
191	50
199	50
207	240
209	90
211	110
221	50
224	130
225	2061
226	520
227	320
239	180
241	160
242	130
255	2482
256	430
257	150
268	220
269	4403
270	1010
271	150
283	20
284	150
285	30
286	10
