Mass Spectrum: Dicyclohexylsulphide
Formula: C12 H22 S
CAS: 7133-46-2
Molecular weight: 198
Origin: V.A.KOPTYUG, ATLAS OF MASS SPECTRA OF ORGANIC COMPOUNDS
m/z	RELATIVE INTENSITY
39	2440
40	310
41	7079
42	490
43	610
44	980
45	1380
47	810
50	160
51	320
52	200
53	1560
54	2690
55	9999
56	610
57	100
58	230
59	500
60	900
61	760
65	420
66	310
67	8539
68	610
69	280
71	1040
74	180
77	480
79	1220
80	540
81	3750
82	8779
83	8949
85	280
87	570
110	980
114	1060
115	3260
116	1630
117	3010
118	310
119	160
129	160
155	330
192	220
198	3750
199	810
