Mass Spectrum: 2-Dimethyl(pentafluorophenyl)silyloxypropane
Formula: C11 H13 F5 O Si
CAS: 71338-74-4
Molecular weight: 284
Origin: V.G.Zaikin, TIPS, Russian Acad. Sci., Moscow
m/z	RELATIVE INTENSITY
30	40
31	680
35	80
36	510
37	60
38	230
39	1311
40	150
41	1511
42	440
43	3913
44	680
45	1471
46	100
48	3312
49	1891
50	260
51	820
53	130
55	150
56	130
57	470
58	130
59	320
60	70
61	340
62	200
63	690
64	90
65	570
66	50
67	160
68	500
70	50
71	160
73	120
74	420
75	6906
76	1161
77	9999
78	950
79	7436
80	760
81	3222
82	530
84	60
85	600
86	140
87	120
89	230
91	420
92	590
93	100
95	1050
96	100
98	330
99	1070
100	100
101	480
102	70
103	60
105	350
106	100
107	190
109	100
110	330
111	350
113	180
114	200
115	110
116	590
117	760
119	720
120	110
121	140
123	230
124	200
125	4494
126	440
127	250
129	1070
130	110
132	100
133	140
134	460
135	100
136	50
137	70
139	230
140	120
141	1030
142	460
144	70
145	590
146	120
147	50
148	110
157	60
158	120
159	1291
160	70
161	650
162	70
163	120
164	70
165	110
168	90
175	70
179	90
181	70
182	70
185	110
186	50
205	70
207	440
209	120
224	70
225	1701
226	500
227	920
228	90
229	90
242	70
267	240
268	270
269	8797
270	1651
271	660
283	180
284	50
285	10
