Mass Spectrum: 1-Pentanone, 1-(2-pyridinyl)-
Formula: C10 H13 N O
CAS: 7137-97-5
Molecular weight: 163
Origin: CARL DJERASSI DEPT OF CHEM STANFORD UNIV STANFORD CALIF 94305
m/z	RELATIVE INTENSITY
41	1200
42	200
43	200
44	200
49	100
50	500
51	2200
52	1700
53	600
54	200
55	700
56	200
57	1100
58	200
63	100
64	100
65	200
66	100
75	100
76	300
77	500
78	7500
79	9999
80	1800
81	200
83	100
85	200
92	100
93	1000
94	200
104	600
105	100
106	2300
107	1200
108	200
109	200
116	100
117	200
118	100
120	600
121	1100
122	200
130	200
132	100
133	100
134	5600
135	1400
136	200
144	100
146	200
148	700
149	200
159	200
162	400
163	2200
164	400
