Mass Spectrum: 1-Nitro-2-propylbenzene
Formula: C9 H11 N O2
CAS: 7137-54-4
Molecular weight: 165
Origin: C.B. THOMAS, DEP. CHEM., UNIV. YORK, U.K
m/z	RELATIVE INTENSITY
41	150
42	210
50	260
51	720
52	240
53	130
57	1050
62	250
63	1050
64	320
65	2050
66	280
67	100
74	180
75	220
76	500
77	2100
78	2840
79	290
86	100
87	100
89	1880
90	1070
91	5300
92	5050
93	1050
94	250
95	100
101	100
102	370
103	1020
104	1100
105	940
106	1580
108	500
115	1980
116	640
117	1240
118	1350
119	450
120	2650
121	300
130	2450
131	700
132	550
133	800
134	110
135	120
136	260
146	220
147	100
148	9999
149	960
150	100
165	400
