Mass Spectrum: 1,4-Ethanoquinoxaline, 2,3-dihydro-
Formula: C10 H12 N2
CAS: 7140-45-6
Molecular weight: 160
Origin: Institute of Organic Chemistry, USSR, 1990
m/z	RELATIVE INTENSITY
41	120
42	330
50	260
51	720
52	360
53	110
54	60
55	70
63	170
64	130
65	610
66	490
75	70
76	260
77	1230
78	880
79	110
80	540
83	120
85	80
89	70
90	100
92	600
102	60
103	150
104	1360
105	400
106	60
117	230
118	950
119	130
130	350
131	9999
132	4010
133	340
145	110
157	90
159	610
160	7170
161	7170
162	790
