Mass Spectrum: Furoylglycine, TMS derivative
Formula: C10 H15 N O4 Si
CAS: 71428-92-7
Molecular weight: 241
Origin: NIST Mass Spectrometry Data Center
m/z	RELATIVE INTENSITY
15	30
26	20
27	40
28	160
29	140
30	50
31	30
37	80
38	310
39	1601
40	90
41	100
42	120
43	440
44	230
45	1311
46	100
47	530
48	30
49	20
50	20
51	110
52	50
53	160
54	40
55	120
56	130
57	90
58	390
59	390
60	120
61	460
62	40
63	30
64	10
65	40
66	160
67	390
68	100
69	70
70	70
71	50
72	340
73	7136
74	731
75	2462
76	190
77	190
78	30
79	80
80	60
81	200
82	70
83	470
85	60
86	140
87	100
88	170
89	40
91	150
92	60
93	50
94	641
95	9999
96	751
97	250
98	70
99	70
100	80
101	70
102	180
103	30
104	20
105	30
106	50
107	90
108	110
109	70
110	60
111	110
112	250
113	70
114	30
115	20
116	90
117	50
118	10
120	10
121	20
122	30
123	100
124	771
125	671
126	110
127	240
128	70
129	60
130	100
131	20
132	10
135	20
136	10
137	20
138	50
139	80
140	70
141	400
142	801
143	1641
144	230
145	70
146	10
149	10
150	10
151	80
152	150
153	180
154	250
155	50
156	70
157	20
158	20
164	10
165	10
166	50
167	300
168	1541
169	2522
170	410
171	120
172	10
178	20
180	671
181	120
182	480
183	80
184	20
196	961
197	961
198	260
199	60
200	10
226	2793
227	450
228	150
229	20
241	200
242	30
243	10
