Mass Spectrum: Methanesulfonic anhydride
Formula: C2 H6 O5 S2
CAS: 7143-01-3
Molecular weight: 174
Origin: Japan AIST/NIMC Database- Spectrum MS-NW-7879
m/z	RELATIVE INTENSITY
14	50
15	2969
16	30
32	40
33	30
34	30
44	30
45	109
46	40
47	20
48	309
49	40
50	20
62	10
63	139
64	169
65	279
66	30
67	10
76	10
78	179
79	9999
80	539
81	679
82	20
83	10
94	90
95	30
96	579
97	20
98	20
109	30
111	20
159	80
161	10
174	299
175	30
176	30
