Mass Spectrum: 3,4-(Methylenedioxy)toluene
Formula: C8 H8 O2
CAS: 7145-99-5
Molecular weight: 136
Origin: NIST Mass Spectrometry Data Center
m/z	RELATIVE INTENSITY
14	10
15	10
25	10
26	90
27	250
29	200
30	60
31	50
32	10
33	20
37	150
38	320
39	991
40	120
41	40
42	40
43	40
46	10
47	40
49	100
50	1101
51	1912
52	1341
53	540
54	110
55	50
60	10
61	150
62	280
63	561
64	60
65	250
66	210
67	230
68	210
73	50
74	260
75	140
76	300
77	2182
78	2432
79	991
80	250
81	20
82	10
86	10
89	40
90	40
91	140
92	10
93	30
94	30
95	30
104	20
105	581
106	430
107	210
108	20
121	80
134	120
135	9999
136	8898
137	801
138	60
