Mass Spectrum: Glycine, N,N-dimethyl-, methyl ester
Formula: C5 H11 N O2
CAS: 7148-06-3
Molecular weight: 117
Origin: Japan AIST/NIMC Database- Spectrum MS-NW-1113
m/z	RELATIVE INTENSITY
14	40
15	589
17	10
18	30
26	20
27	70
28	239
29	199
30	729
31	40
32	30
39	10
40	60
41	169
42	1239
43	289
44	229
45	339
54	20
55	10
56	129
57	349
58	9999
59	369
69	30
72	80
73	10
74	20
88	50
100	40
116	20
117	1029
118	60
