Mass Spectrum: m-Toluidine, 4-chloro-
Formula: C7 H8 Cl N
CAS: 7149-75-9
Molecular weight: 141
Origin: NIST Mass Spectrometry Data Center, 1994
m/z	RELATIVE INTENSITY
13	49
14	102
15	409
16	29
17	86
18	27
26	590
27	1484
28	1820
29	80
30	570
33	18
35	160
36	197
37	840
38	1473
39	2525
40	489
41	1017
42	468
43	33
44	52
46	23
47	119
48	71
49	430
50	1733
51	3420
52	2309
53	23
54	606
55	64
57	60
60	136
61	601
62	911
63	1449
64	418
65	649
66	403
67	152
68	25
71	451
72	233
73	678
74	618
75	772
76	610
77	4595
78	2392
79	2498
80	534
81	45
84	84
85	161
86	197
87	246
88	138
89	529
90	167
91	98
92	28
97	68
98	42
99	215
100	86
101	94
102	162
103	28
104	1771
105	28
106	9999
107	829
108	39
111	50
112	91
113	355
114	256
115	131
116	72
123	43
124	36
125	111
126	25
127	39
138	59
140	2105
141	9021
142	1339
143	3011
144	229
