Mass Spectrum: Cyclopropyl 4-methoxyphenyl ketone
Formula: C11 H12 O2
CAS: 7152-03-6
Molecular weight: 176
Origin: NIST Mass Spectrometry Data Center, 1990.
m/z	RELATIVE INTENSITY
14	155
15	259
27	246
28	453
29	126
32	72
38	367
39	1127
40	197
41	799
50	596
51	488
52	114
53	188
62	256
63	1073
64	1257
65	236
69	307
74	197
75	204
76	465
77	2699
78	376
79	260
89	127
91	303
92	1766
93	145
103	230
104	150
105	171
106	127
107	1375
108	143
115	198
133	140
135	9999
136	872
145	205
147	154
160	142
175	500
176	2343
177	311
