Mass Spectrum: 1H-Benzimidazole, 2-(methylthio)-
Formula: C8 H8 N2 S
CAS: 7152-24-1
Molecular weight: 164
Origin: Japan AIST/NIMC Database- Spectrum MS-NW-3595
m/z	RELATIVE INTENSITY
14	30
15	169
26	60
27	109
28	429
32	30
33	10
34	10
36	10
37	229
38	379
39	779
40	99
41	99
42	30
43	40
44	109
45	649
46	169
47	129
48	20
49	30
50	209
51	359
52	389
53	50
54	20
57	30
58	99
59	80
60	30
61	119
62	259
63	999
64	749
65	289
66	50
67	20
69	80
70	169
71	40
72	60
73	20
74	159
75	90
76	139
77	339
78	389
79	30
81	20
82	259
83	50
84	10
86	10
87	30
88	80
89	60
90	1029
91	1059
92	349
93	30
94	40
95	139
96	119
97	20
102	50
103	109
104	399
105	219
106	20
107	10
108	10
109	30
116	40
117	109
118	2029
119	1469
120	119
121	80
122	2159
123	169
124	99
125	10
129	80
130	70
131	7249
132	939
133	50
134	20
135	10
136	40
145	10
147	40
148	80
149	1169
150	119
151	60
161	10
162	30
163	2539
164	9999
165	1119
166	499
167	40
