Mass Spectrum: Heptane, 3,3,5-trimethyl-
Formula: C10 H22
CAS: 7154-80-5
Molecular weight: 142
Origin: D.HENNEBERG, MAX-PLANCK INSTITUTE, MULHEIM, WEST GERMANY
m/z	RELATIVE INTENSITY
24	4
26	85
27	563
28	48
29	1391
30	33
36	1
37	10
38	8
39	415
40	57
41	1871
42	300
43	5924
44	171
45	5
50	5
51	25
52	8
53	130
54	29
55	979
56	288
57	6250
58	282
59	2
63	1
65	12
66	2
67	46
68	11
69	202
70	2612
71	9999
72	585
73	11
77	9
79	91
81	10
82	2
83	143
84	22
85	466
86	29
97	23
112	144
113	920
114	81
127	105
128	8
