Mass Spectrum: Pentane, 2,2,3,3-tetramethyl-
Formula: C9 H20
CAS: 7154-79-2
Molecular weight: 128
Origin: NIST Mass Spectrometry Data Center, 1990.
m/z	RELATIVE INTENSITY
15	273
27	1306
28	170
29	1882
39	1581
40	370
41	4220
42	545
43	5145
44	221
53	512
55	2020
56	1043
57	9999
58	498
67	186
69	720
70	3911
71	4886
72	271
83	294
98	208
99	1145
113	392
