Mass Spectrum: 1-Nonyne, 7-methyl-
Formula: C10 H18
CAS: 71566-65-9
Molecular weight: 138
Origin: NIST Mass Spectrometry Data Center, 1990.
m/z	RELATIVE INTENSITY
26	203
27	1715
28	159
29	2063
39	3493
40	832
41	7668
42	976
43	1992
44	101
50	309
51	748
52	438
53	1724
54	1059
55	5629
56	2178
57	4133
58	181
63	161
65	888
67	9999
68	1518
69	2047
70	940
71	274
77	716
79	2383
80	1182
81	8317
82	2455
83	1178
84	147
91	343
93	404
94	217
95	902
96	834
97	298
107	200
109	2952
110	314
123	162
