Mass Spectrum: 4-Pyrimidinecarboxylic acid, 5-amino-1,2,3,6-tetrahydro-2,6-dioxo-
Formula: C5 H5 N3 O4
CAS: 7164-43-4
Molecular weight: 171
Origin: Japan AIST/NIMC Database- Spectrum MS-NW-7061
m/z	RELATIVE INTENSITY
12	50
13	30
14	30
15	30
16	149
24	20
25	30
26	60
27	87
28	839
29	113
30	10
38	109
39	139
40	209
41	219
42	159
43	389
44	1789
45	2409
46	159
47	10
51	10
52	60
53	989
54	3149
55	1409
56	1949
57	209
58	10
63	10
64	10
65	10
66	20
67	139
68	219
69	99
70	449
71	319
72	1299
73	839
74	30
75	10
77	10
79	10
80	20
81	50
82	1869
83	219
84	269
85	90
86	10
87	30
93	10
94	10
95	10
96	10
97	169
98	90
99	249
100	1509
101	80
102	10
108	50
109	90
110	159
111	10
112	10
115	10
116	10
124	10
125	849
126	289
127	2419
128	189
129	20
137	10
138	10
151	10
152	10
153	2229
154	229
155	30
170	20
171	9999
172	699
173	129
174	10
