Mass Spectrum: Benzofuran, 7-methoxy-
Formula: C9 H8 O2
CAS: 7168-85-6
Molecular weight: 148
m/z	RELATIVE INTENSITY
26	398
27	426
28	170
29	824
30	199
37	568
38	852
39	852
49	284
50	2130
51	4233
52	284
53	511
61	341
62	824
63	1193
64	227
65	227
73	170
74	739
75	426
76	824
77	4801
78	369
86	256
87	256
88	142
89	852
90	341
91	540
105	4545
106	284
117	256
118	852
119	284
133	4147
134	455
147	256
148	9999
149	1165
150	256
