Mass Spectrum: 2,5-Diacetoxytoluene
Formula: C11 H12 O4
CAS: 717-27-1
Molecular weight: 208
Origin: NIST Mass Spectrometry Data Center
m/z	RELATIVE INTENSITY
15	30
26	20
27	10
38	30
39	180
40	70
41	120
42	90
43	1832
44	40
50	40
51	110
52	70
53	100
54	150
55	170
62	20
63	40
64	10
65	130
66	130
67	280
68	60
69	30
74	10
76	10
77	270
78	110
79	40
81	30
82	70
94	70
95	280
96	80
105	50
106	80
107	170
108	10
121	20
122	10
123	871
124	9999
125	901
126	70
149	30
165	30
166	1631
167	160
168	10
208	340
209	40
