Mass Spectrum: 3-Phenoxypropionic acid
Formula: C9 H10 O3
CAS: 7170-38-9
Molecular weight: 166
Origin: Japan AIST/NIMC Database- Spectrum MS-NW-6759
m/z	RELATIVE INTENSITY
15	10
18	20
25	10
26	90
27	359
28	129
29	189
31	60
32	30
36	10
37	60
38	159
39	739
40	179
41	20
42	50
43	159
44	40
45	409
46	20
47	30
49	20
50	189
51	519
52	60
53	60
54	20
55	549
56	30
57	10
60	50
61	40
62	70
63	239
64	119
65	979
66	879
67	70
68	30
71	30
72	90
73	379
74	90
75	50
76	50
77	969
78	209
79	139
80	10
87	30
89	10
91	109
92	60
93	159
94	9999
95	749
96	50
101	10
103	30
105	10
107	349
108	30
109	10
115	10
119	20
120	80
121	169
122	10
123	10
126	10
127	50
147	10
148	30
149	70
150	10
166	3399
167	359
168	50
