Mass Spectrum: Carbophenoxon
Formula: C11 H16 Cl O3 P S2
CAS: 7173-84-4
Molecular weight: 326
Origin: J. SHAW, BORRISTON RESEARCH, ROCKVILLE, MD, USA
m/z	RELATIVE INTENSITY
12	30
13	30
14	160
15	670
16	110
17	460
18	1661
19	180
25	30
26	500
27	3253
28	1401
29	7227
30	280
31	380
32	160
33	50
34	80
35	90
36	130
37	70
38	210
39	460
40	20
41	190
42	80
43	620
45	9999
46	1161
47	1851
48	130
49	120
50	740
51	580
52	40
53	30
54	30
55	70
56	20
57	200
58	230
59	210
60	180
61	230
62	240
63	900
64	140
65	1561
66	40
67	20
69	780
70	70
71	100
72	50
73	440
74	350
75	4014
76	390
77	1021
78	280
79	200
81	4864
82	1731
83	930
84	80
85	160
86	20
87	50
88	10
89	100
91	1441
92	80
93	490
94	130
95	180
96	190
97	1421
98	90
99	690
100	150
101	180
102	40
103	20
105	40
106	40
107	250
108	2312
109	8188
110	1071
111	3763
112	250
113	390
114	360
115	390
116	30
117	20
118	20
119	10
120	30
121	650
122	320
123	110
125	990
126	240
127	1441
128	80
129	70
130	10
131	10
133	10
135	40
137	2152
138	1571
139	2682
140	170
141	310
142	270
143	2012
144	860
145	720
146	280
147	50
148	10
149	40
151	10
153	730
154	160
155	1741
157	3253
158	370
159	1051
160	110
161	50
162	10
169	120
170	560
171	660
172	60
173	90
174	20
175	70
176	10
177	20
183	2842
184	280
185	180
186	40
187	60
188	50
189	190
190	40
191	70
197	10
213	20
222	10
223	10
224	10
225	10
280	20
281	20
286	60
288	40
326	490
327	70
328	190
329	20
330	10
