Mass Spectrum: Ethyldicyclohexylamine
Formula: C14 H27 N
CAS: 7175-49-7
Molecular weight: 209
Origin: Chuck Anderson, Aldrich Chemical Co.
m/z	RELATIVE INTENSITY
18	21
26	26
27	339
28	813
29	678
30	381
39	258
40	47
41	1310
42	278
43	176
44	325
46	7
53	173
54	250
55	1263
56	920
57	87
58	168
65	44
66	26
67	255
68	189
69	157
70	260
71	2741
72	571
73	23
77	74
79	204
80	101
81	287
82	367
83	430
84	2714
85	193
86	24
93	7
94	48
95	36
96	280
97	78
98	337
99	63
108	137
109	39
110	564
111	89
112	398
113	26
122	56
123	25
124	278
125	320
126	510
127	36
128	1558
129	124
136	45
138	994
139	162
140	146
150	37
152	339
153	174
154	28
164	61
166	9999
167	1142
168	74
180	196
181	24
194	598
195	77
208	69
209	1343
210	194
