Mass Spectrum: 2-Methoxy-5-nitrophenylisothiocyanate
Formula: C8 H6 N2 O3 S
CAS: 71793-51-6
Molecular weight: 210
Origin: NIST Mass Spectrometry Data Center, 1994
m/z	RELATIVE INTENSITY
13	20
14	107
15	961
16	38
17	23
18	88
26	241
27	99
28	206
29	20
30	2788
31	28
32	163
37	380
38	602
39	478
40	56
41	60
42	50
43	57
44	272
45	308
46	363
47	56
48	29
49	174
50	1180
51	1497
52	302
53	537
54	253
55	73
56	45
57	42
58	218
59	135
60	29
61	537
62	1088
63	2250
64	365
65	418
66	206
67	52
68	56
69	495
70	1272
71	172
72	140
73	139
74	751
75	954
76	870
77	1804
78	982
79	1257
80	188
81	94
82	517
83	433
84	98
85	52
86	204
87	161
88	344
89	222
90	722
91	366
92	378
93	311
94	851
95	715
96	327
97	107
98	98
99	63
100	26
102	81
103	67
104	85
105	156
106	149
107	817
108	243
109	1086
110	186
111	454
112	29
113	27
117	114
118	225
119	217
120	1112
121	2010
122	233
123	156
124	81
130	23
131	107
132	60
133	181
134	1287
135	234
136	312
137	448
138	83
139	709
140	47
141	47
149	1582
150	165
151	86
152	235
153	30
162	46
164	2654
165	1090
166	209
167	26
177	1153
178	147
180	313
181	64
182	25
194	129
195	119
196	26
207	19
210	9999
211	1063
212	563
213	55
