Mass Spectrum: 2,2,2,2',2',2'-Hexafluorocumyl alcohol
Formula: C9 H6 F6 O
CAS: 718-64-9
Molecular weight: 244
Origin: Japan AIST/NIMC Database- Spectrum MS-IW-2214
m/z	RELATIVE INTENSITY
20	20
26	20
27	109
29	20
31	50
36	10
37	50
38	129
39	229
40	10
43	10
44	10
49	40
50	619
51	1259
52	189
53	90
54	10
56	10
57	70
61	40
62	99
63	149
64	10
66	10
67	10
68	20
69	2179
70	40
73	40
74	189
75	229
76	189
77	3059
78	819
79	60
80	20
81	60
83	20
85	10
86	20
87	60
88	40
89	40
92	10
93	20
94	10
95	99
96	109
97	239
98	10
99	70
100	20
101	30
103	10
104	70
105	9999
106	799
107	139
108	50
109	20
111	10
112	10
114	20
119	70
120	10
123	80
125	109
126	40
127	1469
128	109
132	10
136	20
137	50
138	60
139	129
140	10
145	199
146	10
154	10
155	20
156	40
157	80
158	50
169	10
173	10
174	20
175	7489
176	669
177	379
178	30
185	20
187	30
195	20
205	729
206	70
207	40
208	50
223	10
244	3669
245	369
246	20
