Mass Spectrum: Piperidine, 1-(1-propenyl)-
Formula: C8 H15 N
CAS: 7182-09-4
Molecular weight: 125
Origin: D.H.WILLIAMS CHEMISTRY DEPT., UNIVERSITY OF CAMBRIDGE
m/z	RELATIVE INTENSITY
15	1000
16	3900
17	1400
18	2900
25	100
26	1400
27	5500
28	9999
29	400
30	2750
31	150
34	150
37	250
38	550
39	5300
40	2000
41	7550
42	4600
43	1800
44	2700
45	150
48	100
49	100
50	550
51	550
52	600
53	1000
54	1980
55	4400
56	3400
57	800
62	100
63	100
65	300
66	200
67	1000
68	4000
69	2400
70	1400
71	300
77	200
78	100
79	400
80	700
81	480
82	2200
83	650
84	3850
85	1650
86	100
91	200
93	100
94	560
95	300
96	2650
97	400
98	350
100	100
101	100
105	100
106	100
107	100
108	350
109	200
110	200
119	100
120	100
122	300
123	200
124	2350
125	2500
