Mass Spectrum: Propane, 2-isocyano-2-methyl-
Formula: C5 H9 N
CAS: 7188-38-7
Molecular weight: 83
Origin: NIST Mass Spectrometry Data Center, 1994
m/z	RELATIVE INTENSITY
12	130
13	142
14	509
15	1962
16	21
26	1046
27	2779
28	739
29	1586
30	46
37	525
38	1066
39	4187
40	2201
41	9999
42	3666
43	85
48	16
49	93
50	310
51	663
52	1072
53	282
54	162
55	326
56	16
57	7403
58	358
64	186
66	716
67	1782
68	8099
69	395
82	45
83	165
84	10
