Mass Spectrum: 9-Eicosyne
Formula: C20 H38
CAS: 71899-38-2
Molecular weight: 278
Origin: D.HENNEBERG, MAX-PLANCK INSTITUTE, MULHEIM, WEST GERMANY
m/z	RELATIVE INTENSITY
23	6
24	5
25	35
26	113
27	1463
28	346
29	3757
30	83
31	6
33	18
34	10
35	30
36	35
37	73
38	52
39	1107
40	238
41	7138
42	960
43	8138
44	291
45	13
46	5
47	24
48	32
49	28
50	69
51	170
52	292
53	1114
54	5354
55	8603
56	1744
57	5584
58	240
59	5
60	12
61	10
62	17
63	60
64	36
65	498
66	656
67	9618
68	3489
69	5381
70	988
71	2056
72	125
73	18
74	15
75	48
76	38
77	702
78	416
79	1785
80	1125
81	9999
82	7186
83	4864
84	602
85	1115
86	61
87	5
89	18
91	601
92	151
93	787
94	473
95	7219
96	4574
97	2417
98	375
99	237
100	22
102	5
103	32
104	40
105	281
106	91
107	295
108	153
109	3035
110	1169
111	646
112	143
113	131
114	4
115	36
116	12
117	101
118	33
119	65
120	14
121	211
122	64
123	1393
124	929
125	278
126	83
127	82
128	60
129	49
130	6
131	46
133	33
134	8
135	120
136	43
137	829
138	401
139	83
140	38
141	62
142	6
143	13
145	11
147	12
149	35
150	12
151	299
152	348
153	69
154	29
155	34
163	20
164	8
165	307
166	156
167	22
168	7
169	27
177	14
178	13
179	97
180	72
181	5
182	12
183	11
191	9
193	147
194	130
195	8
197	4
205	4
207	47
208	32
221	62
222	41
235	9
237	22
274	11
278	37
