Mass Spectrum: 5-Octadecyne
Formula: C18 H34
CAS: 71899-42-8
Molecular weight: 250
Origin: D.HENNEBERG, MAX-PLANCK INSTITUTE, MULHEIM, WEST GERMANY
m/z	RELATIVE INTENSITY
23	5
24	4
25	30
26	84
27	1426
28	231
29	2742
30	63
31	8
32	9
33	13
34	7
35	16
36	16
37	48
38	32
39	1016
40	213
41	5709
42	679
43	4739
44	101
46	9
47	24
48	37
49	24
50	52
51	155
52	342
53	1152
54	7455
55	6724
56	873
57	1955
58	74
60	9
61	14
62	21
63	71
64	24
65	443
66	530
67	8618
68	2884
69	3019
70	482
71	520
72	35
73	16
74	8
75	46
76	31
77	670
78	250
79	1537
80	785
81	9999
82	4697
83	2133
84	212
85	162
86	10
87	7
88	7
89	20
90	17
91	506
92	171
93	699
94	373
95	5900
96	3528
97	1313
98	139
99	12
103	16
104	50
105	176
106	60
107	223
108	122
109	1734
110	1021
111	312
112	32
115	32
116	7
117	72
118	12
119	45
120	25
121	143
122	49
123	1028
124	368
125	60
126	4
127	7
128	12
129	30
131	23
132	3
133	23
134	9
135	100
136	41
137	908
138	552
139	56
140	5
141	2
145	7
147	8
149	32
150	13
151	176
152	150
153	17
163	23
165	30
166	60
167	5
179	70
180	83
181	3
193	427
194	35
207	8
208	9
221	4
246	11
248	21
250	31
