Mass Spectrum: 9(10H)-Acridinone, 10-methyl-
Formula: C14 H11 N O
CAS: 719-54-0
Molecular weight: 209
Origin: Japan AIST/NIMC Database- Spectrum MS-NW-6715
m/z	RELATIVE INTENSITY
14	10
15	449
26	70
27	369
28	90
29	70
37	179
38	449
39	1089
40	90
41	60
42	50
43	10
45	20
49	90
50	1819
51	1599
52	349
53	139
54	30
55	20
56	10
57	10
61	189
62	589
63	1309
64	549
65	269
66	109
67	20
69	139
70	30
73	139
74	979
75	1029
76	1439
77	1869
78	289
79	50
80	10
82	109
83	90
84	20
85	80
86	259
87	409
88	329
89	549
90	919
91	199
92	70
97	20
98	169
99	169
100	129
101	199
102	419
103	99
104	209
105	189
106	20
109	30
110	70
111	119
112	90
113	499
114	239
115	569
116	239
117	50
118	10
120	10
122	40
123	30
124	30
125	90
126	269
127	369
128	199
129	40
130	99
131	10
132	80
133	10
134	10
135	10
136	10
137	179
138	319
139	1189
140	2129
141	269
142	30
143	10
146	10
149	30
150	199
151	639
152	1799
153	569
154	229
155	30
156	10
162	10
163	30
164	549
165	279
166	3509
167	549
168	50
175	10
176	30
177	129
178	419
179	409
180	3929
181	1799
182	249
183	30
190	10
191	10
192	10
193	10
194	1199
195	209
196	20
206	20
207	70
208	1949
209	9999
210	1569
211	129
212	10
