Mass Spectrum: Benzophenone, 2-amino-5-chloro-
Formula: C13 H10 Cl N O
CAS: 719-59-5
Molecular weight: 231
Origin: Patti Price, Georgia Bureau of Investigation, Decatur, Georgia
m/z	RELATIVE INTENSITY
41	50
49	20
50	230
51	630
52	220
53	50
54	10
61	50
62	160
63	590
64	190
65	150
66	40
70	60
72	20
73	230
74	200
75	240
76	200
77	3042
78	230
83	410
85	10
86	50
87	70
88	60
89	160
90	770
91	330
92	40
93	20
97	80
98	410
99	1020
100	130
101	310
102	50
104	30
105	2232
106	170
107	10
110	30
111	30
113	70
114	40
115	120
123	20
124	20
125	150
126	1331
127	190
128	500
129	40
137	30
138	50
139	360
140	180
141	80
149	30
150	70
151	130
152	70
153	160
154	2041
155	230
156	770
157	60
164	40
165	20
166	350
167	760
168	190
169	20
177	40
178	60
179	50
186	30
194	50
195	1381
196	320
197	40
201	70
202	270
203	70
204	90
205	10
214	610
215	90
216	190
217	20
229	40
230	9999
231	6686
232	3823
233	2061
234	290
235	10
