Mass Spectrum: 2-Heptyne-4-one
Formula: C7 H10 O
CAS: 71932-98-4
Molecular weight: 110
Origin: A.Pleshkova, Nesmeyanov Inst.Org.Elem.Cpds, Moscow
m/z	RELATIVE INTENSITY
27	901
28	20
38	500
39	2002
40	400
41	801
42	300
43	500
53	200
54	200
55	200
60	400
66	500
67	9999
68	701
82	2302
83	180
84	10
95	1301
96	100
97	10
110	100
