Mass Spectrum: Hex-4-yn-3-one, 2,2-dimethyl-
Formula: C8 H12 O
CAS: 71932-99-5
Molecular weight: 124
Origin: A.Pleshkova, Nesmeyanov Inst.Org.Elem.Cpds, Moscow
m/z	RELATIVE INTENSITY
27	701
28	300
29	3303
30	80
39	400
40	500
41	4804
42	160
53	400
55	500
56	601
57	9999
58	601
67	3703
68	701
69	500
81	2002
82	180
83	10
96	1101
97	100
98	10
109	901
110	80
111	10
124	100
