Mass Spectrum: Cyheptamide
Formula: C16 H15 N O
CAS: 7199-29-3
Molecular weight: 237
Origin: NIST Mass Spectrometry Data Center
m/z	RELATIVE INTENSITY
16	10
27	40
30	10
38	20
39	200
40	10
41	40
43	10
44	550
45	20
46	20
50	100
51	250
52	60
53	30
57	10
61	10
62	100
63	340
64	50
65	240
66	20
68	10
69	90
74	100
75	150
76	220
77	200
78	70
79	20
82	290
85	10
86	70
87	130
88	130
89	460
90	50
91	961
92	80
94	290
98	40
99	40
100	30
101	50
102	120
103	60
104	20
105	10
106	10
109	20
110	30
111	40
112	10
113	100
115	4744
116	781
117	160
118	20
122	10
123	10
124	10
125	20
126	130
127	120
128	310
129	40
130	20
133	10
134	10
137	40
138	30
139	330
140	50
141	120
142	20
143	10
146	20
149	20
150	150
151	290
152	751
153	180
154	30
161	20
162	70
163	370
164	330
165	1862
166	340
167	50
168	10
174	20
175	40
176	390
177	330
178	4364
179	1261
180	150
181	10
185	10
186	20
187	160
188	150
189	1461
190	641
191	1792
192	1251
193	9999
194	2122
195	210
196	10
202	10
203	20
204	30
205	10
206	10
208	10
216	10
217	20
218	20
219	40
220	20
237	1692
238	290
239	30
