Mass Spectrum: Sulfathiazole
Formula: C9 H9 N3 O2 S2
CAS: 72-14-0
Molecular weight: 255
Origin: Japan AIST/NIMC Database- Spectrum MS-NW-3355
m/z	RELATIVE INTENSITY
12	20
13	20
14	30
15	70
16	20
17	59
18	229
25	20
26	129
27	449
28	499
29	70
30	60
32	49
33	50
34	70
36	20
37	99
38	379
39	1849
40	319
41	699
42	259
43	129
44	179
45	2009
46	219
47	129
48	229
49	30
50	189
51	239
52	569
53	349
54	289
55	2059
56	90
57	239
58	749
59	139
60	109
61	109
62	239
63	679
64	619
65	5819
66	1019
67	139
68	50
69	139
70	159
71	229
72	119
73	179
74	99
75	90
76	80
77	60
78	109
79	80
80	559
81	139
82	30
83	40
84	40
85	60
86	30
87	20
88	20
89	40
90	139
91	509
92	9999
93	2179
94	149
95	119
96	90
97	99
98	80
99	479
100	509
101	80
102	30
103	20
104	60
105	60
106	50
107	60
108	5739
109	569
110	50
111	30
112	60
113	20
114	10
115	10
116	10
117	40
118	119
119	199
120	20
121	20
122	30
123	139
124	239
125	299
126	40
127	20
128	10
129	20
130	10
131	80
132	80
133	40
134	10
135	10
136	129
137	30
138	20
139	10
140	1569
141	169
142	99
143	10
145	10
146	30
147	90
148	20
149	50
150	20
151	10
154	10
155	10
156	6299
157	709
158	369
159	40
161	10
163	80
164	149
165	30
166	10
167	10
170	10
172	10
173	10
174	10
189	30
190	589
191	6539
192	779
193	359
194	40
255	619
256	80
257	70
258	10
