Mass Spectrum: Methaqualone
Formula: C16 H14 N2 O
CAS: 72-44-6
Molecular weight: 250
Origin: NIST Mass Spectrometry Data Center
m/z	RELATIVE INTENSITY
15	10
26	20
27	80
28	40
29	10
37	30
38	80
39	550
40	60
41	150
42	100
43	40
49	10
50	721
51	520
52	200
53	80
54	10
58	60
61	20
62	140
63	581
64	320
65	1702
66	120
67	10
72	30
74	180
75	380
76	1601
77	1291
78	360
79	110
80	10
83	10
85	10
86	10
87	30
88	60
89	991
90	1061
91	3984
92	410
93	20
95	50
97	30
98	10
99	10
100	10
101	40
102	540
104	561
106	40
107	60
108	10
110	80
113	20
114	30
115	80
116	631
117	731
118	130
119	80
120	190
121	20
124	60
125	190
127	70
128	90
129	60
130	260
131	100
132	1531
133	160
134	10
137	10
138	10
139	60
140	80
141	20
142	40
143	1031
144	260
145	160
146	100
147	10
150	20
151	100
152	240
153	90
154	70
155	20
156	10
157	30
158	10
159	10
163	20
164	40
165	140
166	80
167	40
168	20
169	10
173	10
176	10
177	50
178	110
179	130
180	340
181	70
182	20
183	10
189	10
190	120
191	50
192	60
193	60
194	30
195	30
196	10
203	10
204	40
205	180
206	270
207	230
208	180
209	40
216	20
217	300
218	100
219	60
220	30
221	120
222	20
231	30
232	110
233	2873
234	751
235	9999
236	1722
237	160
238	10
247	20
248	30
249	701
250	3083
251	550
252	50
