Mass Spectrum: Methoxychlor
Formula: C16 H15 Cl3 O2
CAS: 72-43-5
Molecular weight: 344
Origin: NIST Mass Spectral Data Center
m/z	RELATIVE INTENSITY
115	170
141	270
152	340
153	300
165	210
169	460
180	100
181	270
182	110
183	120
184	440
195	500
196	611
197	270
211	110
212	801
213	110
223	180
224	170
227	9999
228	1611
229	210
238	280
239	220
274	210
344	230
346	270
