Mass Spectrum: Benzene, 1,1'-(2,2-dichloroethylidene)bis[4-ethyl-
Formula: C18 H20 Cl2
CAS: 72-56-0
Molecular weight: 306
Origin: R RYHAGE MS-LAB KAROLINSKA INSTITUTET STOCKHOLM SWEDEN
m/z	RELATIVE INTENSITY
12	24
14	3
15	78
16	30
25	54
26	110
27	170
29	107
30	18
32	155
35	12
36	140
37	45
38	69
39	221
40	30
41	149
42	24
43	128
44	185
45	21
48	18
49	27
50	95
51	191
52	57
53	48
54	15
55	18
56	113
57	101
62	24
63	116
64	18
65	110
66	24
67	36
69	12
70	24
74	39
75	113
76	155
77	346
78	152
79	60
80	24
81	18
82	60
83	78
84	54
85	15
86	48
87	48
88	89
89	447
90	173
91	438
92	18
93	18
94	39
95	158
96	72
97	24
98	21
99	33
100	21
101	119
102	164
103	474
104	331
105	227
106	21
107	27
108	24
109	39
110	42
111	18
113	42
114	42
115	361
116	89
117	60
118	24
119	75
120	57
123	24
124	15
125	63
126	36
127	152
128	200
129	212
130	54
131	60
132	30
136	27
138	48
139	69
140	27
141	42
142	27
143	21
144	21
146	21
149	27
150	33
151	206
152	152
153	203
154	36
155	36
157	24
162	21
163	72
164	51
165	707
166	289
167	939
168	173
169	36
175	45
176	86
177	125
178	725
179	948
180	185
181	57
185	30
187	39
188	45
189	233
190	149
191	444
192	271
193	608
194	525
195	301
196	45
197	33
199	21
200	42
201	63
202	161
203	149
204	161
205	152
206	203
207	286
208	191
209	39
212	24
213	66
215	78
216	18
217	21
218	21
219	98
220	48
221	632
222	274
223	9999
224	1855
225	188
226	21
227	30
229	21
233	15
234	45
235	170
236	728
237	149
238	36
241	21
242	18
243	27
245	18
253	24
255	137
256	39
257	63
258	18
269	27
270	245
271	57
272	101
273	45
274	12
306	248
307	69
308	161
309	51
310	36
