Mass Spectrum: Nortriptyline
Formula: C19 H21 N
CAS: 72-69-5
Molecular weight: 263
Origin: Tox21 Consortium/NIST Mass Spectrometry Data Center, 2012
m/z	RELATIVE INTENSITY
15	10
18	20
27	20
28	60
29	10
30	20
39	40
40	10
41	20
42	120
44	9999
45	260
50	10
51	40
52	10
53	10
56	20
57	30
58	10
62	10
63	50
64	10
65	50
68	10
70	50
74	10
75	30
76	30
77	60
78	20
81	10
82	10
86	10
87	20
88	20
89	60
90	10
91	240
92	20
95	30
96	10
98	10
99	10
100	20
101	60
102	40
103	30
104	10
105	10
107	20
108	20
113	20
114	20
115	200
116	30
117	20
126	30
127	50
128	90
129	30
130	10
137	10
139	60
140	10
141	70
142	10
150	30
151	50
152	110
153	30
154	10
155	10
161	10
162	10
163	60
164	40
165	150
166	30
174	10
175	10
176	60
177	30
178	170
179	50
180	10
187	40
188	30
189	240
190	90
191	140
192	40
193	20
200	50
201	60
202	540
203	440
204	220
205	70
206	10
211	10
213	60
214	20
215	240
216	80
217	170
218	120
219	160
220	220
221	40
226	10
227	10
228	10
229	10
230	10
231	10
232	10
233	10
261	10
263	60
264	10
