Mass Spectrum: Chlorquinaldol
Formula: C10 H7 Cl2 N O
CAS: 72-80-0
Molecular weight: 227
Origin: NIST Mass Spectrometry Data Center, 1998.
m/z	RELATIVE INTENSITY
26	40
27	120
29	10
35	20
36	60
37	100
38	150
39	310
40	40
41	50
42	150
43	30
47	30
49	180
50	570
51	840
52	330
53	270
54	50
55	20
56	30
60	70
61	470
62	530
63	560
64	530
66	20
67	40
68	220
69	80
70	20
71	30
72	120
73	350
74	570
75	930
76	450
77	590
78	110
82	490
83	190
84	160
85	310
86	600
87	660
88	280
89	100
90	30
95	10
96	120
97	410
98	340
99	830
100	700
101	1070
102	810
103	90
104	30
107	70
108	30
109	220
110	130
111	230
112	90
114	250
116	10
121	150
122	60
123	150
124	100
125	40
126	240
127	570
128	1850
129	760
130	60
131	30
133	70
134	20
135	120
136	510
137	210
138	190
139	80
145	60
147	50
148	140
149	60
150	40
156	160
157	130
158	40
159	60
160	30
161	50
162	370
163	1020
164	2960
165	600
166	870
167	70
171	30
172	90
173	30
174	70
175	90
177	90
183	20
184	300
185	30
186	160
190	30
191	110
192	360
193	80
194	90
197	20
198	680
199	2330
200	680
201	1520
202	150
203	200
226	50
227	9999
228	1250
229	6329
230	770
231	1030
232	110
