Mass Spectrum: Methyl biphenyl-4-carboxylate
Formula: C14 H12 O2
CAS: 720-75-2
Molecular weight: 212
Origin: NIST Mass Spectrometry Data Center, 1994
m/z	RELATIVE INTENSITY
4	11
14	9
15	223
16	10
18	7
26	18
27	73
28	119
29	80
30	26
31	51
37	9
38	39
39	120
40	4
50	203
51	288
52	59
53	18
59	42
61	20
62	99
63	332
65	22
69	7
70	6
74	185
76	1247
78	34
85	15
86	57
87	106
88	45
89	54
90	438
92	47
97	11
98	63
99	68
100	35
101	117
102	172
103	31
106	70
110	23
111	28
113	50
114	28
115	90
116	12
122	16
123	12
124	10
125	67
126	322
127	321
128	50
129	10
139	73
140	22
141	45
150	387
151	1164
152	4292
153	2732
154	320
155	28
165	56
166	31
167	171
168	61
169	47
179	18
181	9999
182	1450
183	123
184	10
194	7
196	20
197	17
212	6223
213	962
214	87
