Mass Spectrum: 2,4-Pentadienoic acid, 5-(1-hydroxy-2,6,6-trimethyl-4-oxo-2-cyclohexen-1-yl)-3-methyl-, methyl ester, (R)-(Z,E)-
Formula: C16 H22 O4
CAS: 7200-31-9
Molecular weight: 278
Origin: N.W. DAVIES, UNIVERSITY OF TASMANIA, TASMANIA, AUSTRALIA
m/z	RELATIVE INTENSITY
27	170
38	290
39	770
41	1310
42	170
43	470
51	230
53	350
55	410
59	290
61	470
63	290
65	710
66	650
67	590
68	470
69	470
74	350
77	650
79	530
80	350
81	110
82	110
83	350
87	290
91	1430
92	230
93	350
94	350
95	350
96	530
97	290
103	350
105	530
106	530
107	530
108	350
109	170
110	230
111	110
112	1250
115	230
116	290
117	230
118	290
119	650
120	290
121	290
122	350
123	350
124	230
125	2910
126	410
127	230
128	110
131	290
133	290
134	2850
135	530
136	170
137	110
139	290
144	350
145	470
146	470
147	650
148	290
149	290
151	290
152	410
159	290
161	1130
162	2670
163	710
164	230
165	290
172	230
173	290
175	410
176	290
189	110
190	9999
191	1250
194	230
203	290
204	290
205	530
211	290
222	350
235	230
245	290
246	350
247	290
260	350
