Mass Spectrum: 1,4-Pentadiene, 2,3,4-trimethyl-
Formula: C8 H14
CAS: 72014-90-5
Molecular weight: 110
Origin: D.HENNEBERG, MAX-PLANCK INSTITUTE, MULHEIM, WEST GERMANY
m/z	RELATIVE INTENSITY
26	67
27	619
28	145
29	608
30	18
31	101
32	5
36	3
37	8
38	19
39	1433
40	293
41	3659
42	487
43	351
45	41
47	21
48	8
49	3
50	25
51	127
52	114
53	1114
54	345
55	2676
56	540
57	155
58	10
59	63
63	24
64	17
65	234
66	98
67	3674
68	453
69	611
70	300
71	27
72	5
73	5
74	29
75	9
76	7
77	442
78	100
79	489
80	234
81	393
82	63
83	47
84	107
85	17
86	4
89	7
90	3
91	210
92	26
93	533
94	85
95	9999
96	774
97	45
98	6
103	4
105	6
107	18
108	10
109	140
110	221
111	64
112	18
