Mass Spectrum: 2(1H)-Pyridinone, 3-acetyl-4-hydroxy-1,6-dimethyl-
Formula: C9 H11 N O3
CAS: 7202-55-3
Molecular weight: 181
m/z	RELATIVE INTENSITY
51	130
52	200
53	430
54	300
55	631
56	2102
57	70
58	100
63	70
65	70
66	100
67	400
68	230
69	701
70	130
77	70
78	70
79	70
80	100
81	70
82	931
83	100
94	30
95	30
96	400
97	170
98	1571
99	100
108	70
109	70
110	330
111	170
123	230
125	230
134	70
135	70
136	100
138	571
139	300
152	270
153	100
163	100
164	200
165	330
166	9999
167	1171
168	170
181	6176
182	931
183	130
