Mass Spectrum: Benzene, 1-chloro-4-[(chloromethyl)thio]-
Formula: C7 H6 Cl2 S
CAS: 7205-90-5
Molecular weight: 192
Origin: RADIAN CORP
m/z	RELATIVE INTENSITY
37	40
38	100
45	1570
46	70
47	140
49	170
50	290
51	150
58	130
61	30
63	140
69	190
73	110
74	70
75	620
76	120
77	340
78	390
81	10
82	50
85	120
89	40
99	240
101	90
107	90
108	1500
109	220
110	250
111	290
112	190
113	170
121	460
122	520
123	180
125	130
142	110
143	780
144	140
145	340
146	40
155	200
157	9999
158	990
159	3510
160	290
161	120
192	1100
193	270
194	840
195	100
196	120
