Mass Spectrum: 4-Dodecene, (Z)-
Formula: C12 H24
CAS: 7206-27-1
Molecular weight: 168
Origin: S.A. Rang et al., IR & MS of Unsatd. Hydrocarbons, 1977
m/z	RELATIVE INTENSITY
15	37
16	6
25	17
26	118
27	1986
28	417
29	3195
30	76
31	7
37	13
38	30
39	1549
40	290
41	8261
42	2764
43	6739
44	219
45	6
50	27
51	81
52	72
53	745
54	1668
55	9999
56	6739
57	3714
58	157
59	6
63	10
64	6
65	145
66	125
67	1340
68	745
69	6304
70	5000
71	1221
72	61
77	110
78	29
79	165
80	49
81	415
82	655
83	3541
84	2505
85	685
86	40
91	34
92	6
93	17
94	6
95	91
96	251
97	1846
98	1013
99	91
100	5
109	19
110	98
111	745
112	353
113	36
123	6
124	34
125	227
126	141
127	16
138	12
139	47
140	157
141	20
166	6
168	1638
169	212
170	15
