Mass Spectrum: 6-Dodecene, (Z)-
Formula: C12 H24
CAS: 7206-29-3
Molecular weight: 168
Origin: NIST Mass Spectrometry Data Center
m/z	RELATIVE INTENSITY
11	40
12	50
14	10
15	110
16	60
17	10
18	110
27	3043
28	1231
29	4924
30	120
32	190
37	40
39	3103
40	500
41	9469
42	2102
43	3823
44	170
50	90
51	270
52	230
53	1171
54	2492
55	9999
56	6206
57	3663
58	200
63	60
65	350
66	200
67	1842
68	1021
69	9158
70	5745
71	1211
72	60
77	280
79	340
81	540
82	971
83	4194
84	2482
85	601
91	70
95	110
96	410
97	2442
98	971
99	90
110	180
111	951
112	360
124	60
125	230
126	90
140	170
168	2072
169	220
