Mass Spectrum: 4-Dodecene, (E)-
Formula: C12 H24
CAS: 7206-15-7
Molecular weight: 168
Origin: D.HENNEBERG, MAX-PLANCK INSTITUTE, MULHEIM, WEST GERMANY
m/z	RELATIVE INTENSITY
22	30
24	87
25	75
26	42
27	2405
28	623
29	3129
30	64
33	39
35	29
36	102
39	2127
40	364
41	8164
42	2235
43	5536
44	340
45	15
49	53
50	65
51	132
52	99
53	894
54	1741
55	9999
56	5950
57	3290
58	85
62	76
63	6
64	14
65	268
66	231
67	1573
68	807
69	5449
70	3549
71	964
77	55
78	129
79	241
80	121
81	330
82	593
83	2822
84	1838
85	506
86	31
91	40
95	207
96	330
97	1239
98	568
99	77
110	96
111	325
112	350
125	114
126	46
140	83
167	24
168	580
169	15
