Mass Spectrum: 5-Octadecene, (E)-
Formula: C18 H36
CAS: 7206-21-5
Molecular weight: 252
Origin: D.HENNEBERG, MAX-PLANCK INSTITUTE, MULHEIM, WEST GERMANY
m/z	RELATIVE INTENSITY
23	2
24	6
25	18
26	76
27	948
28	183
29	2330
30	61
31	21
32	10
33	11
34	3
35	20
36	12
37	42
38	30
39	689
40	152
41	5574
42	1273
43	6371
44	121
47	7
48	6
49	16
50	33
51	52
52	43
53	404
54	1586
55	9999
56	5004
57	6741
58	273
59	8
60	7
61	4
62	6
63	18
64	5
65	101
66	132
67	1474
68	999
69	6143
70	4174
71	2918
72	140
74	4
75	9
77	88
78	42
79	182
80	94
81	749
82	1332
83	5481
84	2157
85	1447
86	83
91	38
92	11
93	38
94	21
95	289
96	702
97	4192
98	1220
99	280
100	16
105	11
106	1
109	98
110	280
111	1750
112	664
113	131
123	49
124	130
125	700
126	328
127	52
137	13
138	68
139	222
140	192
141	28
152	42
153	96
154	98
155	12
166	23
167	45
168	57
169	7
180	14
181	29
182	28
195	12
196	17
224	21
250	4
252	267
253	49
