Mass Spectrum: 3-Dodecene, (E)-
Formula: C12 H24
CAS: 7206-14-6
Molecular weight: 168
Origin: NIST Mass Spectrometry Data Center, 1990.
m/z	RELATIVE INTENSITY
27	2079
28	1010
29	2872
32	147
39	2619
41	9999
42	2249
43	4233
44	218
51	222
52	197
53	1171
54	1448
55	7813
56	6105
57	4154
58	171
65	301
66	244
67	2107
68	1219
69	8293
70	5799
71	1294
77	194
79	279
81	516
82	1076
83	4043
84	2440
85	597
95	123
96	525
97	2368
98	997
110	174
111	1090
112	377
125	336
126	144
140	237
168	2267
169	283
