Mass Spectrum: N-Acryloylsarcosine methyl ester
Formula: C7 H11 N O3
CAS: 72065-23-7
Molecular weight: 157
Origin: NIST Mass Spectrometry Data Center
m/z	RELATIVE INTENSITY
12	10
14	90
15	1531
16	20
18	100
25	60
26	520
27	2963
28	340
29	470
30	230
31	100
33	10
37	10
38	50
39	80
40	120
41	470
42	3063
43	921
44	6005
45	370
46	10
51	10
52	20
53	160
55	9999
56	440
57	50
58	170
59	360
66	10
67	10
68	90
69	480
70	70
71	10
72	30
73	20
74	60
84	40
85	10
86	10
88	10
98	5025
99	300
100	40
102	1161
103	50
116	10
125	741
126	190
127	20
157	490
158	30
