Mass Spectrum: 3-Octadecene, (E)-
Formula: C18 H36
CAS: 7206-19-1
Molecular weight: 252
Origin: D.HENNEBERG, MAX-PLANCK INSTITUTE, MULHEIM, WEST GERMANY
m/z	RELATIVE INTENSITY
22	11
23	4
24	9
25	29
26	99
27	1010
28	180
29	3049
30	84
31	24
32	16
33	14
34	5
35	22
36	17
37	68
38	48
39	889
40	213
41	9637
42	1916
43	9101
44	201
45	11
46	5
47	10
48	6
49	16
50	50
51	58
52	53
53	532
54	1344
55	9678
56	6027
57	9817
58	383
60	5
62	8
63	20
64	5
65	107
66	205
67	1989
68	1741
69	9999
70	5688
71	4221
72	202
73	4
74	3
75	3
76	7
77	80
78	37
79	183
80	88
81	905
82	1919
83	7308
84	3164
85	2178
86	123
91	42
92	18
93	34
94	18
95	372
96	971
97	5801
98	1691
99	407
100	18
105	9
107	4
108	2
109	118
110	404
111	2719
112	945
113	198
123	55
124	202
125	1050
126	472
127	102
128	1
137	20
138	95
139	336
140	283
141	45
152	53
153	144
154	166
155	19
166	22
167	70
168	101
169	14
180	20
181	28
182	59
183	6
195	16
196	22
209	6
210	6
224	42
250	7
252	360
253	63
