Mass Spectrum: 6-Dodecene, (E)-
Formula: C12 H24
CAS: 7206-17-9
Molecular weight: 168
Origin: D.HENNEBERG, MAX-PLANCK INSTITUTE, MULHEIM, WEST GERMANY
m/z	RELATIVE INTENSITY
25	36
26	112
27	1465
29	2912
30	104
31	20
32	127
35	50
36	28
38	62
39	1246
40	169
41	6480
42	2033
43	4076
45	14
46	22
47	8
48	8
49	24
50	33
51	103
52	43
53	582
54	1437
55	9999
56	6084
57	3072
58	78
63	40
64	13
65	125
66	97
67	947
68	617
69	8597
70	4396
71	913
72	62
73	11
77	78
78	17
79	131
80	33
81	317
82	507
83	2854
84	2087
85	358
86	26
91	42
95	131
96	174
97	1492
98	683
99	30
110	78
111	500
112	233
113	36
125	92
126	67
139	55
140	68
168	976
169	165
