Mass Spectrum: Oxazole, 2,4-dimethyl-
Formula: C5 H7 N O
CAS: 7208-05-1
Molecular weight: 97
m/z	RELATIVE INTENSITY
29	601
31	2702
32	300
38	200
39	400
40	400
41	901
42	4004
43	400
52	200
53	200
54	500
55	2002
56	801
66	300
68	3403
69	2202
70	200
96	200
97	9999
98	601
