Mass Spectrum: 5-Methyl-1-heptanol
Formula: C8 H18 O
CAS: 7212-53-5
Molecular weight: 130
Origin: NIST Mass Spectrometry Data Center, 1990.
m/z	RELATIVE INTENSITY
27	1734
28	1114
29	3053
31	2086
39	1729
41	5781
42	1302
43	2114
44	321
45	277
53	461
55	9999
56	3664
57	2378
67	593
69	1886
70	3536
71	462
73	821
81	165
82	1108
83	5956
84	1550
85	159
97	465
