Mass Spectrum: 2H-1,5-Benzodioxepin, 3,4-dihydro-
Formula: C9 H10 O2
CAS: 7216-18-4
Molecular weight: 150
m/z	RELATIVE INTENSITY
40	1501
41	6005
42	1501
44	1802
50	1802
51	2602
52	6206
53	1201
54	500
55	601
60	300
61	300
62	300
63	3203
64	3003
65	2002
66	1301
77	300
78	200
79	500
80	6005
81	2002
82	300
91	400
108	601
109	4004
110	1802
121	9999
122	4004
123	400
135	500
150	9999
151	1401
