Mass Spectrum: Benzenethiol, 2-methoxy-
Formula: C7 H8 O S
CAS: 7217-59-6
Molecular weight: 140
Origin: NIST Mass Spectrometry Data Center
m/z	RELATIVE INTENSITY
14	20
15	160
25	10
26	40
27	90
28	20
29	80
30	20
31	20
32	20
33	20
34	10
36	10
37	90
38	210
39	530
40	20
41	40
42	10
43	10
44	20
45	861
46	40
47	100
48	60
49	50
50	310
51	420
52	200
53	891
54	50
55	40
56	10
57	80
58	130
59	40
60	20
61	110
62	230
63	540
64	190
65	831
66	180
67	80
68	50
69	1101
70	631
71	300
72	50
73	50
74	150
75	100
76	70
77	611
78	210
79	150
80	30
81	210
82	210
83	80
84	80
85	50
86	10
92	200
93	320
94	150
95	651
96	651
97	5085
98	370
99	250
100	10
104	10
105	30
106	30
107	140
108	350
109	781
110	260
111	480
112	50
113	20
114	10
121	70
122	10
123	30
125	7297
126	581
127	380
128	20
137	110
138	30
140	9999
141	961
142	550
143	40
