Mass Spectrum: 4-tert-Butyl-1(1-thioxo-2,2-dimethyl-propyl)-benzene
Formula: C15 H22 S
CAS: 72194-24-2
Molecular weight: 234
Origin: ASES Database, Dalian Institute, P.R. China
m/z	RELATIVE INTENSITY
29	580
39	400
41	1221
57	1000
91	300
115	300
147	900
161	1491
162	1291
163	500
177	9999
178	1291
179	600
234	1000
