Mass Spectrum: 4,4'-Diaminodiphenyl disulphide
Formula: C12 H12 N2 S2
CAS: 722-27-0
Molecular weight: 248
Origin: J. MADSEN,DEP. ORG. CHEM.,TECH. UNIV. DENMARK,LYNGBY,DENMARK
m/z	RELATIVE INTENSITY
38	40
39	270
40	120
41	90
42	50
44	50
45	230
47	20
50	20
51	60
52	160
53	450
54	180
58	30
60	40
62	50
63	180
64	70
65	190
66	70
67	100
69	150
70	140
71	80
78	40
79	40
80	2030
81	240
82	30
84	40
90	70
91	130
92	70
93	230
95	40
96	140
97	410
98	90
99	30
108	30
122	40
123	250
124	9999
125	3630
126	660
127	160
156	30
216	40
246	30
248	4270
249	660
250	420
251	50
