Mass Spectrum: Aflatoxin B2
Formula: C17 H14 O6
CAS: 7220-81-7
Molecular weight: 314
Origin: R.L.FOLTZ BATTELLE MEMORIAL INST., COLUMBUS LAB., OHIO, USA
m/z	RELATIVE INTENSITY
15	119
16	30
26	252
27	328
28	144
29	264
30	76
31	42
32	30
36	139
38	64
39	212
40	60
41	205
42	101
43	56
44	77
45	116
47	40
49	27
50	20
51	264
52	8
53	166
55	353
56	132
57	223
59	31
60	89
62	65
63	125
64	132
65	140
67	71
68	33
69	217
70	93
71	188
74	51
75	38
76	128
77	284
78	80
79	182
80	30
81	123
82	65
83	125
85	95
86	37
88	65
89	51
91	196
92	60
93	68
95	78
97	86
100	139
102	72
103	35
105	65
106	30
107	57
115	418
117	37
121	51
127	69
128	186
129	109
141	29
143	127
145	49
147	33
149	41
171	29
173	38
185	30
187	125
197	155
198	41
199	29
201	95
202	68
203	40
213	97
214	185
215	261
225	87
226	42
227	63
228	66
229	247
230	58
241	83
242	119
243	352
246	41
247	40
253	108
255	68
256	150
257	196
258	112
268	46
269	293
270	229
271	3832
272	773
273	110
283	334
284	186
285	1692
286	538
287	57
297	210
299	441
300	68
313	185
314	9999
315	2058
316	269
