Mass Spectrum: Oxirane, 2-methyl-2-(1-methylethyl)-
Formula: C6 H12 O
CAS: 72221-03-5
Molecular weight: 100
Origin: A.QUAYLE SHELL LTD., THORNTON RES. CENT., CHESTER, CHES., UK
m/z	RELATIVE INTENSITY
29	2411
30	593
31	834
38	278
39	1484
40	779
41	3200
42	510
43	9999
45	398
52	463
53	463
54	213
55	1354
56	955
57	2486
58	7606
59	408
60	222
66	417
71	2857
85	760
100	918
