Mass Spectrum: 3,4-Difluorobenzylamine
Formula: C7 H7 F2 N
CAS: 72235-53-1
Molecular weight: 143
Origin: Chuck Anderson, Aldrich Chemical Co.
m/z	RELATIVE INTENSITY
26	33
27	132
28	6343
29	2163
30	5214
31	419
39	352
41	59
44	73
45	98
46	74
48	169
49	84
50	641
51	739
52	285
54	58
56	188
57	668
58	35
61	433
62	641
63	1868
64	189
65	79
68	396
69	302
70	268
71	288
72	48
73	84
74	406
75	981
76	190
77	362
78	32
80	110
81	430
82	59
83	81
85	33
86	57
87	152
88	352
89	77
92	135
93	305
94	241
95	1061
96	587
97	208
99	146
100	115
101	745
102	116
105	64
107	594
108	18
112	141
113	1061
114	1115
115	2029
116	146
120	150
122	1653
123	9999
124	1518
125	651
126	196
127	2714
128	178
139	99
140	1088
142	7902
143	1505
144	95
