Mass Spectrum: 1,4-Diphenyl-1-pentanone
Formula: C17 H18 O
CAS: 72256-08-7
Molecular weight: 238
Origin: F. TURECEK,HEYROVSKY INST PHYS CHEM & ELECTROCHEM,PRAGUE,CZECH
m/z	RELATIVE INTENSITY
26	100
27	700
29	500
39	700
40	100
41	900
42	100
43	700
44	100
50	400
51	1400
52	200
53	200
55	800
56	300
57	800
63	300
64	200
65	500
66	100
67	400
68	100
69	600
70	200
71	600
75	100
76	300
77	4300
78	1800
79	1000
80	200
81	200
82	100
83	500
84	100
85	400
89	200
91	1000
92	300
93	200
94	100
95	400
96	100
97	400
98	100
99	100
102	160
103	700
104	400
105	6400
106	600
107	200
109	300
110	100
111	200
115	600
116	200
117	1300
118	4700
119	1700
120	9999
121	1000
122	100
123	170
125	150
127	100
128	200
129	300
130	150
131	250
132	250
133	300
157	180
158	140
159	100
165	150
167	150
168	140
169	150
178	150
179	150
205	200
220	250
238	1000
239	240
