Mass Spectrum: Heptadecane, 9-octyl-
Formula: C25 H52
CAS: 7225-64-1
Molecular weight: 352
m/z	RELATIVE INTENSITY
37	20
38	30
39	480
40	120
41	4154
42	851
43	9178
44	310
45	10
46	10
48	10
49	10
50	20
51	30
52	20
53	190
54	320
55	3103
56	1351
57	9999
58	460
59	10
60	10
61	10
62	10
63	10
65	40
66	30
67	370
68	290
69	1672
70	821
71	6286
72	350
73	10
74	10
75	10
76	10
77	60
78	10
79	80
80	30
81	170
82	250
83	1121
84	450
85	4274
86	290
87	10
89	10
90	10
91	50
92	30
93	140
94	30
95	70
96	150
97	781
98	270
99	1371
100	110
101	10
102	10
103	10
104	10
105	20
106	10
107	20
108	10
109	20
110	90
111	430
112	210
113	891
114	80
115	10
116	10
117	10
118	10
119	10
120	10
121	30
122	10
123	10
124	60
125	250
126	140
127	641
128	60
129	10
130	10
131	10
132	10
133	10
134	10
135	10
136	10
137	10
138	50
139	140
140	100
141	480
142	50
143	10
144	10
145	10
146	10
147	10
148	10
149	10
151	10
152	30
153	70
154	80
155	390
156	50
157	10
158	10
159	10
160	10
161	10
163	10
164	10
165	10
166	20
167	50
168	50
169	290
170	40
171	10
179	10
180	10
181	40
182	40
183	190
184	30
185	10
186	10
187	10
192	10
193	10
194	10
195	20
196	30
197	90
198	10
199	10
200	10
201	10
202	10
204	10
205	10
207	10
208	10
209	10
210	70
211	30
212	10
213	10
223	10
224	30
225	30
226	10
227	10
234	10
235	10
236	10
237	10
238	741
239	771
240	140
241	10
242	10
251	10
252	30
253	40
254	10
255	10
265	10
266	10
267	20
268	10
269	10
280	10
281	10
282	10
294	10
295	10
296	10
308	10
309	10
310	10
323	10
352	10
