Mass Spectrum: Undecane, 1-cyclohexyl-3-(2-cyclohexylethyl)-
Formula: C25 H48
CAS: 7225-69-6
Molecular weight: 348
Origin: GULF R. ' D. CO., PITTSBURGH, PA, USA
m/z	RELATIVE INTENSITY
15	31
16	3
17	31
18	110
20	3
24	2
25	6
26	35
27	468
28	516
29	1119
30	26
31	3
37	4
38	9
39	292
40	64
41	3082
42	304
43	1980
44	67
45	4
50	7
51	13
52	12
53	193
54	453
55	5167
56	513
57	1724
58	84
59	5
60	3
65	32
66	52
67	1042
68	321
69	2026
70	267
71	881
72	84
73	4
74	6
75	4
76	3
77	132
78	42
79	319
80	168
81	1823
82	1566
83	9999
84	805
85	987
86	67
87	4
89	2
90	1
91	86
92	29
93	97
94	76
95	811
96	2411
97	5814
98	521
99	232
100	27
101	4
102	2
103	3
104	4
105	16
106	7
107	30
108	62
109	707
110	346
111	2344
112	240
113	105
114	9
115	4
116	3
117	7
118	9
119	8
120	3
121	29
122	15
123	197
124	89
125	1074
126	137
127	61
128	11
129	4
130	2
131	3
132	2
133	5
134	3
135	22
136	32
137	169
138	135
139	793
140	113
141	78
142	11
143	3
144	1
145	3
146	3
147	4
148	4
149	9
150	19
151	120
152	84
153	453
154	130
155	100
156	13
157	6
158	3
159	4
160	1
161	7
162	1
163	4
164	4
165	71
166	23
167	174
168	30
169	17
170	3
171	1
175	1
176	1
177	4
178	4
179	61
180	22
181	110
182	17
183	4
189	3
190	1
191	3
192	13
193	17
194	30
195	55
196	8
197	2
198	3
199	5
200	7
201	4
202	10
203	1
204	2
205	2
206	40
207	24
208	78
209	32
210	4
220	27
221	47
222	50
223	54
224	9
231	3
232	3
233	4
234	1093
235	1842
236	2241
237	2273
238	389
239	35
245	3
246	3
247	3
248	22
249	38
250	50
251	58
252	11
253	4
261	2
262	7
263	11
264	47
265	38
266	7
276	3
277	4
278	7
279	4
280	2
291	1
292	4
344	4
345	1
346	7
347	4
348	19
349	6
