Mass Spectrum: Undecane, 1-(1-naphthyl)-
Formula: C21 H30
CAS: 7225-71-0
Molecular weight: 282
Origin: CONTINENTAL OIL CO., PONCA CITY, OKLA, USA
m/z	RELATIVE INTENSITY
13	3
14	15
15	60
16	4
25	4
26	37
27	817
28	251
29	1448
30	34
31	2
32	4
36	4
37	7
38	14
39	364
40	66
41	1438
42	189
43	1235
44	42
45	2
50	22
51	62
52	19
53	77
54	26
55	444
56	59
57	248
58	13
61	2
62	14
63	74
64	13
65	52
66	16
67	96
68	9
69	23
71	51
72	6
73	4
74	42
75	67
76	53
77	99
78	28
79	15
80	4
81	17
82	13
83	31
84	8
85	20
86	17
87	37
88	22
89	71
90	10
91	83
92	10
95	18
97	11
98	12
99	13
100	10
101	40
102	58
103	15
104	7
105	15
106	4
109	5
110	5
111	8
112	7
113	36
114	50
115	1140
116	124
117	17
118	7
119	10
120	4
125	14
126	85
127	248
128	637
129	261
130	49
131	21
132	6
133	6
138	41
139	374
140	208
141	9999
142	3219
143	324
144	32
145	21
146	8
147	5
149	6
150	21
151	83
152	325
153	539
154	697
155	585
156	97
157	14
158	4
159	4
163	17
164	19
165	163
166	61
167	201
168	85
169	87
170	26
171	5
176	7
177	6
178	24
179	22
180	9
181	24
182	24
183	46
184	10
187	4
189	5
190	3
191	5
193	4
195	5
196	11
197	9
202	4
203	3
204	3
207	3
210	17
211	5
215	3
217	3
224	6
225	3
226	4
238	5
239	5
240	5
250	4
252	13
253	15
254	16
255	4
266	3
267	3
268	9
272	9
273	4
280	35
282	6024
283	1389
284	153
285	11
