Mass Spectrum: Indole-2,3-dione, 1-phenyl-
Formula: C14 H9 N O2
CAS: 723-89-7
Molecular weight: 223
Origin: NIST Mass Spectrometry Data Center, 1994
m/z	RELATIVE INTENSITY
17	22
18	108
26	57
27	291
37	285
38	587
39	1410
40	102
41	5
49	101
50	1915
51	4202
52	360
53	114
61	146
62	434
63	1272
64	1279
65	288
66	43
71	490
73	73
74	393
75	606
76	831
77	3275
78	258
83	247
84	1107
86	59
87	117
88	193
89	206
90	402
91	217
92	1554
93	95
97	66
98	335
99	31
100	37
101	63
102	292
103	48
104	67
113	213
114	135
115	261
116	65
117	42
126	40
127	50
128	51
130	41
138	111
139	1055
140	954
141	178
146	33
164	123
165	138
166	1834
167	4003
168	568
169	45
195	9999
196	1501
197	134
223	1728
224	266
225	44
