Mass Spectrum: 2-Ethyl-5-n-propylphenol
Formula: C11 H16 O
CAS: 72386-20-0
Molecular weight: 164
Origin: J.MACAK, DEP. COKE GAS TECH., PRAGUE INST. CHEM. TECH., CZEC
m/z	RELATIVE INTENSITY
39	1500
40	200
41	1400
43	1000
50	300
51	1100
52	400
53	700
55	900
63	600
65	1100
67	300
69	200
77	2100
78	600
79	1500
89	300
90	200
91	3300
92	1000
93	1000
103	700
105	700
107	3300
108	400
115	1300
116	400
117	700
119	200
120	1100
121	3400
122	600
128	200
131	200
133	700
134	300
135	9999
136	2200
147	200
149	9400
150	1300
163	200
164	6200
165	900
