Mass Spectrum: 2-(Phenoxymethyl)benzoic acid
Formula: C14 H12 O3
CAS: 724-98-1
Molecular weight: 228
Origin: Dr. Jiri Zamecnik, DCIEM, North York, Canada, GP Library
m/z	RELATIVE INTENSITY
39	5220
51	3990
53	1410
63	2670
65	2640
66	670
77	6560
79	5450
80	280
89	2060
90	1130
94	8920
105	860
107	570
115	160
118	200
127	160
133	1660
135	9999
137	190
152	460
153	210
155	90
165	140
168	40
169	30
181	310
182	70
183	30
193	20
211	1040
212	110
213	10
228	1970
229	410
