Mass Spectrum: Aflatoxin G2
Formula: C17 H14 O7
CAS: 7241-98-7
Molecular weight: 330
Origin: AAFS Toxicology Section MS DB Committee, U. Alberta, Canada
m/z	RELATIVE INTENSITY
40	50
41	140
42	110
43	260
44	80
45	70
50	140
51	350
52	180
53	390
55	160
57	40
58	40
60	60
62	190
63	610
64	170
65	350
66	230
67	150
68	90
69	610
70	50
74	210
75	360
76	250
77	790
78	280
79	330
80	60
81	120
82	30
83	20
85	40
86	150
87	230
88	160
89	540
90	220
91	550
92	220
93	170
95	110
98	70
99	90
100	90
101	170
102	350
103	350
104	110
105	240
106	70
107	100
108	80
110	20
111	30
113	110
114	140
115	1060
116	290
117	200
118	100
119	160
120	30
121	80
122	40
123	60
126	80
127	280
128	460
129	290
130	160
131	340
132	110
133	150
134	40
135	70
137	20
139	90
141	230
142	100
143	150
144	160
145	290
146	100
147	190
148	50
149	60
151	60
152	50
153	50
154	30
155	70
157	190
158	170
159	260
160	90
161	210
162	40
163	50
165	20
167	20
168	30
169	120
171	250
172	60
173	270
174	110
175	160
176	30
177	40
183	60
184	50
185	240
186	160
187	350
188	100
189	220
190	60
191	60
197	80
198	70
199	210
200	140
201	500
202	170
203	220
204	70
205	50
211	50
212	50
213	280
214	220
215	570
216	130
217	190
218	50
219	50
225	70
226	30
227	210
228	140
229	370
230	160
231	160
232	70
233	30
239	100
240	40
241	320
242	120
243	830
244	150
245	120
246	30
253	80
254	30
255	120
256	50
257	390
258	340
259	170
260	30
262	20
265	30
267	70
268	40
269	720
270	150
271	340
272	200
273	160
274	70
281	30
282	20
283	160
284	40
285	360
286	670
287	1821
288	320
289	50
295	30
297	110
298	110
299	300
300	140
301	860
302	250
303	30
311	20
313	80
314	20
315	190
316	60
328	100
330	9999
331	1781
332	320
333	40
