Mass Spectrum: n-Butyl n-pentyl disulfide
Formula: C9 H20 S2
CAS: 72437-52-6
Molecular weight: 192
Origin: H.J. MOECKEL & J. WEISS, HAHN-MEITNER-INST. BERLIN, W. G
m/z	RELATIVE INTENSITY
15	182
19	23
21	2
24	2
25	8
26	220
27	3196
29	8537
30	1532
33	48
35	103
36	24
37	12
38	40
39	1173
40	335
41	5497
42	3970
43	9999
44	4934
45	997
46	537
47	886
48	81
49	37
50	17
51	39
52	16
53	221
54	154
55	1303
56	499
57	6981
58	1082
59	432
60	312
61	204
62	29
63	10
64	154
65	75
66	216
67	202
68	149
69	706
70	449
71	4638
72	311
73	191
74	78
75	20
76	8
77	4
78	72
79	551
80	27
81	46
85	12
86	29
87	684
88	305
89	209
90	35
91	10
92	12
93	71
94	14
95	6
99	2
101	161
102	207
103	826
104	73
105	31
106	15
107	16
120	5
121	120
122	2697
123	175
124	236
125	12
126	6
135	37
136	798
137	71
138	72
139	5
140	1
149	4
159	3
163	4
191	108
192	2503
193	349
194	232
195	26
196	7
