Mass Spectrum: Disulfide, ethyl pentyl
Formula: C7 H16 S2
CAS: 72437-59-3
Molecular weight: 164
Origin: H.J. MOECKEL & J. WEISS, HAHN-MEITNER-INST. BERLIN, W. G
m/z	RELATIVE INTENSITY
15	79
24	1
25	12
26	208
27	2682
29	4284
30	149
33	22
34	31
35	262
36	4
37	22
38	61
39	972
40	92
41	3016
42	687
43	9999
44	426
45	621
46	299
47	347
48	19
49	15
50	12
51	28
52	12
53	117
54	46
55	746
56	60
57	41
58	124
59	355
60	196
61	223
62	33
63	24
64	132
65	119
66	763
67	119
68	228
69	248
70	84
71	713
72	51
73	69
74	38
75	16
76	6
77	4
78	35
79	275
80	16
81	25
82	1
84	1
85	6
86	3
87	82
88	5
89	5
91	3
92	18
93	277
94	2740
95	153
96	252
97	10
98	6
99	2
101	36
102	41
103	46
104	7
105	3
106	8
107	45
108	2
109	4
121	4
131	1
135	2
136	2
162	2
163	59
164	1346
165	160
166	123
167	11
168	3
