Mass Spectrum: Methyl pentyl disulfide
Formula: C6 H14 S2
CAS: 72437-68-4
Molecular weight: 150
Origin: H.J. MOECKEL & J. WEISS, HAHN-MEITNER-INST. BERLIN, W. G
m/z	RELATIVE INTENSITY
15	448
24	2
25	29
26	573
27	5781
29	7812
30	191
33	38
34	23
35	107
37	69
38	511
39	3159
40	634
41	8747
42	2511
43	9999
44	1388
45	3576
46	1435
47	1617
48	148
49	180
50	73
51	126
52	66
53	398
54	203
55	2239
56	181
57	126
58	285
59	513
60	307
61	250
62	36
63	148
64	794
65	164
66	89
67	217
68	126
69	522
70	318
71	1845
72	152
73	210
74	74
75	24
76	15
77	41
78	320
79	2078
80	6383
81	421
82	598
83	11
84	20
85	24
86	5
87	154
88	10
89	7
91	9
92	68
93	547
95	32
97	2
99	6
100	4
101	64
102	58
103	103
104	13
105	7
106	18
107	24
109	1
117	2
119	1
120	6
121	4
148	10
149	270
150	4225
151	469
152	413
153	36
154	10
