Mass Spectrum: 3-Buten-2-one, 4-(2-bromophenyl)-
Formula: C10 H9 Br O
CAS: 72454-54-7
Molecular weight: 224
Origin: ASES Database, Dalian Institute, P.R. China
m/z	RELATIVE INTENSITY
51	2522
74	1511
75	2682
76	1511
77	1000
101	1551
102	4974
103	770
115	760
116	300
131	310
145	9999
146	1151
181	760
183	1000
209	1080
211	910
224	540
226	530
