Mass Spectrum: Propanenitrile, 3-(propylamino)-
Formula: C6 H12 N2
CAS: 7249-87-8
Molecular weight: 112
Origin: NIST Mass Spectrometry Data Center, 1994
m/z	RELATIVE INTENSITY
4	4
14	121
15	551
16	18
18	84
25	33
26	442
27	2184
28	3059
29	790
30	5308
31	88
32	16
34	22
37	50
38	164
39	1060
40	527
41	2235
42	8946
43	2112
44	735
45	23
50	22
51	125
52	360
53	22
54	3522
55	287
56	1066
57	171
58	38
66	30
67	63
68	162
69	149
70	896
71	30
72	4191
73	204
81	85
83	9999
84	507
111	86
112	359
113	26
