Mass Spectrum: 3,5-Bis(trifluoromethyl)benzoic acid
Formula: C9 H4 F6 O2
CAS: 725-89-3
Molecular weight: 258
Origin: NIST Mass Spectrometry Data Center
m/z	RELATIVE INTENSITY
12	110
14	90
18	10
28	190
29	170
31	160
38	110
45	841
49	80
50	350
51	150
53	110
55	80
57	170
63	120
69	651
73	160
74	701
75	1071
87	130
93	170
94	230
95	150
99	320
111	100
113	230
123	220
125	430
132	90
143	1041
144	921
145	601
161	120
162	230
163	1762
164	260
189	80
191	70
193	550
194	641
195	320
207	100
211	90
213	4654
214	571
230	130
239	3263
241	9999
242	1031
258	5635
259	540
