Mass Spectrum: o-Methoxybenzoic acid, 2-methylphenyl ester
Formula: C15 H14 O3
CAS: 72566-70-2
Molecular weight: 242
Origin: Zaikin V.G., TIPS RAS, Moscow, Russia
m/z	RELATIVE INTENSITY
28	10
39	40
50	30
51	100
52	30
63	90
64	130
65	40
76	60
77	971
78	110
79	90
91	30
92	520
93	40
105	70
107	70
108	30
120	120
121	30
135	9999
136	751
137	60
242	50
