Mass Spectrum: Methane, bis(p-methoxyphenyl)-,
Formula: C15 H16 O2
CAS: 726-18-1
Molecular weight: 228
Origin: A.A.Kutin, Moscow, Russia
m/z	RELATIVE INTENSITY
77	2192
78	1091
79	210
80	90
81	80
82	50
84	110
85	40
89	561
90	380
91	2572
92	801
93	220
95	210
98	130
99	160
101	70
103	230
105	270
106	270
107	731
113	120
114	350
115	1601
116	250
117	90
118	50
120	510
121	5065
122	1371
123	170
126	140
127	210
128	370
130	100
131	110
133	40
135	310
139	500
140	110
141	1631
142	561
150	360
151	1411
152	1922
153	871
154	340
155	170
156	110
157	260
163	60
164	70
165	1581
166	611
167	300
168	310
169	1371
170	791
171	260
172	90
179	220
180	90
181	1241
182	1181
183	460
184	661
185	601
186	210
191	60
193	140
194	50
195	801
196	881
197	8648
198	2432
199	310
206	80
207	40
208	320
209	130
210	80
211	290
212	1151
213	2302
214	290
225	220
226	270
227	5085
228	9999
229	2332
