Mass Spectrum: Thiourea, N-phenyl-N'-(phenylmethyl)-
Formula: C14 H14 N2 S
CAS: 726-25-0
Molecular weight: 242
Origin: CARL DJERASSI DEPT OF CHEM STANFORD UNIV STANFORD CALIF 94305
m/z	RELATIVE INTENSITY
41	500
42	300
43	700
44	300
45	300
46	100
50	100
51	300
52	100
53	100
54	100
55	500
56	300
57	700
58	600
59	100
60	300
61	100
63	100
64	100
65	400
66	200
67	300
68	300
69	500
70	300
71	400
73	300
74	100
76	100
77	500
78	200
79	300
80	100
81	500
82	300
83	500
84	300
85	300
87	100
89	100
90	100
91	700
92	400
93	700
94	400
95	400
96	100
97	500
98	200
99	200
100	200
101	100
103	100
104	500
105	200
106	700
107	400
108	100
109	300
110	300
111	400
112	200
113	200
116	100
117	100
118	100
119	200
120	100
121	200
122	100
123	200
124	100
125	200
126	100
129	100
133	400
134	100
135	200
136	200
137	200
138	100
139	100
140	100
141	100
143	100
147	100
148	100
149	800
150	100
151	100
152	100
153	100
154	100
161	100
163	100
165	200
166	100
167	1000
168	100
208	100
209	400
210	100
241	500
242	9999
243	1200
244	600
