Mass Spectrum: 2,4,6(1H,3H,5H)-Pyrimidinetrione, 5-(1-cyclohexen-1-yl)-1,3,5-trimethyl-
Formula: C13 H18 N2 O3
CAS: 726-79-4
Molecular weight: 250
Origin: BAY 0150
m/z	RELATIVE INTENSITY
40	50
41	701
42	450
43	150
50	100
51	400
52	200
53	801
54	200
55	300
56	550
57	100
58	601
63	100
65	550
66	300
67	400
68	200
70	100
75	50
77	1001
78	300
79	1852
80	851
81	4004
82	300
83	450
84	150
85	250
89	50
91	1101
92	150
93	951
94	150
95	200
96	100
97	50
103	100
104	50
105	200
106	150
107	250
108	851
109	100
110	100
112	500
113	350
114	100
117	50
119	100
120	50
121	500
122	150
123	200
124	100
127	50
128	250
132	100
133	50
134	100
135	250
136	500
137	701
138	50
141	50
142	100
143	50
144	50
146	50
147	150
148	100
149	100
150	150
151	50
154	250
163	50
164	200
165	250
166	100
167	50
169	2602
170	1201
171	2302
172	150
178	651
179	150
181	50
193	50
207	200
208	50
221	50
231	50
232	50
233	150
234	851
235	9999
236	1301
237	300
250	601
251	150
