Mass Spectrum: 4-Amino-3,5-dibromobenzotrifluoride
Formula: C7 H4 Br2 F3 N
CAS: 72678-19-4
Molecular weight: 317
Origin: NIST Mass Spectrometry Data Center
m/z	RELATIVE INTENSITY
12	20
14	20
15	20
16	40
18	90
19	20
20	20
25	40
26	90
27	90
28	811
29	20
31	641
32	70
33	20
36	100
37	801
38	571
39	160
40	70
41	110
45	380
46	40
48	20
49	140
50	370
51	601
52	1782
53	210
54	300
56	220
57	230
60	230
61	1221
62	1501
63	1101
64	390
65	651
66	70
69	1351
70	641
72	70
73	140
74	270
75	450
76	110
77	10
79	561
80	290
81	1001
82	280
83	70
84	80
86	200
87	490
88	781
89	771
90	611
91	90
92	110
93	180
94	250
95	190
99	100
100	60
101	20
103	20
104	80
105	60
106	240
107	110
108	410
109	310
110	100
111	160
112	390
113	260
114	90
115	40
116	70
117	110
118	140
119	280
120	230
121	30
123	60
124	20
128	30
129	20
130	140
131	631
132	871
133	400
134	651
135	290
138	731
139	1001
140	601
141	170
142	110
143	160
144	30
145	20
148	20
149	70
150	130
151	60
152	20
155	10
158	2963
159	1952
160	200
162	20
163	30
165	10
166	30
168	100
169	70
170	70
171	50
186	30
187	80
188	60
189	60
190	40
191	20
192	30
193	10
194	20
210	180
211	90
212	190
213	70
217	70
218	270
219	230
220	270
221	170
222	10
223	20
237	290
238	711
239	380
240	631
241	80
267	530
269	921
270	140
271	480
272	60
298	761
300	1431
301	170
302	661
303	80
317	5205
318	455
319	9999
320	1041
321	4922
322	415
