Mass Spectrum: 2-(Trifluoromethyl)benzophenone
Formula: C14 H9 F3 O
CAS: 727-99-1
Molecular weight: 250
Origin: Chuck Anderson, Aldrich Chemical Co.
m/z	RELATIVE INTENSITY
26	17
27	143
28	30
29	8
31	28
32	5
37	10
38	39
39	100
49	12
50	463
51	1208
52	74
53	23
57	64
61	11
62	58
63	79
68	12
69	99
73	24
74	246
75	484
76	318
77	4436
78	297
79	10
81	42
85	16
86	30
87	39
88	14
91	14
93	19
94	41
95	405
96	38
98	27
99	83
100	47
101	53
102	2
104	66
105	9999
106	778
107	86
110	6
111	24
115	29
119	49
123	10
125	318
126	139
127	33
133	9
143	37
144	41
145	1837
146	142
150	31
151	61
152	84
153	25
157	10
163	11
169	9
170	11
173	1721
174	149
175	25
180	2
181	65
182	26
183	91
184	9
199	9
201	90
202	15
211	69
212	8
219	9
222	2
229	16
231	76
232	9
249	26
250	1473
251	228
252	17
