Mass Spectrum: 6-Methyl-1,5-heptadiene
Formula: C8 H14
CAS: 7270-50-0
Molecular weight: 110
Origin: NIST Mass Spectrometry Data Center, 1990.
m/z	RELATIVE INTENSITY
15	152
26	179
27	1615
28	198
29	608
32	10
37	78
38	298
39	2872
40	10
41	9999
42	429
43	343
50	215
51	476
52	190
53	1053
54	328
55	443
56	147
63	158
65	326
66	1067
67	1958
68	734
69	8384
70	454
77	311
79	226
81	261
91	167
95	297
110	858
