Mass Spectrum: 3-Carboxy-4-methyl-5-propyl-2-furanpropionic acid, dimethyl ester
Formula: C14 H20 O5
CAS: 72719-10-9
Molecular weight: 268
Origin: H.Wahl ET AL.J.High Res.Chrom.,15,815(1992)
m/z	RELATIVE INTENSITY
41	250
42	80
43	571
44	30
45	50
50	20
51	110
52	90
53	150
55	821
56	30
57	90
58	40
59	490
62	20
63	60
64	50
65	250
66	90
67	160
69	120
71	410
74	70
77	480
78	100
79	250
80	50
81	80
90	130
91	370
92	120
93	210
94	50
95	100
96	60
97	50
105	150
107	110
108	240
109	90
119	150
120	200
121	350
122	60
123	90
133	80
134	60
135	80
136	70
137	90
147	1441
148	270
149	210
150	50
151	70
153	190
161	70
163	330
164	70
165	561
166	320
167	190
175	140
176	80
177	480
179	9999
180	1251
181	140
182	70
192	70
193	240
194	140
195	3994
196	500
197	50
206	70
207	1301
208	7947
209	1541
210	190
221	70
235	150
236	360
237	1191
238	180
239	861
240	120
268	2332
269	350
270	30
