Mass Spectrum: 3-Dodecanol, 3,7,11-trimethyl-
Formula: C15 H32 O
CAS: 7278-65-1
Molecular weight: 228
m/z	RELATIVE INTENSITY
19	160
27	260
29	611
31	140
39	160
41	991
42	240
43	1972
44	50
45	230
53	80
55	1601
56	360
57	1211
58	260
59	100
67	90
68	70
69	1581
70	561
71	721
72	410
73	9999
74	450
81	90
82	50
83	971
84	130
85	300
95	140
97	490
98	60
99	110
111	420
112	50
113	120
125	330
126	80
129	110
139	80
199	200
213	50
