Mass Spectrum: 3-(Trifluoromethyl)benzophenone
Formula: C14 H9 F3 O
CAS: 728-81-4
Molecular weight: 250
Origin: NIST Mass Spectrometry Data Center
m/z	RELATIVE INTENSITY
18	20
26	20
27	170
28	20
37	30
38	100
39	190
40	10
50	1161
51	2402
52	130
53	60
56	10
57	110
61	20
62	90
63	130
64	10
69	220
70	10
73	40
74	380
75	851
76	510
77	4844
78	320
79	10
80	10
81	60
85	20
86	50
87	50
88	20
89	10
91	20
92	10
93	30
94	70
95	761
96	50
98	40
99	150
100	60
101	70
102	20
105	9999
106	781
107	100
110	40
111	70
113	10
115	40
118	10
119	80
120	10
122	10
123	20
125	470
126	220
127	40
133	10
143	50
145	2903
146	240
149	10
150	50
151	100
152	180
153	80
154	10
162	10
163	10
169	20
170	30
171	10
173	2402
174	220
175	40
181	350
182	60
183	70
184	10
193	10
199	20
200	20
201	190
202	30
219	40
220	20
221	10
222	60
229	10
231	520
232	90
233	10
250	3914
251	591
252	50
