Mass Spectrum: 1,3-Propanedione, 2-bromo-1,3-diphenyl-
Formula: C15 H11 Br O2
CAS: 728-84-7
Molecular weight: 302
Origin: RADIAN CORP
m/z	RELATIVE INTENSITY
14	60
27	120
28	1620
29	10
32	310
38	10
39	280
40	130
41	50
50	570
51	1970
52	210
53	10
62	100
63	290
64	10
65	330
69	2870
70	120
73	40
74	190
75	260
76	410
77	5900
78	620
79	30
83	30
89	380
90	140
91	210
98	30
102	160
103	150
105	9999
106	830
118	60
125	40
147	1660
148	150
152	60
165	50
177	10
178	20
207	40
223	4140
224	2710
225	440
257	210
258	50
259	50
