Mass Spectrum: 4,4'-Dimethoxybenzhydrol
Formula: C15 H16 O3
CAS: 728-87-0
Molecular weight: 244
Origin: Japan AIST/NIMC Database- Spectrum MS-NW-6941
m/z	RELATIVE INTENSITY
15	139
18	20
26	10
27	70
28	30
29	60
30	10
31	40
37	10
38	80
39	299
40	60
41	60
43	20
45	20
50	169
51	299
52	70
53	99
54	10
55	70
57	20
61	10
62	80
63	359
64	409
65	409
66	239
67	30
68	20
69	20
70	20
74	70
75	119
76	219
77	1629
78	439
79	199
80	20
81	30
82	10
83	10
84	10
85	10
86	20
87	40
88	30
89	90
90	30
91	149
92	689
93	149
94	589
95	60
98	20
99	20
100	10
101	30
102	60
103	30
104	70
105	319
106	60
107	559
108	2829
109	3199
110	269
111	20
113	149
114	90
115	259
116	40
117	10
118	10
119	30
120	40
121	239
122	209
123	20
126	40
127	70
128	119
129	50
130	20
131	20
132	10
133	10
134	10
135	9999
136	1099
137	1299
138	129
139	169
140	80
141	269
142	50
143	30
144	10
145	30
150	20
151	50
152	189
153	159
154	50
155	40
156	30
157	40
158	40
159	10
163	10
165	60
166	30
167	20
168	109
169	239
170	60
171	60
172	20
173	10
180	40
181	80
182	60
183	99
184	129
185	70
186	30
187	10
195	99
196	80
197	449
198	90
199	70
200	70
201	30
210	20
211	289
212	279
213	519
214	99
215	60
216	10
217	40
225	40
226	40
227	1819
228	949
229	169
230	20
241	60
242	619
243	929
244	3939
245	669
246	80
247	10
