Mass Spectrum: Cyclohexyl ethylphosphonofluoridate
Formula: C8 H16 F O2 P
CAS: 7284-84-6
Molecular weight: 194
Origin: VERIFIN - Methodology B1-1979
m/z	RELATIVE INTENSITY
27	100
28	60
29	200
39	300
41	700
42	80
43	80
53	200
54	900
55	500
67	1601
68	80
77	50
79	100
81	200
82	400
83	200
84	200
85	200
95	100
99	100
111	80
112	100
113	9999
114	200
151	100
193	10
