Mass Spectrum: 1-(2-Methylphenyl)ethanol
Formula: C9 H12 O
CAS: 7287-82-3
Molecular weight: 136
Origin: NIST Mass Spectrometry Data Center, 1990.
m/z	RELATIVE INTENSITY
14	173
26	165
27	533
29	217
37	124
38	430
39	2236
40	329
41	430
43	1962
45	417
50	1081
51	2039
52	549
53	400
58	731
60	546
62	943
63	2200
64	539
65	3039
66	351
67	230
74	495
75	566
77	4680
78	1063
79	283
86	218
87	242
89	1301
91	8996
92	1326
93	6749
94	543
102	498
103	1135
104	174
105	144
115	4706
116	1186
117	9999
118	9757
119	1515
121	5403
122	514
136	993
