Mass Spectrum: Methyl undecyl ether
Formula: C12 H26 O
CAS: 7289-53-4
Molecular weight: 186
Origin: NIST Mass Spectrometry Data Center
m/z	RELATIVE INTENSITY
15	80
26	30
27	651
28	200
29	1461
30	40
31	80
33	100
39	811
40	170
41	4054
42	1381
43	3483
44	180
45	9999
46	230
47	90
50	10
51	50
52	30
53	370
54	510
55	4644
56	4234
57	2362
58	310
59	80
60	40
63	10
65	60
66	60
67	661
68	1822
69	3843
70	3533
71	1051
72	60
73	10
77	40
78	10
79	70
80	10
81	210
82	2182
83	3843
84	2762
85	581
86	30
87	170
88	10
91	10
93	10
95	60
96	691
97	3373
98	1501
99	140
100	10
101	30
109	10
110	180
111	1251
112	450
113	40
124	70
125	540
126	1231
127	120
128	10
139	10
143	40
144	10
154	1361
155	170
156	10
