Mass Spectrum: Pyridine-D5-
Formula: C5 D5 N
CAS: 7291-22-7
Molecular weight: 84
Origin: Japan AIST/NIMC Database- Spectrum MS-NW-4843
m/z	RELATIVE INTENSITY
12	10
14	20
24	10
26	70
28	589
29	10
30	229
36	30
38	199
40	229
42	629
43	10
44	10
48	20
50	229
51	10
52	1229
53	30
54	1979
55	70
56	5299
57	200
58	10
62	10
64	10
66	30
74	10
76	50
78	50
80	20
82	779
83	50
84	9999
85	590
86	20
