Mass Spectrum: 2,2,2-Trichloro-N,N-dimethylacetamide
Formula: C4 H6 Cl3 N O
CAS: 7291-33-0
Molecular weight: 189
Origin: NIST Mass Spectrometry Data Center, 1994
m/z	RELATIVE INTENSITY
12	76
13	56
14	197
15	2023
16	22
17	22
18	1099
19	5
24	14
25	25
26	79
27	237
28	908
29	115
30	36
35	228
36	81
37	97
38	82
39	94
40	319
41	374
42	1917
43	430
44	264
45	26
46	26
47	604
48	106
49	317
50	36
51	79
52	39
53	15
54	36
55	78
56	521
57	23
58	27
59	17
60	16
61	51
63	119
64	8
65	35
70	15
72	9999
73	373
74	30
75	8
76	416
77	47
78	157
79	7
80	8
81	7
82	456
83	87
84	307
85	51
86	66
87	16
88	6
90	33
92	26
94	8
96	10
98	12
106	10
108	14
110	187
112	125
113	9
114	17
117	251
119	264
121	80
123	15
126	818
128	523
129	21
130	87
139	15
141	10
154	24
155	10
156	17
160	17
162	17
189	87
191	90
192	7
193	27
