Mass Spectrum: Pyridine, 3-methoxy-
Formula: C6 H7 N O
CAS: 7295-76-3
Molecular weight: 109
m/z	RELATIVE INTENSITY
43	1001
50	400
51	601
52	400
65	300
66	3803
67	400
78	601
79	901
93	200
94	1101
108	200
109	9999
110	901
