Mass Spectrum: Trimesitylborane
Formula: C27 H33 B
CAS: 7297-95-2
Molecular weight: 368
Origin: NIST Mass Spectrometry Data Center, 1994
m/z	RELATIVE INTENSITY
17	36
18	80
27	64
37	65
38	24
39	185
40	106
41	521
50	99
51	265
52	62
53	173
55	33
61	75
62	39
63	115
64	69
65	196
75	122
76	91
77	487
78	141
79	200
87	89
88	106
89	299
90	46
91	493
92	58
93	62
95	21
99	27
100	133
101	256
102	160
103	437
104	129
105	931
106	124
107	35
109	26
112	94
113	274
114	155
115	302
116	80
117	253
118	26
119	348
120	333
121	46
125	97
126	248
127	377
128	246
129	319
130	67
131	65
132	32
133	66
137	83
138	112
139	336
140	394
141	402
142	422
143	188
144	58
145	40
146	35
149	39
150	116
151	201
152	102
153	108
154	77
155	61
156	37
160	28
161	61
162	59
163	214
164	85
165	143
166	45
167	52
168	45
169	42
174	44
175	65
176	109
177	232
178	146
179	111
184	413
186	38
187	161
188	75
189	97
190	145
191	296
192	151
193	183
199	36
200	164
201	259
202	126
203	172
204	177
205	367
206	232
207	179
208	99
211	49
212	42
213	145
214	189
215	260
216	167
217	187
218	174
219	333
220	273
221	108
224	56
225	73
226	59
227	164
228	187
229	364
230	174
231	279
232	853
233	2424
234	558
235	78
241	58
242	79
243	115
244	95
245	116
246	288
247	2594
248	9999
249	2444
250	317
251	35
367	71
368	171
369	46
