Mass Spectrum: Cyclohexanol, 1-methyl-4-(1-methylethenyl)-, cis-
Formula: C10 H18 O
CAS: 7299-41-4
Molecular weight: 154
Origin: Mark Whitten, Florida Museum of Natural History, U. of Florida
m/z	RELATIVE INTENSITY
41	5000
43	9999
44	317
45	390
50	171
51	547
52	245
53	1362
55	3358
56	462
57	488
58	879
59	234
61	50
62	77
63	147
65	458
66	222
67	1427
68	632
69	2406
71	5349
72	369
77	875
78	194
79	1712
80	883
81	2304
82	358
83	1204
84	772
85	122
86	271
91	768
92	943
93	3163
94	994
95	636
96	549
97	685
98	135
105	256
106	73
107	549
108	205
109	235
110	196
111	1836
112	177
119	81
121	1411
122	145
123	75
125	241
126	115
136	713
137	122
139	1106
140	132
154	264
