Mass Spectrum: 1,2-Benzenedicarboxylic acid, bis(2-ethylbutyl) ester
Formula: C20 H30 O4
CAS: 7299-89-0
Molecular weight: 334
Origin: V.G. Zaikin, R.S.Borisov, TIPS RAS, Moscow, Russia
m/z	RELATIVE INTENSITY
27	100
29	180
39	110
41	410
42	100
43	1351
44	30
50	50
51	20
53	40
54	30
55	360
56	260
57	180
65	130
67	20
69	420
71	30
75	30
76	290
77	80
84	711
85	1591
86	100
93	130
104	561
105	170
121	120
122	130
132	190
133	20
149	9999
150	911
151	90
162	30
163	20
167	1641
168	140
233	30
251	821
252	130
