Mass Spectrum: 2-Pentyn-4-one
Formula: C5 H6 O
CAS: 7299-55-0
Molecular weight: 82
Origin: A.Pleshkova, Nesmeyanov Inst.Org.Elem.Cpds, Moscow
m/z	RELATIVE INTENSITY
15	500
26	200
27	400
28	200
37	400
38	500
39	2302
40	80
42	300
43	801
44	30
50	200
51	200
53	200
60	200
66	300
67	9999
68	400
82	1401
83	80
