Mass Spectrum: p-Menth-8-en-1-ol, stereoisomer
Formula: C10 H18 O
CAS: 7299-40-3
Molecular weight: 154
Origin: J. KAMINSKA, INST. GEN. FOOD CHEM., TECH. UNIV. LODZ, POLAND
m/z	RELATIVE INTENSITY
24	4
25	10
26	125
27	1868
28	516
29	2561
30	396
31	4541
32	2758
33	82
34	9
35	33
36	13
37	29
38	135
39	2781
40	759
41	4286
42	506
43	9019
44	295
45	369
46	26
47	115
48	31
49	34
50	153
51	388
52	230
53	1957
54	423
55	2790
56	760
57	467
58	2967
59	485
60	34
61	78
62	190
63	119
64	30
65	508
66	278
67	2559
68	3163
69	4470
70	355
71	9999
72	484
73	120
74	24
75	21
76	14
77	712
78	169
79	2690
80	527
81	1856
82	603
83	1013
84	1804
85	145
86	50
87	8
88	4
89	17
90	19
91	569
92	471
93	4533
94	1912
95	1091
96	308
97	471
98	57
99	32
100	6
101	8
102	9
103	39
104	13
105	272
106	118
107	4185
108	3348
109	464
110	66
111	1280
112	72
113	6
114	6
115	12
116	6
117	451
118	7
119	487
120	24
121	4236
122	419
123	56
124	19
125	72
126	149
127	16
128	15
129	3
130	3
131	9
132	4
133	9
134	8
135	70
136	6014
137	858
138	38
139	743
140	61
141	10
142	2
143	9
145	4
146	2
147	2
148	5
149	6
150	5
151	5
152	101
153	11
154	30
155	10
156	3
