Mass Spectrum: Cyclopentane, 1-butyl-2-ethyl-
Formula: C11 H22
CAS: 72993-32-9
Molecular weight: 154
Origin: D.HENNEBERG, MAX-PLANCK INSTITUTE, MULHEIM, WEST GERMANY
m/z	RELATIVE INTENSITY
21	6
22	8
23	11
24	47
25	26
26	53
27	1180
28	6
29	1171
30	45
33	10
35	18
36	8
37	55
38	38
39	888
41	4020
42	1550
43	2870
47	8
49	4
50	26
51	67
52	47
53	386
54	387
55	5737
56	2717
57	1064
58	37
60	13
63	17
64	6
65	118
66	301
67	1629
68	395
69	9999
70	2014
71	374
72	11
75	10
77	80
78	11
79	109
80	21
81	306
82	356
83	981
84	1481
85	361
86	12
91	15
93	4
95	93
96	70
97	456
98	459
99	66
109	111
110	939
111	2975
112	356
113	17
124	13
125	154
126	643
127	51
154	112
