Mass Spectrum: Melatonin
Formula: C13 H16 N2 O2
CAS: 73-31-4
Molecular weight: 232
Origin: NIST Mass Spectrometry Data Center
m/z	RELATIVE INTENSITY
15	50
27	30
28	100
29	20
30	641
31	20
38	30
39	130
40	30
41	40
42	90
43	1001
44	40
45	10
50	90
51	220
52	150
53	70
54	40
55	20
56	10
57	10
58	30
60	20
61	10
62	100
63	360
64	120
65	120
66	30
67	10
70	10
72	80
73	20
74	60
75	120
76	150
77	320
78	100
79	40
80	40
81	10
86	20
87	70
88	60
89	701
90	661
91	180
92	40
93	10
98	10
99	10
100	20
101	100
102	280
103	280
104	120
105	30
106	10
113	20
114	50
115	250
116	440
117	2162
118	310
119	40
120	10
127	20
128	230
129	270
130	821
131	180
132	120
133	30
134	10
140	20
141	30
142	110
143	120
144	360
145	2592
146	430
147	110
148	20
154	10
155	30
156	50
157	60
158	1441
159	490
160	9999
161	1191
162	120
163	10
170	10
171	30
172	240
173	9318
174	1231
175	120
176	10
186	10
187	10
188	40
189	120
190	20
201	10
214	10
216	10
217	10
230	10
232	1772
233	260
234	20
