Mass Spectrum: L-Isoleucine
Formula: C6 H13 N O2
CAS: 73-32-5
Molecular weight: 131
Origin: Japan AIST/NIMC Database- Spectrum MS-NW- 627
m/z	RELATIVE INTENSITY
14	10
15	129
16	10
17	99
18	899
19	70
26	129
27	1039
28	2909
29	2699
30	4209
31	70
32	50
37	30
38	70
39	769
40	90
41	2649
42	379
43	359
44	1499
45	199
46	659
47	20
48	10
50	50
51	70
52	60
53	149
54	229
55	289
56	1149
57	4149
58	629
59	50
60	10
65	20
66	10
67	80
68	70
69	1359
70	469
71	80
72	90
73	20
74	3179
75	4459
76	179
77	20
81	20
82	20
83	20
84	129
85	50
86	9999
87	619
88	20
95	10
96	20
97	20
98	10
99	40
102	40
131	10
