Mass Spectrum: Guanine
Formula: C5 H5 N5 O
CAS: 73-40-5
Molecular weight: 151
Origin: Japan AIST/NIMC Database- Spectrum MS-NW-8150
m/z	RELATIVE INTENSITY
13	10
14	10
16	40
17	89
18	509
24	10
25	10
26	80
27	649
28	1699
29	209
30	30
32	10
36	60
38	119
39	129
40	70
41	129
42	479
43	2989
44	929
45	40
51	10
52	149
53	1079
54	1709
55	399
56	139
57	70
60	10
61	50
64	20
65	70
66	99
67	90
68	339
69	699
70	189
71	60
72	10
73	10
75	159
76	10
77	20
78	20
79	189
80	229
81	689
82	349
83	189
84	30
85	40
91	20
92	30
93	50
94	10
95	60
96	199
97	119
98	20
105	10
106	289
107	119
108	839
109	1899
110	1849
111	119
112	10
115	10
122	70
123	119
124	129
125	10
129	10
133	40
134	879
135	539
136	40
141	10
149	10
150	60
151	9999
152	799
153	50
