Mass Spectrum: 2(3H)-Furanone, 5-dodecyldihydro-
Formula: C16 H30 O2
CAS: 730-46-1
Molecular weight: 254
Origin: NIST Mass Spectrometry Data Center
m/z	RELATIVE INTENSITY
27	310
28	200
29	1291
30	30
39	470
41	2803
42	751
43	3003
44	180
45	70
53	250
54	540
55	3914
56	2122
57	2552
58	280
59	150
60	220
67	991
68	1041
69	2943
70	1672
71	1121
72	250
73	540
79	210
80	130
81	921
82	1011
83	2402
84	1692
85	9999
86	540
87	260
94	200
95	771
96	1231
97	1962
98	1311
99	320
100	951
101	530
102	60
109	540
110	921
111	1291
112	550
113	240
114	831
115	240
116	60
119	270
121	170
122	140
123	581
124	490
125	550
126	260
127	360
128	851
133	170
134	240
135	110
136	110
137	460
138	410
139	240
140	80
141	200
142	70
148	100
151	280
152	360
153	130
154	160
156	40
158	50
169	50
179	80
180	50
182	40
192	581
193	140
194	280
195	80
207	70
208	50
215	20
218	240
219	40
236	350
237	50
