Mass Spectrum: 3-Heptene, 3-methyl-
Formula: C8 H16
CAS: 7300-03-0
Molecular weight: 112
Origin: NIST Mass Spectrometry Data Center, 1990.
m/z	RELATIVE INTENSITY
15	90
26	114
27	931
28	387
29	783
39	1662
40	345
41	3248
42	425
43	425
44	75
50	185
51	371
52	196
53	882
54	75
55	9999
56	947
57	173
63	122
65	286
66	125
67	887
68	248
69	831
70	1495
71	138
77	219
78	59
79	259
81	221
83	5119
84	459
97	133
112	2339
113	192
