Mass Spectrum: 4,9-Dioxa-1,12-dodecanediamine
Formula: C10 H24 N2 O2
CAS: 7300-34-7
Molecular weight: 204
Origin: Japan AIST/NIMC Database- Spectrum MS-IW- 973
m/z	RELATIVE INTENSITY
15	70
16	60
17	119
18	419
26	70
27	309
28	969
29	519
30	9999
31	669
32	60
38	10
39	209
40	70
41	1599
42	709
43	1029
44	1159
45	1289
46	50
47	10
51	30
52	50
53	90
54	159
55	1029
56	3129
57	5079
58	8089
59	2269
60	119
62	10
65	20
66	20
67	50
68	90
69	109
70	299
71	1609
72	309
73	619
74	3549
75	909
76	2649
77	129
78	30
79	60
80	20
81	99
82	70
83	70
84	199
85	239
86	339
87	40
88	139
89	60
90	30
91	20
92	20
93	50
94	30
95	40
96	40
97	50
98	60
99	40
100	1159
101	129
102	40
103	169
104	30
105	10
106	30
107	30
109	20
110	10
111	10
112	30
113	50
114	1439
115	129
116	70
117	489
118	40
119	30
122	40
123	10
124	20
126	10
128	70
129	40
130	1009
131	589
132	50
133	20
134	30
136	10
146	2929
147	279
148	4179
149	349
150	40
151	20
155	20
160	10
161	90
162	20
172	20
174	70
175	30
186	10
188	50
205	119
206	10
