Mass Spectrum: Stannane, fluorotriisobutyl-
Formula: C12 H27 F Sn
CAS: 7304-48-5
Molecular weight: 310
Origin: M.GIELIN, FREE UNIV. OF BRUSSELS, BRUSSELS, BELGIUM
m/z	RELATIVE INTENSITY
18	162
20	81
27	460
28	216
29	2030
39	700
40	176
41	3300
42	380
43	297
55	297
56	567
57	9999
58	490
116	132
117	378
118	378
119	594
120	460
121	700
122	40
123	108
124	67
125	135
127	27
131	324
132	189
133	513
134	216
135	1010
136	243
137	730
138	270
139	950
140	10
141	135
143	162
151	162
152	81
153	297
154	172
155	420
156	40
157	164
158	10
159	99
160	10
171	81
172	81
173	1390
174	840
175	2400
176	1080
177	3140
178	216
179	648
180	54
181	620
182	27
191	64
192	64
193	287
194	179
195	513
196	189
197	540
198	54
199	189
200	27
201	125
209	865
210	513
211	1700
212	670
213	2270
214	297
215	840
216	27
217	378
218	27
219	108
230	135
231	314
232	326
233	540
234	430
235	540
236	108
237	137
238	54
239	135
249	1650
250	1060
251	2830
252	1270
253	3840
254	378
255	620
256	135
257	785
258	297
259	27
265	540
266	350
267	1080
268	485
269	1480
270	243
271	595
272	27
273	270
274	27
275	81
287	135
288	135
289	243
290	162
291	335
292	81
293	81
295	81
304	108
305	27
306	430
307	380
308	950
309	485
310	1620
311	216
312	465
313	54
314	243
315	162
