Mass Spectrum: Thiazole, 2-amino-5-methyl-
Formula: C4 H6 N2 S
CAS: 7305-71-7
Molecular weight: 114
Origin: Japan AIST/NIMC Database- Spectrum MS-IW-4861
m/z	RELATIVE INTENSITY
15	20
25	10
26	90
27	199
28	649
29	50
30	30
32	20
33	40
34	20
37	60
38	139
39	799
40	60
41	40
42	159
43	489
44	99
45	659
46	109
47	60
48	10
49	30
50	10
51	80
52	159
53	149
54	539
55	309
56	139
57	359
58	339
59	859
60	1399
61	1279
62	90
63	60
64	10
67	10
68	20
69	349
70	129
71	4149
72	3769
73	349
74	199
75	10
76	30
77	20
79	20
81	1449
82	90
83	20
85	20
86	1029
87	289
88	50
89	10
91	30
92	10
97	10
98	30
99	40
113	1779
114	9999
115	739
116	489
117	30
