Mass Spectrum: 1-Methyl-1-phenylcyclobutane
Formula: C11 H14
CAS: 7306-05-0
Molecular weight: 146
Origin: V.G.Zaikin, TIPS, Russian Acad. Sci.
m/z	RELATIVE INTENSITY
51	1000
52	110
63	350
64	120
65	400
77	1401
78	1501
79	100
91	1301
92	100
102	200
103	1901
104	300
105	100
115	800
116	500
117	3202
118	9999
119	1101
131	1401
132	100
146	1401
147	170
148	10
