Mass Spectrum: 2,4-Heptanedione
Formula: C7 H12 O2
CAS: 7307-02-0
Molecular weight: 128
Origin: ORMSBG,9(1)6(1974); VANDEWALLE
m/z	RELATIVE INTENSITY
39	600
41	200
42	300
43	9600
55	400
58	700
63	200
71	3000
85	9999
100	1600
113	1500
128	2600
