Mass Spectrum: 2,4-Hexanedione, 5,5-dimethyl-
Formula: C8 H14 O2
CAS: 7307-04-2
Molecular weight: 142
Origin: NIST Mass Spectrometry Data Center
m/z	RELATIVE INTENSITY
14	120
15	540
16	20
17	10
18	30
19	10
26	130
27	901
28	500
29	1591
30	40
31	360
32	80
37	30
38	140
39	1341
41	2622
42	581
43	4944
44	110
45	80
50	50
51	100
52	30
53	180
55	340
56	220
57	2222
58	751
59	220
60	10
62	10
63	10
65	40
66	30
67	70
69	360
70	30
71	100
72	10
74	10
77	20
79	70
81	90
82	10
83	60
85	9999
86	480
87	110
97	50
99	180
100	10
109	40
111	30
112	10
114	270
115	20
125	10
127	80
142	941
143	90
