Mass Spectrum: Butane, 1-[(1-methylethyl)thio]-
Formula: C7 H16 S
CAS: 7309-43-5
Molecular weight: 132
m/z	RELATIVE INTENSITY
24	10
25	20
26	480
27	6276
28	911
29	3693
30	90
31	10
32	70
33	60
34	120
35	360
36	10
37	90
38	210
39	2853
40	370
41	7237
42	1041
43	9999
44	310
45	1722
46	901
47	5245
48	641
49	530
50	90
51	100
52	30
53	210
54	140
55	3443
56	8848
57	2492
58	470
59	1191
60	981
61	4444
62	230
63	240
64	10
65	10
67	10
68	10
69	40
70	40
71	80
72	20
73	120
74	320
75	4764
76	2913
77	1251
78	170
79	50
81	10
82	10
83	10
84	10
85	30
86	10
87	40
88	180
89	5035
90	1121
91	420
92	60
93	10
101	10
103	330
104	20
105	20
115	10
117	3513
118	210
119	170
120	10
131	170
132	5565
133	480
134	270
135	20
