Mass Spectrum: 2-Methyl-1-phenyl-1-pentanol
Formula: C12 H18 O
CAS: 73177-67-0
Molecular weight: 178
Origin: NIST Mass Spectrometry Data Center, 1990.
m/z	RELATIVE INTENSITY
14	35
27	518
29	471
38	68
39	801
40	166
41	931
42	127
43	568
50	289
51	923
52	270
53	414
54	68
55	301
57	102
62	142
63	409
64	123
65	725
66	75
67	281
68	178
69	983
70	97
71	85
74	114
75	138
77	2775
78	715
79	4508
80	302
82	168
89	313
91	3018
92	356
102	156
103	303
104	359
105	931
106	156
107	9999
108	780
115	1400
116	763
117	1408
118	511
127	189
128	459
129	690
130	189
131	3580
132	381
145	292
160	1730
161	232
178	378
