Mass Spectrum: 2-Butenoic acid, 3-amino-, ethyl ester
Formula: C6 H11 N O2
CAS: 7318-00-5
Molecular weight: 129
Origin: Japan AIST/NIMC Database- Spectrum MS-NW-6578
m/z	RELATIVE INTENSITY
12	20
13	30
14	239
15	359
16	30
17	10
18	30
24	20
25	50
26	339
27	949
28	1419
29	879
30	499
31	799
32	20
37	30
38	139
39	429
40	639
41	1249
42	3199
43	569
44	529
45	479
46	159
47	10
50	10
51	40
52	109
53	40
54	399
55	449
56	119
57	4309
58	179
59	10
60	119
61	60
62	10
64	10
65	20
66	20
67	119
68	799
69	60
70	70
71	10
72	30
73	50
77	10
80	20
81	10
82	99
83	2129
84	9999
85	809
86	119
87	10
88	119
94	10
96	20
100	50
101	329
102	30
113	10
114	60
115	10
128	10
129	3299
130	259
131	10
