Mass Spectrum: 1,4-Hexadiene, (Z)-
Formula: C6 H10
CAS: 7318-67-4
Molecular weight: 82
Origin: NIST Mass Spectrometry Data Center, 1990.
m/z	RELATIVE INTENSITY
14	165
15	339
26	543
27	2273
28	1644
29	592
31	136
37	238
38	669
39	4349
40	751
41	3977
42	521
43	893
49	140
50	725
51	956
52	396
53	1676
54	1708
55	727
59	318
62	136
63	235
65	1639
67	9999
68	568
71	956
77	472
78	122
79	988
80	197
81	966
82	2982
83	207
