Mass Spectrum: 3-Hexene-2,5-diol
Formula: C6 H12 O2
CAS: 7319-23-5
Molecular weight: 116
Origin: W. KELLY UNILEVER RESEARCH COLWORTH/WELWYN, BEDFORD U.K.
m/z	RELATIVE INTENSITY
38	100
39	1350
40	220
41	1100
42	250
43	9999
44	440
45	1500
50	150
51	200
52	50
53	700
54	350
55	2800
56	600
57	450
58	200
59	150
61	420
65	50
67	270
69	370
70	100
71	800
72	200
79	150
81	140
82	130
83	2550
84	150
85	70
95	40
96	60
97	50
98	1100
99	30
101	90
