Mass Spectrum: trans-1,4-Hexadiene
Formula: C6 H10
CAS: 7319-00-8
Molecular weight: 82
Origin: NIST Mass Spectrometry Data Center, 1990.
m/z	RELATIVE INTENSITY
14	168
15	248
26	559
27	2336
28	1516
29	578
37	260
38	652
39	4629
40	734
41	3977
42	562
49	149
50	760
51	1010
52	457
53	1799
54	1756
55	853
56	132
62	121
63	221
65	1605
67	9999
68	564
74	120
77	497
79	1052
80	169
81	908
82	3325
83	247
