Mass Spectrum: (Z)-3,7-Dimethyl-2,7-octadien-1-ol, propanoate(ester)
Formula: C13 H22 O2
CAS: 73214-62-7
Molecular weight: 210
Origin: A.Swigar, R.Silverstein, Monoterpenes,1981
m/z	RELATIVE INTENSITY
39	2332
40	691
41	4654
42	450
43	611
45	581
51	440
52	330
53	2052
54	380
55	1922
56	450
57	9999
58	420
65	520
66	420
67	1942
68	4934
69	1862
71	250
73	410
74	611
77	641
79	2352
80	1672
81	5295
82	691
83	340
84	641
91	641
92	470
93	1972
94	851
95	971
96	1171
97	641
98	951
107	1411
108	851
109	691
121	1972
122	390
136	1271
137	380
154	641
