Mass Spectrum: 7-Methyl-3-methylene-7-octen-1-ol, propanoate (ester)
Formula: C13 H22 O2
CAS: 73214-63-8
Molecular weight: 210
Origin: A.Swigar, R.Silverstein, Monoterpenes,1981
m/z	RELATIVE INTENSITY
39	2172
40	921
41	4584
42	550
43	601
51	430
52	240
53	1882
54	581
55	1712
56	721
57	9999
58	601
65	530
66	581
67	2282
68	7447
69	2222
77	601
79	2903
80	4294
81	3523
82	601
91	641
92	510
93	3473
94	1451
95	1151
107	2172
108	2112
109	731
121	2132
136	1321
