Mass Spectrum: 1,4-Ethenonaphthalene, 1,4-dihydro-
Formula: C12 H10
CAS: 7322-47-6
Molecular weight: 154
Origin: TAT 0891
m/z	RELATIVE INTENSITY
38	200
39	500
51	200
52	200
62	300
63	1101
64	1001
65	100
74	300
75	701
76	2202
77	801
78	200
87	200
89	200
101	200
102	500
115	400
126	500
127	701
128	1802
129	200
139	200
150	300
151	801
152	2803
153	9999
154	7607
155	1001
156	100
