Mass Spectrum: Propanoic acid, 2-chloro-, methyl ester, (S)-
Formula: C4 H7 Cl O2
CAS: 73246-45-4
Molecular weight: 122
Origin: Chuck Anderson, Aldrich Chemical Co.
m/z	RELATIVE INTENSITY
12	6
13	36
14	136
15	3582
16	45
17	1
24	13
25	131
26	1279
27	8109
28	1712
29	974
30	182
31	836
32	19
33	50
35	67
36	52
37	63
38	44
39	104
40	16
41	232
42	152
43	2086
44	100
45	127
47	24
48	76
49	49
50	25
51	93
52	7
53	116
54	27
55	747
56	296
57	30
59	6456
60	190
61	217
62	1033
63	9999
64	541
65	3306
66	67
76	72
77	6
78	22
79	237
80	2
81	76
85	5
87	2913
88	125
89	47
90	60
91	1244
92	57
93	433
94	10
95	4
107	1
121	4
122	236
123	40
124	75
125	11
