Mass Spectrum: 1,4-Phenylenediacetic acid
Formula: C10 H10 O4
CAS: 7325-46-4
Molecular weight: 194
Origin: Japan AIST/NIMC Database- Spectrum MS-NW-6874
m/z	RELATIVE INTENSITY
15	10
17	30
18	119
26	40
27	419
28	159
29	50
36	40
37	30
38	109
39	539
40	40
41	90
42	20
43	60
44	70
45	499
46	10
49	30
50	359
51	879
52	349
53	239
54	20
55	40
57	10
59	10
60	20
61	40
62	139
63	389
64	80
65	309
66	50
67	10
69	10
71	10
73	20
74	139
75	129
76	159
77	1979
78	879
79	1089
80	70
81	10
85	10
86	30
87	40
88	10
89	139
90	50
91	1339
92	149
93	30
95	10
97	10
98	20
101	40
102	229
103	1289
104	3049
105	3469
106	339
107	3419
108	269
109	20
115	10
118	10
119	40
120	50
121	30
123	10
129	10
130	10
131	529
132	70
133	20
134	10
135	10
139	10
147	109
148	99
149	9999
150	1159
151	109
152	20
158	20
163	10
165	10
166	10
176	70
177	10
193	30
194	5619
195	649
196	80
