Mass Spectrum: Mefenacet
Formula: C16 H14 N2 O2 S
CAS: 73250-68-7
Molecular weight: 298
Origin: NIST Mass Spectrometry Data Center, 2009
m/z	RELATIVE INTENSITY
15	20
26	10
27	80
28	120
29	30
30	80
37	30
38	100
39	540
40	40
41	60
42	831
43	100
44	60
45	380
47	20
49	10
50	250
51	1151
52	270
53	120
54	70
55	90
56	30
57	50
58	70
60	10
61	20
62	80
63	490
64	300
65	651
66	110
67	20
68	40
69	340
70	100
71	50
72	10
74	60
75	100
76	150
77	4564
78	1191
79	1311
80	130
81	60
82	150
83	30
84	20
86	10
87	10
88	30
89	90
90	480
91	2312
92	350
93	270
94	110
95	200
96	210
97	20
98	10
102	30
103	130
104	1331
105	2522
106	2522
107	1121
108	290
109	831
110	70
111	40
116	10
117	80
118	881
119	300
120	4364
121	440
122	380
123	180
124	30
125	10
126	10
130	10
131	10
132	80
133	120
134	1031
135	240
136	3403
137	300
138	160
139	20
146	80
147	1041
148	2502
149	360
150	661
151	350
152	80
153	20
163	10
164	310
165	40
166	20
191	350
192	9999
193	1091
194	520
195	50
196	10
205	20
298	380
299	70
300	20
