Mass Spectrum: 2-Furanol, tetrahydro-2-methyl-
Formula: C5 H10 O2
CAS: 7326-46-7
Molecular weight: 102
Origin: SHELL RESEARCH LIMITED THORNTON RESEARCH CENTRE
m/z	RELATIVE INTENSITY
26	170
27	1460
28	695
29	794
31	1134
32	127
37	127
38	141
39	865
40	212
41	2595
42	1134
43	5106
44	893
45	170
53	212
55	212
56	127
57	425
61	354
69	156
70	652
71	9999
72	666
73	99
84	127
