Mass Spectrum: Pentasulfide, dimethyl
Formula: C2 H6 S5
CAS: 7330-31-6
Molecular weight: 190
Origin: J.E.WAJON,SCH. APPL. CHEM.,CURTIN UNIV. TECHNOL.,BENTLEY,AUST.
m/z	RELATIVE INTENSITY
32	750
33	190
34	250
36	60
40	160
41	40
44	550
45	6280
46	2100
47	7070
48	4030
49	360
50	220
51	90
55	60
61	610
62	120
64	4430
65	650
66	750
67	80
76	120
77	250
78	500
79	9999
80	1990
81	1000
82	230
83	80
93	170
94	4330
95	200
96	650
97	100
98	60
110	100
111	1610
112	330
113	220
115	80
126	3640
127	180
128	450
129	60
130	60
141	60
143	150
145	70
158	5410
159	290
160	1000
161	60
162	110
190	680
192	190
