Mass Spectrum: Propylamine, 2TMS derivative
Formula: C9 H25 N Si2
CAS: 7331-84-2
Molecular weight: 203
Origin: ORMSBG,10(10)859(1975); J. TAMAS
m/z	RELATIVE INTENSITY
45	960
59	2200
73	5100
86	2350
100	1000
114	3800
115	430
116	260
117	240
130	380
131	300
158	100
172	170
174	9999
175	1760
186	40
188	3000
189	550
202	60
203	420
204	100
