Mass Spectrum: Benzoic acid, 2-methoxy-, ethyl ester
Formula: C10 H12 O3
CAS: 7335-26-4
Molecular weight: 180
Origin: Zaikin V.G., TIPS RAS, Moscow, Russia
m/z	RELATIVE INTENSITY
26	40
27	170
28	20
29	240
30	20
31	20
36	10
37	20
38	80
39	120
43	30
44	30
45	20
49	10
50	170
51	330
52	50
53	70
61	10
62	70
63	360
64	390
65	170
66	20
74	60
75	60
76	220
77	1852
78	250
79	280
80	20
81	40
90	30
91	60
92	921
93	130
94	50
95	10
104	100
105	1001
106	150
107	120
108	70
109	20
118	50
119	80
120	220
121	320
122	70
123	360
124	20
133	3343
134	440
135	9999
136	731
137	60
149	10
151	450
152	100
153	10
161	10
163	20
165	20
179	20
180	1992
181	220
182	20
