Mass Spectrum: Chrysophanol, 2TMS derivative
Formula: C21 H26 O4 Si2
CAS: 7336-72-3
Molecular weight: 398
Origin: G.W. VAN EIJK, CENTRAALBUREAU SCHIMMELCULTURES, BAARN, NETH.
m/z	RELATIVE INTENSITY
73	420
311	410
353	150
367	80
383	9999
384	2960
385	1310
386	250
397	50
398	20
