Mass Spectrum: Emodin, 3TMS derivative
Formula: C24 H34 O5 Si3
CAS: 7336-74-5
Molecular weight: 486
Origin: G.W. VAN EIJK, CENTRAALBUREAU SCHIMMELCULTURES, BAARN, NETH.
m/z	RELATIVE INTENSITY
73	1880
456	80
469	60
471	9999
472	3880
473	1770
474	490
475	120
485	80
486	40
