Mass Spectrum: 5.alpha.-Androstan-3.alpha.-ol-17-one, TMS derivative
Formula: C22 H38 O2 Si
CAS: 7337-91-9
Molecular weight: 362
Origin: NIST Mass Spectrometry Data Center
m/z	RELATIVE INTENSITY
15	10
26	10
27	80
28	10
29	250
30	10
31	20
39	250
40	70
41	1421
42	140
43	540
44	90
45	741
46	60
47	480
48	20
49	20
50	10
51	60
52	50
53	721
54	210
55	2562
56	190
57	240
58	100
59	671
60	160
61	761
62	50
63	50
65	410
66	180
67	2752
68	420
69	711
70	90
71	110
73	5875
74	721
75	8918
76	691
77	1682
78	320
79	3423
80	571
81	3413
82	410
83	480
84	70
85	160
86	30
87	90
88	40
89	230
91	3623
92	711
93	3743
94	901
95	2462
96	300
97	1551
98	140
99	170
101	631
102	130
103	360
104	220
105	2943
106	1661
107	3773
108	2652
109	1702
110	390
111	320
112	40
113	170
114	40
115	591
116	280
117	891
118	370
119	1882
120	801
121	1762
122	621
123	771
124	230
125	160
126	20
127	190
128	220
129	3643
130	2742
131	1882
132	470
133	1531
134	721
135	1081
136	520
137	601
138	841
140	20
141	170
142	2362
143	831
144	480
145	2102
146	621
147	2032
148	781
149	811
150	520
151	420
153	70
155	4064
156	721
157	621
158	290
159	1381
160	530
161	1752
162	490
163	530
164	320
165	190
166	70
167	80
168	50
169	210
170	70
171	450
172	170
173	991
174	631
175	1321
176	741
177	290
178	60
179	30
180	20
181	130
182	160
183	320
184	90
185	320
186	140
187	681
188	250
189	681
190	460
191	330
192	50
193	20
194	10
195	60
196	190
197	330
198	110
199	430
200	160
201	1181
202	380
203	561
204	510
205	220
206	40
207	20
208	10
209	70
210	20
211	120
212	70
213	891
214	330
215	3123
216	1491
217	901
218	240
219	50
220	10
221	20
222	10
223	50
224	20
225	120
226	60
227	180
228	400
229	641
230	350
231	310
232	881
233	1131
234	190
235	40
236	10
237	40
238	20
239	561
240	110
241	40
242	20
243	360
244	981
245	200
246	80
247	20
248	10
249	30
250	10
251	20
253	871
254	470
255	490
256	130
257	2953
258	581
259	60
260	10
261	20
262	10
263	30
264	10
265	50
266	10
267	10
268	10
271	7437
272	9999
273	1952
274	220
275	40
276	10
277	20
278	10
279	10
280	30
281	10
287	90
288	30
289	20
290	10
291	110
292	30
293	100
294	20
295	10
303	20
304	50
305	671
306	510
307	130
308	30
311	10
315	20
316	10
317	10
318	100
319	40
320	20
331	10
332	10
333	40
334	20
335	10
344	40
345	20
347	6746
348	1862
349	530
350	90
351	10
360	10
361	80
362	2242
363	661
364	170
365	30
