Mass Spectrum: 1,4-Bis[(trimethylsilyl)ethynyl]benzene
Formula: C16 H22 Si2
CAS: 73392-23-1
Molecular weight: 270
Origin: NIST Mass Spectrometry Data Center, 1994
m/z	RELATIVE INTENSITY
15	106
39	72
43	3108
44	277
46	42
51	40
53	819
54	106
55	303
56	47
57	191
58	246
63	58
65	51
66	152
67	410
68	45
69	177
70	43
71	52
72	43
73	1732
75	91
76	31
77	383
78	208
79	298
80	102
81	95
83	183
84	57
85	90
86	60
87	36
89	103
90	254
91	410
92	195
93	577
95	48
97	336
98	139
99	110
100	37
101	115
102	80
103	237
104	74
105	584
106	703
108	24
112	165
113	317
115	283
116	80
117	177
118	37
119	24
120	2791
125	43
126	50
127	118
128	213
129	470
130	112
131	193
132	48
133	44
139	118
140	109
141	180
142	348
143	502
144	84
145	186
146	35
147	40
151	44
152	123
153	466
154	112
155	408
156	143
157	154
158	77
159	144
165	166
166	391
167	550
168	167
169	375
170	98
171	126
172	172
173	173
174	36
175	36
178	45
179	163
180	285
181	285
182	130
183	644
184	133
185	100
186	39
193	88
194	81
195	353
196	318
197	632
198	125
199	92
201	69
207	44
209	115
210	237
211	151
212	58
213	42
225	431
226	137
227	77
239	135
240	101
241	125
242	45
253	48
255	9999
256	2601
257	806
258	142
270	2821
271	757
272	271
273	47
