Mass Spectrum: 1-Hexanethiol, 2-ethyl-
Formula: C8 H18 S
CAS: 7341-17-5
Molecular weight: 146
m/z	RELATIVE INTENSITY
12	70
13	30
15	460
20	20
22	10
24	10
25	20
26	350
27	4094
28	1212
29	4054
30	90
31	10
35	300
36	50
37	60
38	140
39	2102
40	320
41	6476
42	1802
43	5145
44	681
45	1061
46	430
47	3103
48	240
49	180
50	100
51	170
52	70
53	490
54	310
55	4864
56	4314
57	9999
58	540
59	270
60	220
61	881
62	180
63	70
64	20
65	60
66	20
67	190
68	210
69	1381
70	3673
71	651
72	40
73	130
74	70
75	220
76	270
77	70
78	20
79	30
80	10
81	60
82	220
83	1471
84	851
85	100
86	30
87	40
88	60
89	310
90	641
91	60
92	30
93	10
95	20
96	10
97	170
98	350
99	100
100	10
101	20
102	10
103	40
104	200
105	50
106	10
111	10
112	1511
113	170
114	10
115	20
116	10
117	150
118	240
119	40
120	10
122	30
130	10
131	10
132	90
133	10
134	10
144	10
145	20
146	801
147	80
148	40
149	10
