Mass Spectrum: Phenanthrene, 3,4,5,6-tetramethyl-
Formula: C18 H18
CAS: 7343-06-8
Molecular weight: 234
Origin: R. C. DOUGHERTY
m/z	RELATIVE INTENSITY
51	200
63	200
75	200
76	200
81	100
82	100
87	200
88	600
89	700
94	200
95	600
96	100
100	200
101	2500
102	1000
103	600
104	100
105	200
106	300
107	700
108	600
109	200
115	200
116	300
117	700
151	100
152	200
163	200
164	100
165	400
176	100
177	100
178	300
179	200
187	100
188	100
189	2000
190	600
191	100
192	100
193	100
200	400
201	500
202	2200
203	2400
204	3200
205	1100
213	200
214	100
215	600
216	300
217	400
218	600
219	7700
220	1500
221	300
233	600
234	9999
235	2000
236	300
