Mass Spectrum: Methanone, (2-fluorophenyl)[2-(methylamino)-5-nitrophenyl]-
Formula: C14 H11 F N2 O3
CAS: 735-06-8
Molecular weight: 274
Origin: H.Maurer ET AL.J.Chromatogr. 222,409(1981)
m/z	RELATIVE INTENSITY
75	550
76	340
95	951
104	340
105	550
109	340
123	1561
133	550
170	340
179	921
183	340
185	340
198	340
199	340
210	340
211	2142
212	550
213	550
227	520
228	310
244	310
254	310
255	691
256	310
257	2312
258	520
273	2522
274	9999
275	1531
276	310
