Mass Spectrum: Perylene, 3-hexyl-
Formula: C26 H24
CAS: 7350-91-6
Molecular weight: 336
Origin: SHELL OIL CO., HOUSTON, TEXAS, USA
m/z	RELATIVE INTENSITY
36	6
37	9
38	23
39	337
40	64
41	876
42	187
43	948
44	38
45	6
49	6
50	20
51	24
52	16
53	38
54	13
55	136
56	53
57	66
58	4
59	2
60	3
61	4
62	8
63	18
64	5
65	7
66	9
67	25
68	12
69	32
70	23
71	40
72	4
73	9
74	24
75	20
76	9
77	18
78	46
79	12
80	5
81	11
82	8
83	12
84	11
85	14
86	14
87	26
88	10
89	8
90	2
91	14
92	9
93	5
94	7
95	9
96	7
97	10
98	16
99	13
100	13
101	7
102	4
103	4
104	5
105	13
106	16
107	13
108	17
109	8
110	12
111	24
112	57
113	65
114	14
115	13
116	5
117	9
118	30
119	44
120	65
121	8
122	13
123	13
124	77
125	197
126	272
127	13
128	11
129	10
130	27
131	94
132	248
133	213
134	9
135	8
136	37
137	150
138	385
139	182
140	29
141	7
142	10
143	25
144	53
145	145
146	24
147	13
148	23
149	62
150	102
151	108
152	18
153	7
154	5
155	10
156	13
157	50
158	20
159	6
160	12
161	49
162	121
163	269
164	72
165	50
166	8
167	9
168	38
169	4
170	4
171	3
172	2
173	6
174	12
175	9
176	13
177	5
178	14
179	9
180	3
181	1
182	3
183	3
184	2
185	11
186	9
187	26
188	11
189	35
190	17
191	164
192	84
193	15
194	4
195	3
196	4
197	6
198	15
199	14
200	20
201	13
202	22
203	11
204	14
205	13
206	7
207	4
208	3
210	6
211	31
212	13
213	28
214	7
215	15
216	7
217	13
218	5
219	4
220	6
221	8
222	25
223	24
224	66
225	34
226	44
227	15
228	29
229	34
230	13
231	9
232	4
233	5
234	4
235	35
236	23
237	145
238	68
239	328
240	73
241	22
242	12
243	26
244	44
245	12
246	16
247	16
248	116
249	72
250	390
251	143
252	813
253	203
254	41
255	12
256	21
257	10
258	32
259	37
260	29
261	242
262	107
263	1680
264	697
265	9999
266	2557
267	309
268	30
269	6
332	102
333	37
334	1039
335	310
336	7180
337	1977
338	278
339	29
340	11
