Mass Spectrum: Pentane, 1-[(1-methylethyl)thio]-
Formula: C8 H18 S
CAS: 7352-00-3
Molecular weight: 146
Origin: DM6-152-F21
m/z	RELATIVE INTENSITY
15	200
27	4500
28	700
29	3000
30	100
34	100
35	300
38	200
39	2900
40	400
41	5799
42	3800
43	9999
44	500
45	1000
46	700
47	3400
48	300
49	300
53	200
55	3600
56	300
57	200
58	300
59	800
60	900
61	3300
62	100
63	100
67	100
68	100
69	3800
70	3900
71	600
73	100
74	500
75	4000
76	2800
77	900
78	100
89	3100
90	200
102	300
103	6799
104	700
105	300
131	1800
132	200
146	4500
147	500
148	200
