Mass Spectrum: Pentane, 1-[(3-methylbutyl)thio]-
Formula: C10 H22 S
CAS: 7352-01-4
Molecular weight: 174
Origin: CARL DJERASSI DEPT OF CHEM STANFORD UNIV STANFORD CALIF 94305
m/z	RELATIVE INTENSITY
40	100
41	2400
42	1600
43	3200
44	100
45	300
46	200
47	500
53	100
55	2600
56	200
57	200
59	100
60	200
61	2900
62	100
63	100
69	1500
70	9999
71	1300
75	100
102	100
103	1200
104	500
105	200
117	300
131	400
174	1400
