Mass Spectrum: 2-Heptene, 6-methyl-
Formula: C8 H16
CAS: 73548-72-8
Molecular weight: 112
Origin: NIST Mass Spectrometry Data Center, 1990.
m/z	RELATIVE INTENSITY
26	249
27	2089
28	1072
29	2141
38	368
39	3839
41	8755
42	1471
43	2159
44	270
50	261
51	529
52	251
53	1385
55	8971
56	9999
57	4075
58	167
63	146
65	265
66	121
67	910
68	777
69	5132
70	2603
71	170
77	211
79	201
81	150
83	395
84	913
97	661
112	2911
113	266
