Mass Spectrum: 5-Bromo-2,4-dihydroxybenzoic acid
Formula: C7 H5 Br O4
CAS: 7355-22-8
Molecular weight: 232
Origin: Japan AIST/NIMC Database- Spectrum MS-NW-9505
m/z	RELATIVE INTENSITY
14	10
15	10
16	10
17	20
18	70
25	20
26	70
27	99
28	389
29	139
31	20
32	40
34	10
36	20
37	189
38	219
39	379
40	70
41	99
42	70
43	60
44	569
45	159
46	10
48	40
49	129
50	609
51	1159
52	249
53	839
54	259
55	139
57	10
60	30
61	159
62	289
63	169
64	30
65	129
66	189
67	90
68	40
69	1269
70	50
71	30
73	10
74	20
76	30
77	169
78	169
79	1559
80	289
81	349
82	99
83	10
84	10
85	10
89	10
90	20
91	20
92	10
93	269
94	259
95	99
96	20
97	10
104	10
105	20
106	179
107	369
108	169
109	50
110	50
115	10
116	80
117	169
118	50
119	119
120	10
121	10
123	20
124	10
128	10
129	80
130	129
131	159
132	129
133	99
134	80
135	509
136	80
137	10
141	20
143	20
144	10
145	109
146	30
147	119
148	20
149	20
154	20
157	129
158	1159
159	269
160	1149
161	149
162	10
170	10
172	10
173	159
174	10
175	189
176	10
177	20
185	209
186	2529
187	439
188	3459
189	279
190	959
191	60
203	20
205	10
213	40
214	9999
215	1049
216	9759
217	999
218	99
232	4919
233	409
234	4839
235	389
236	50
238	10
