Mass Spectrum: 9,12,15-Octadecatrienoic acid, methyl ester
Formula: C19 H32 O2
CAS: 7361-80-0
Molecular weight: 292
m/z	RELATIVE INTENSITY
26	208
27	42
28	458
39	625
41	2541
42	208
43	1042
44	42
45	42
51	42
52	42
53	625
54	562
55	2916
56	167
57	375
59	1375
65	562
66	771
67	5416
68	1042
69	1750
70	42
71	167
73	167
74	1396
75	21
77	2187
78	1458
79	9999
80	4500
81	4687
82	1250
83	1187
84	167
85	375
87	1771
88	21
91	3958
92	833
93	7228
94	3687
95	8124
96	1396
97	979
98	167
99	167
101	458
103	250
104	146
105	1875
106	750
107	4291
108	7916
109	2666
110	458
111	458
112	42
113	42
115	583
116	42
117	625
118	167
119	1187
120	583
121	4166
122	2708
123	1250
127	167
128	42
129	583
130	42
131	771
132	167
133	1000
134	375
135	3541
136	2083
137	625
138	42
139	208
140	42
141	250
143	417
144	42
145	375
146	42
147	792
148	250
149	2958
150	1375
151	250
152	42
153	42
154	42
155	42
157	167
159	167
160	42
161	458
162	250
163	1250
164	875
165	167
167	167
168	167
171	167
172	42
173	1042
174	167
175	458
176	42
177	354
178	458
179	42
181	167
182	42
185	167
187	42
189	250
190	42
191	1167
192	375
193	42
194	42
195	42
196	42
199	167
203	167
204	167
205	42
206	42
207	167
208	42
209	42
210	167
217	375
218	62
219	62
221	167
222	167
223	1042
224	375
231	250
232	42
235	250
236	2916
237	583
238	375
239	42
249	583
250	375
251	167
260	42
261	2500
262	458
263	1250
264	250
290	375
291	146
292	7749
293	1875
294	208
