Mass Spectrum: Cyclohexanecarboxylic acid, 1-butyl-, methyl ester
Formula: C12 H22 O2
CAS: 7362-81-4
Molecular weight: 198
Origin: D.HENNEBERG, MAX-PLANCK INSTITUTE, MULHEIM, WEST GERMANY
m/z	RELATIVE INTENSITY
26	320
27	4860
28	1140
29	5600
30	200
31	260
32	50
38	180
39	4100
40	840
41	8510
42	760
43	2070
44	100
45	670
46	30
50	160
51	510
52	350
53	2240
54	1310
55	7180
56	600
57	2000
58	120
59	1580
60	540
61	100
62	30
63	110
64	30
65	500
66	330
67	3140
68	810
69	5120
70	410
71	860
72	70
73	200
74	450
75	120
77	650
78	160
79	1020
80	330
81	4680
82	880
83	9999
84	750
85	190
86	20
87	450
88	310
89	30
91	260
92	70
93	170
94	70
95	2140
96	850
97	3680
98	350
99	140
100	150
101	570
102	150
103	20
105	30
107	50
108	85
109	590
110	370
111	170
112	320
113	560
114	110
115	90
116	70
122	20
123	480
124	250
125	180
126	30
127	160
128	120
129	50
130	1130
131	90
137	130
138	930
139	5760
140	730
141	1870
142	6550
143	2610
145	20
155	1350
156	220
157	90
166	110
167	60
169	90
198	770
199	130
200	10
