Mass Spectrum: Sarcosine, 2TMS derivative
Formula: C9 H23 N O2 Si2
CAS: 7364-43-4
Molecular weight: 233
Origin: O A MAMER, MCGILL UNIVERSITY, MONTRE
m/z	RELATIVE INTENSITY
15	109
26	46
27	28
29	182
30	5
31	101
41	22
42	308
43	392
44	179
45	1136
46	91
47	119
52	39
55	47
56	52
57	91
58	158
59	582
60	66
61	88
66	172
67	36
70	47
71	85
72	172
73	5186
74	472
75	458
76	40
86	139
87	193
88	200
100	96
101	73
102	153
103	58
114	75
115	64
116	9999
117	1148
118	410
119	56
131	122
133	155
144	71
147	1265
148	216
149	119
175	52
179	41
190	525
191	62
192	48
193	47
196	56
204	38
207	37
218	308
219	69
220	35
221	43
233	462
234	63
235	52
