Mass Spectrum: L-Cysteine, 3TMS derivative
Formula: C12 H31 N O2 S Si3
CAS: 7364-50-3
Molecular weight: 337
Origin: O A MAMER, MCGILL UNIVERSITY, MO+
m/z	RELATIVE INTENSITY
29	55
31	82
43	22
44	172
45	1603
46	129
47	41
55	14
57	2
58	59
59	758
60	101
61	86
70	70
71	44
72	244
73	9999
74	967
75	565
76	65
86	102
91	108
98	46
100	1820
101	231
102	117
103	134
105	68
114	113
115	324
116	238
117	110
119	72
130	115
131	135
132	525
133	317
134	81
146	140
147	1075
148	238
149	137
156	46
163	83
172	45
174	49
188	46
203	55
204	142
205	90
216	57
218	5518
219	1111
220	6143
221	1219
222	741
223	122
230	60
232	152
294	274
295	78
296	50
322	137
