Mass Spectrum: L-Serine, 3TMS derivative
Formula: C12 H31 N O3 Si3
CAS: 7364-48-9
Molecular weight: 321
Origin: S. MARKEY UNIV. OF COLO. MED. CTR., DENVER, COLORADO, USA
m/z	RELATIVE INTENSITY
38	30
39	190
40	960
41	370
42	460
43	1090
44	1600
45	2750
46	180
47	1130
49	320
51	200
55	240
56	280
57	560
58	310
59	880
60	180
61	360
63	90
65	50
69	1160
70	150
72	370
73	9999
74	1130
75	6500
76	500
77	1190
79	80
80	70
84	350
86	110
88	30
89	50
93	480
95	140
100	1530
101	340
102	260
103	550
114	290
115	220
116	1640
117	470
118	100
119	270
130	180
131	490
132	1490
133	710
134	110
144	350
146	240
147	2040
148	310
149	270
159	60
169	100
174	110
181	60
188	550
189	230
190	50
203	170
204	7520
205	1420
206	580
207	110
216	170
217	70
218	4550
219	1180
220	420
221	60
234	90
278	610
279	120
280	20
306	490
307	80
