Mass Spectrum: Ethyl (E)-2-octenoate
Formula: C10 H18 O2
CAS: 7367-82-0
Molecular weight: 170
Origin: NIST Mass Spectrometry Data Center
m/z	RELATIVE INTENSITY
15	30
26	130
27	1251
28	310
29	2452
30	80
31	80
37	20
38	110
39	1952
40	631
41	3113
42	1101
43	1361
44	70
45	460
46	10
47	10
50	100
51	270
52	170
53	1361
54	761
55	9999
56	1201
57	1431
58	140
59	70
60	360
61	410
62	30
63	70
64	20
65	250
66	190
67	1151
68	2953
69	1281
70	1511
71	611
73	4884
74	260
75	40
77	150
78	40
79	300
80	160
81	2092
82	2813
83	1221
84	160
85	530
86	2442
87	741
88	2102
89	180
90	20
91	80
92	20
93	90
94	40
95	1191
96	3293
97	821
98	180
99	4884
100	601
101	4544
102	621
103	50
105	20
106	80
107	60
108	20
109	160
110	90
111	40
112	20
113	530
114	550
115	1892
116	180
117	10
123	210
124	3133
125	8247
126	771
127	2132
128	771
129	160
130	10
141	550
142	250
143	90
144	10
155	160
156	20
169	10
170	340
171	150
172	20
