Mass Spectrum: 2H-Pyran-2-one, tetrahydro-6-octyl-
Formula: C13 H24 O2
CAS: 7370-92-5
Molecular weight: 212
Origin: Japan AIST/NIMC Database- Spectrum MS-IW-3655
m/z	RELATIVE INTENSITY
15	20
26	20
27	619
28	109
29	819
30	20
31	20
38	10
39	469
40	99
41	2129
42	1829
43	2139
44	129
45	60
51	20
52	10
53	169
54	329
55	2739
56	1269
57	989
58	149
59	40
60	189
61	20
65	30
66	30
67	449
68	679
69	1549
70	2909
71	2819
72	159
73	289
74	20
77	30
78	10
79	80
80	40
81	429
82	419
83	849
84	689
85	159
86	299
87	119
88	10
91	30
92	10
93	50
94	70
95	299
96	589
97	819
98	819
99	9999
100	959
101	209
102	20
105	10
107	30
108	50
109	159
110	399
111	359
112	179
113	199
114	1319
115	279
116	50
119	60
120	20
121	30
122	20
123	189
124	189
125	179
126	50
127	139
128	80
129	60
130	30
133	70
134	179
135	30
136	10
137	169
138	99
139	50
140	80
141	309
142	139
143	30
144	10
147	40
148	10
150	489
151	189
152	309
153	60
155	40
156	40
157	10
161	10
165	80
166	40
169	60
170	10
175	10
176	179
177	20
183	40
184	20
194	329
195	50
211	10
212	80
213	10
