Mass Spectrum: 11-Methylnonacosane
Formula: C30 H62
CAS: 7371-99-5
Molecular weight: 422
Origin: J. Klune, Insect Chem. Ecol. Lab., USDA, Beltsville, MD 20705
m/z	RELATIVE INTENSITY
41	2796
42	866
43	8444
44	237
53	112
54	282
55	2830
56	1944
57	9999
58	460
65	21
66	27
67	300
68	387
69	1802
70	1267
71	7197
72	378
77	10
79	35
80	18
81	177
82	563
83	1545
84	761
85	5481
86	332
91	15
92	9
95	85
96	447
97	1611
98	495
99	2111
100	148
105	5
109	31
110	231
111	995
112	364
113	1302
114	103
123	19
124	136
125	545
126	243
127	694
128	53
137	14
138	92
139	231
140	1207
141	552
142	50
152	51
153	89
154	114
155	232
156	28
166	56
167	89
168	8913
169	3654
170	377
171	22
180	34
181	44
182	241
183	252
184	31
194	27
195	32
196	152
197	181
198	24
208	21
209	23
210	104
211	139
212	21
222	16
223	18
224	135
225	138
226	23
236	5
237	11
238	63
239	74
240	14
251	7
252	920
253	383
254	62
266	52
267	48
268	6
278	5
279	7
280	2719
281	2355
282	455
283	45
294	104
295	87
296	21
308	100
309	101
310	20
322	70
323	76
324	17
330	5
336	84
337	109
338	27
350	87
351	118
352	31
364	68
365	124
366	35
378	64
379	129
380	33
392	85
393	216
394	67
395	7
406	41
407	285
408	92
409	17
420	16
421	37
422	192
423	62
424	8
