Mass Spectrum: N,N-Dimethyloctylamine
Formula: C10 H23 N
CAS: 7378-99-6
Molecular weight: 157
Origin: NIST Mass Spectrometry Data Center
m/z	RELATIVE INTENSITY
15	190
18	70
27	460
28	240
29	651
30	440
39	300
41	771
42	981
43	450
44	340
45	170
46	70
51	10
52	10
53	50
54	40
55	200
56	220
58	9999
59	440
67	20
68	20
69	50
70	80
71	80
72	60
82	10
84	80
98	10
100	10
114	30
128	10
142	10
156	40
157	280
158	30
