Mass Spectrum: 3-Hexanone, 2-methyl-
Formula: C7 H14 O
CAS: 7379-12-6
Molecular weight: 114
Origin: Japan AIST/NIMC Database- Spectrum MS-NW-3143
m/z	RELATIVE INTENSITY
14	10
15	90
18	10
26	70
27	1129
28	129
29	139
31	20
32	10
37	20
38	50
39	579
40	90
41	1559
42	329
43	9999
44	329
45	20
50	10
51	20
53	50
55	199
56	30
57	70
58	30
59	10
60	20
67	30
69	30
70	359
71	6669
72	329
73	70
81	10
83	10
85	10
86	30
99	50
114	1489
115	119
116	10
