Mass Spectrum: 1,3,5-Benzenetricarboxylic acid, triphenyl ester
Formula: C27 H18 O6
CAS: 7383-70-2
Molecular weight: 438
Origin: MUS356 A. Mujsce, AT&T Bell Labs., Murray Hill, N.J., USA
m/z	RELATIVE INTENSITY
63	116
64	74
65	1479
66	121
74	155
75	1004
76	87
77	96
93	244
94	96
102	45
103	412
139	435
140	182
152	43
167	65
168	942
169	180
183	133
195	159
196	491
197	80
215	82
223	160
224	1326
225	191
251	380
269	112
317	82
345	9999
346	2808
347	432
348	66
438	599
439	189
440	68
