Mass Spectrum: 1-Pentene, 3,4-dimethyl-
Formula: C7 H14
CAS: 7385-78-6
Molecular weight: 98
m/z	RELATIVE INTENSITY
12	20
13	40
14	170
15	1291
16	60
25	20
26	500
27	5835
28	1131
29	2672
30	60
31	10
32	10
36	10
37	130
38	390
39	4254
40	671
41	7257
42	941
43	7397
44	240
45	10
46	10
49	40
50	360
51	581
52	220
53	1181
54	1221
55	8257
56	9999
57	611
58	20
60	10
61	20
62	50
63	110
64	20
65	180
66	90
67	510
68	120
69	981
70	5935
71	350
72	10
73	10
74	20
75	10
76	10
77	90
78	20
79	80
80	20
81	100
82	20
83	1201
84	80
85	10
91	10
95	10
96	10
97	50
98	80
99	10
