Mass Spectrum: 1,3-Dimethyl-5-(adamantyl-1)benzene
Formula: C18 H24
CAS: 73861-71-9
Molecular weight: 240
Origin: B. Derendyaev, Novosibirsk Institute of Organic Chemistry
m/z	RELATIVE INTENSITY
53	269
55	279
67	249
77	719
79	1019
91	1309
93	299
95	639
105	459
107	259
115	389
119	1249
128	419
129	229
131	199
141	269
142	209
143	249
146	2049
147	229
167	259
168	459
169	279
182	269
183	9999
184	1519
185	519
240	5059
241	679
