Mass Spectrum: Trimipramine
Formula: C20 H26 N2
CAS: 739-71-9
Molecular weight: 294
Origin: Drug Lab
m/z	RELATIVE INTENSITY
40	20
41	170
42	741
43	250
44	370
45	40
50	30
51	130
52	40
53	30
54	10
55	60
56	120
58	9999
59	390
60	10
62	20
63	130
64	60
65	270
66	20
67	10
68	30
69	20
70	200
71	280
72	10
74	10
75	40
76	70
77	350
78	140
79	30
80	10
82	40
84	1742
85	230
86	160
87	20
89	420
90	190
91	811
92	60
93	10
96	20
97	30
98	70
99	1581
100	220
101	70
102	100
103	130
104	60
105	80
106	170
107	70
109	10
113	30
114	30
115	310
116	310
117	300
118	190
119	40
120	20
125	10
126	50
127	100
128	240
129	120
130	581
131	130
132	70
133	10
137	10
138	20
139	170
140	130
141	80
142	50
143	220
144	230
145	40
147	30
150	50
151	180
152	470
153	130
154	110
155	20
156	40
157	10
158	30
163	110
164	170
165	1081
166	460
167	811
168	160
169	20
176	180
177	240
178	941
179	911
180	510
181	80
182	10
188	10
189	70
190	290
191	941
192	1952
193	5125
194	3083
195	1101
196	140
202	30
203	20
204	631
205	280
206	881
207	130
208	4044
209	731
210	50
215	10
216	40
217	170
218	440
219	270
220	1091
221	240
222	30
228	10
230	30
231	10
232	210
234	3763
235	821
236	591
237	100
238	10
246	20
248	3473
249	7947
250	1471
251	140
252	10
294	1431
295	320
296	30
