Mass Spectrum: Androstan-17-one, 3,11-dihydroxy-, (3.alpha.,5.beta.,11.beta.)-
Formula: C19 H30 O3
CAS: 739-26-4
Molecular weight: 306
Origin: H. Fales, LC, NHLBI, NIH, Bethesda, MD 20892
m/z	RELATIVE INTENSITY
41	6233
42	1058
43	4770
44	1087
45	485
47	37
50	50
51	247
52	186
53	2198
54	567
55	6936
56	821
57	3389
58	256
59	154
60	95
61	68
62	42
63	70
65	1157
66	546
67	5179
68	1271
69	2898
70	1216
71	819
72	101
73	126
74	94
75	30
77	2285
78	965
79	5086
80	1036
81	3787
82	774
83	1723
84	1232
85	416
86	90
87	56
89	126
91	4892
92	1162
93	4375
94	2066
95	3475
96	1356
97	3759
98	531
99	192
100	82
101	75
102	68
103	352
104	304
105	3845
106	3203
107	3924
108	2019
109	2432
110	1347
111	847
112	249
113	130
114	93
115	505
116	232
117	1149
118	2073
119	2650
120	1252
121	1973
122	1124
123	1011
124	1424
125	450
126	236
127	318
128	344
129	774
130	369
131	1851
132	1167
133	2066
134	1461
135	1248
136	608
137	496
138	274
139	199
140	101
141	248
142	251
143	986
144	1189
145	1894
146	934
147	2259
148	1144
149	2130
150	834
151	287
152	164
153	101
154	67
155	309
156	429
157	1284
158	938
159	1784
160	1119
161	1189
162	810
163	637
164	320
165	550
166	175
167	144
168	69
169	481
170	300
171	1004
172	767
173	1497
174	2313
175	1836
176	705
177	566
178	704
179	336
180	241
181	211
182	85
183	324
184	206
185	836
186	558
187	931
188	968
189	510
190	313
191	458
192	270
193	148
194	59
195	560
196	230
197	572
198	307
199	1465
200	447
201	646
202	359
203	281
204	110
205	217
206	178
207	59
209	265
210	139
211	995
212	460
213	2116
214	1184
215	1155
216	1257
217	1340
218	327
219	206
220	45
223	92
224	85
225	112
226	1031
227	1162
228	1069
229	1402
230	362
231	549
232	776
233	247
234	262
235	76
237	1958
238	381
239	97
241	287
242	1151
243	413
244	1205
245	915
246	470
247	209
248	38
249	51
250	33
251	32
252	1042
253	267
255	2328
256	381
257	136
258	31
259	411
260	656
261	192
262	1417
263	401
264	156
269	72
270	3221
271	897
272	131
273	3185
274	663
275	90
277	91
278	44
286	64
287	51
288	1635
289	390
290	52
291	45
304	132
305	56
306	9999
307	2155
308	273
309	31
