Mass Spectrum: Androstane-11,17-dione, 3-hydroxy-, (3.alpha.,5.beta.)-
Formula: C19 H28 O3
CAS: 739-27-5
Molecular weight: 304
m/z	RELATIVE INTENSITY
41	5599
42	450
43	3050
53	1550
54	350
55	4500
56	600
57	1750
65	550
66	300
67	3425
68	1075
69	2075
70	500
71	550
77	1800
78	500
79	3750
80	800
81	2800
82	850
83	950
84	300
85	225
91	3125
92	700
93	4250
94	2750
95	2500
96	1000
97	1000
98	200
99	250
104	550
105	3500
106	2100
107	4250
108	3700
109	3950
110	1000
111	675
117	500
118	2150
119	2800
120	1000
121	3800
122	1950
123	825
124	425
125	200
129	300
131	875
132	450
133	1425
134	625
135	1175
136	300
137	650
139	250
141	250
143	325
144	275
145	1575
146	300
147	2000
148	500
149	1500
150	5049
151	700
156	225
157	300
158	225
159	500
160	300
161	500
162	450
163	3250
164	625
165	2500
166	300
167	250
173	500
174	225
175	750
176	475
177	200
178	2700
179	450
187	300
188	250
189	250
191	8049
192	1000
211	275
212	225
213	225
214	200
215	275
216	50
217	175
227	225
228	200
229	275
230	200
231	200
232	9999
233	1650
234	175
240	200
241	75
242	75
243	250
244	125
245	200
250	175
251	75
252	50
253	250
254	50
256	75
258	125
268	1425
269	950
270	300
271	4999
272	800
273	75
285	125
286	6999
287	1450
288	200
289	325
290	75
302	100
304	9999
305	2000
306	200
