Mass Spectrum: Oxirane, hexadecyl-
Formula: C18 H36 O
CAS: 7390-81-0
Molecular weight: 268
Origin: NIST Mass Spectrometry Data Center, 1998.
m/z	RELATIVE INTENSITY
15	30
26	30
27	780
29	2280
30	70
31	380
37	10
38	20
39	1160
40	260
41	8009
42	1740
43	8459
44	530
45	530
46	10
50	20
51	50
52	40
53	790
54	2280
55	9889
56	3190
57	7609
58	2740
59	810
60	30
63	10
65	180
66	720
67	6189
68	6039
69	6749
70	2660
71	9729
72	730
73	100
74	10
77	140
78	40
79	740
80	550
81	6689
82	9999
83	7059
84	1770
85	3210
86	280
87	60
91	80
92	10
93	280
94	350
95	5379
96	6699
97	5399
98	1020
99	480
100	80
101	30
105	10
107	90
108	140
109	2880
110	2030
111	2240
112	570
113	420
114	50
115	20
121	60
122	100
123	1400
124	1080
125	830
126	310
127	280
128	30
129	10
135	30
136	50
137	670
138	560
139	240
140	180
141	80
142	10
143	10
149	10
150	10
151	220
152	270
153	100
154	110
155	40
156	10
165	110
166	190
167	60
168	80
169	30
170	10
179	100
180	130
181	30
182	80
183	20
193	80
194	100
195	20
196	20
197	10
207	40
208	80
209	10
210	60
211	30
213	20
221	20
222	60
223	10
224	10
225	20
235	10
236	10
239	10
250	20
267	10
268	10
