Mass Spectrum: Isopropylbarbituric acid
Formula: C7 H10 N2 O3
CAS: 7391-69-7
Molecular weight: 170
Origin: NIST Mass Spectrometry Data Center
m/z	RELATIVE INTENSITY
15	510
16	190
17	130
18	110
26	350
27	1682
28	841
29	731
37	190
38	470
39	2662
40	701
41	3493
42	941
43	1661
44	961
51	210
52	190
53	440
54	200
55	741
56	260
61	150
67	280
68	500
69	2122
70	651
82	490
83	981
85	3974
86	290
100	1311
112	290
128	9999
129	1682
155	140
170	90
