Mass Spectrum: 1,5-Dimethylbarbituric acid
Formula: C6 H8 N2 O3
CAS: 7391-67-5
Molecular weight: 156
Origin: N.P.E. VERMEULEN, DEP. PHARM., LEIDEN UNIV., NETH.
m/z	RELATIVE INTENSITY
43	800
56	9999
70	800
85	1200
99	300
113	500
128	400
156	6200
