Mass Spectrum: 4-Toluoylacetonitrile
Formula: C10 H9 N O
CAS: 7391-28-8
Molecular weight: 159
Origin: NIST Mass Spectrometry Data Center, 1994
m/z	RELATIVE INTENSITY
12	16
13	60
14	45
15	72
17	18
18	19
26	122
27	287
28	102
29	26
37	145
38	384
39	1905
40	648
41	523
42	66
43	68
46	250
49	58
50	649
51	789
52	169
53	120
59	89
61	180
62	547
63	1354
64	391
65	2732
66	151
67	21
68	65
73	33
74	194
75	157
76	135
77	236
78	48
79	32
85	54
86	129
87	110
88	32
89	968
90	573
91	6361
92	533
101	14
102	44
103	84
104	37
105	45
115	19
116	25
119	9999
120	887
121	55
128	19
129	15
130	53
159	651
160	76
