Mass Spectrum: 2,6-Dichlorobenzyl ether
Formula: C14 H10 Cl4 O
CAS: 73927-56-7
Molecular weight: 334
Origin: NIST Mass Spectrometry Data Center
m/z	RELATIVE INTENSITY
27	10
29	50
35	10
36	10
37	20
38	50
39	190
44	10
47	10
49	50
50	350
51	310
52	20
60	20
61	110
62	370
63	961
64	70
65	20
72	40
73	500
74	500
75	1271
76	160
77	250
78	10
79	10
83	30
84	120
85	210
86	170
87	250
88	110
89	2212
90	240
91	20
96	20
97	240
98	30
99	520
100	40
101	160
102	10
105	10
107	40
108	20
109	591
110	230
111	2722
112	470
113	871
114	140
115	10
118	10
119	10
121	10
123	2302
124	1111
125	6996
126	841
127	2042
128	150
131	10
133	420
134	20
135	280
136	10
137	50
138	20
139	80
140	20
141	20
145	651
146	290
147	4084
148	430
149	2442
150	190
151	380
152	30
153	1942
154	170
155	641
156	50
157	20
159	9999
160	3984
161	6686
162	2522
163	1261
164	420
165	80
166	10
167	20
168	20
169	10
173	641
174	100
175	1732
176	170
177	931
178	70
179	140
180	10
187	110
188	2112
189	260
190	1371
191	120
192	210
193	20
198	10
199	210
200	40
201	70
202	10
233	60
234	20
235	50
236	10
237	10
299	20
301	20
334	120
335	20
336	160
337	20
338	70
339	10
340	10
