Mass Spectrum: 1,4-Benzenediamine, N,N'-diphenyl-
Formula: C18 H16 N2
CAS: 74-31-7
Molecular weight: 260
Origin: NIST Mass Spectrometry Data Center, 1998.
m/z	RELATIVE INTENSITY
27	40
30	10
37	10
38	40
39	270
40	30
41	30
42	10
50	160
51	800
52	210
53	90
54	40
61	10
62	40
63	230
64	150
65	440
66	160
67	20
69	10
70	10
74	40
75	70
76	120
77	1290
78	280
79	80
80	90
81	10
82	10
83	50
86	10
87	20
88	30
89	110
90	120
91	120
92	150
93	150
94	10
95	10
99	10
100	10
101	70
102	140
103	180
104	90
105	30
106	30
107	40
108	30
110	40
113	40
114	80
115	310
116	140
117	190
118	30
122	70
125	10
126	40
127	290
128	790
129	560
130	1030
137	10
138	20
139	330
140	280
141	140
142	50
143	160
144	20
151	20
152	40
153	70
154	520
155	210
156	340
157	70
158	10
164	40
165	60
166	810
167	2270
168	690
169	180
170	20
176	10
177	10
178	10
179	40
180	40
181	450
182	330
183	2310
184	320
185	20
189	10
190	10
191	30
192	100
193	140
194	70
195	10
202	10
203	10
204	30
205	10
206	20
207	10
215	10
216	10
217	30
218	20
219	10
220	10
227	10
228	10
229	10
230	30
231	10
232	20
233	10
241	20
242	20
243	30
244	10
245	10
254	10
255	40
256	70
257	60
258	80
259	290
260	9999
261	2080
262	200
263	10
