Mass Spectrum: Methane, bromo-
Formula: C H3 Br
CAS: 74-83-9
Molecular weight: 94
m/z	RELATIVE INTENSITY
12	50
13	90
14	210
15	4664
16	60
46	140
47	250
48	110
79	631
80	160
81	631
82	160
91	681
92	400
93	2092
94	9999
95	1491
96	9428
97	110
