Mass Spectrum: Methane, iodo-
Formula: C H3 I
CAS: 74-88-4
Molecular weight: 142
Origin: NIST Mass Spectrometry Data Center, 1990.
m/z	RELATIVE INTENSITY
12	39
13	75
14	130
15	676
16	10
63	73
71	26
124	13
127	4306
128	232
139	522
140	473
141	1737
142	9999
143	122
