Mass Spectrum: Hydroperoxide, pentyl
Formula: C5 H12 O2
CAS: 74-80-6
Molecular weight: 104
m/z	RELATIVE INTENSITY
12	80
13	100
14	460
15	2070
16	1080
17	2250
19	320
26	1460
27	7799
28	2770
29	9999
30	1000
31	2560
32	90
33	130
34	140
37	170
38	440
39	3980
40	640
41	5779
42	1860
43	3540
44	890
45	330
47	360
48	20
49	40
50	200
51	250
52	80
53	330
54	110
55	1180
56	380
57	690
58	150
59	70
63	20
65	20
67	40
68	20
69	800
70	270
71	320
72	20
104	180
