Mass Spectrum: Ethyl bromide
Formula: C2 H5 Br
CAS: 74-96-4
Molecular weight: 108
Origin: NIST Mass Spectrometry Data Center, 1994
m/z	RELATIVE INTENSITY
12	104
13	217
14	391
15	349
16	3
24	205
25	982
26	4357
27	9470
28	2901
29	9999
30	210
31	11
54	53
79	863
80	359
81	840
82	270
83	29
84	9
91	118
92	113
93	436
94	101
95	346
108	6030
109	135
110	5908
111	129
