Mass Spectrum: Methane, dibromo-
Formula: C H2 Br2
CAS: 74-95-3
Molecular weight: 172
Origin: Japan AIST/NIMC Database- Spectrum MS-NW-4074
m/z	RELATIVE INTENSITY
12	60
13	149
14	389
39	10
40	10
79	1189
80	239
81	1199
82	249
86	60
87	99
88	40
91	1119
92	519
93	9629
94	619
95	8459
96	99
158	20
160	40
162	20
170	40
171	70
172	5109
173	189
174	9999
175	179
176	4749
177	60
