Mass Spectrum: Dimethyl 3-thiaadipate
Formula: C7 H12 O4 S
CAS: 7400-45-5
Molecular weight: 192
Origin: NIST Mass Spectrometry Data Center, 1994
m/z	RELATIVE INTENSITY
12	26
13	68
14	475
15	4691
16	70
17	20
18	38
26	341
27	1430
28	1092
29	1270
30	197
31	514
32	48
33	103
34	48
35	88
36	8
37	17
38	13
39	107
40	8
41	326
42	1100
43	1757
44	8
45	9999
46	2393
47	699
48	138
49	61
50	8
51	76
53	39
55	2996
56	231
57	375
58	900
59	4270
60	494
61	614
62	44
63	53
65	3
66	5
67	2
68	8
69	18
70	5
71	48
73	963
74	2740
75	309
76	2
77	812
78	30
79	38
80	3
81	2
84	3
85	39
87	2029
88	228
89	128
90	2
91	311
92	16
93	15
95	5
98	10
99	22
100	157
101	694
102	70
103	151
104	66
105	77
106	81
107	9
108	5
113	3
114	4
116	125
118	539
119	1490
120	109
121	83
122	4
125	4
127	893
128	307
129	572
130	60
131	4
132	522
133	1875
134	131
135	92
136	5
160	2304
161	308
162	141
163	11
192	843
193	67
194	45
195	3
