Mass Spectrum: Butanoic acid, 2-ethyl-, 2-methylpropyl ester
Formula: C10 H20 O2
CAS: 74082-06-7
Molecular weight: 172
Origin: Japan AIST/NIMC Database- Spectrum MS-IW-3551
m/z	RELATIVE INTENSITY
15	50
17	10
18	40
26	60
27	1189
28	239
29	2489
30	60
31	119
32	10
33	20
37	10
38	40
39	1009
40	179
41	3779
42	649
43	6909
44	239
45	189
47	40
50	20
51	40
52	10
53	169
54	60
55	1789
56	6479
57	5829
58	259
59	80
60	129
61	20
65	10
67	30
68	30
69	289
70	629
71	9769
72	629
73	1009
74	80
75	50
78	10
81	10
83	90
84	10
85	70
86	20
87	1679
88	3239
89	449
90	30
97	40
98	70
99	9999
100	709
101	389
102	20
103	10
105	10
113	10
114	30
115	70
116	329
117	6709
118	459
119	40
129	219
130	20
142	50
143	30
144	939
145	90
157	30
172	10
