Mass Spectrum: 1,3-Dioxolane, 2-butyl-4-methyl-
Formula: C8 H16 O2
CAS: 74094-60-3
Molecular weight: 144
Origin: Philip Morris R&D
m/z	RELATIVE INTENSITY
36	19
38	7
39	598
40	131
41	3018
42	610
43	715
44	202
45	367
47	22
53	27
55	394
56	58
57	924
58	603
59	3711
60	95
63	12
68	2
69	178
70	36
71	1068
72	71
73	46
85	428
87	9999
88	455
89	58
100	119
117	5
129	2
143	226
