Mass Spectrum: Tyrosine, 3TMS derivative
Formula: C18 H35 N O3 Si3
CAS: 7415-19-2
Molecular weight: 397
Origin: A.Pleshkova, Nesmeyanov Inst.Org.Elem.Cpds, Moscow
m/z	RELATIVE INTENSITY
45	571
46	40
59	430
60	20
73	6095
74	530
75	1071
76	80
77	40
100	530
101	140
147	941
148	160
149	80
150	20
179	4644
180	761
181	210
182	20
208	641
209	80
218	9999
219	1972
220	881
221	120
222	20
280	1401
281	370
282	140
283	20
309	180
310	40
311	20
354	270
355	100
356	40
357	20
382	290
383	100
384	40
385	20
