Mass Spectrum: 3,4-Dimethoxyphenethyl alcohol
Formula: C10 H14 O3
CAS: 7417-21-2
Molecular weight: 182
Origin: A. Brossi, LC, NIDDK, NIH, Bethesda, MD 20892
m/z	RELATIVE INTENSITY
41	289
42	113
43	499
44	299
45	113
46	12
47	13
49	19
50	285
51	855
52	311
53	322
54	47
55	212
56	36
57	72
58	41
59	31
60	44
61	305
62	133
63	341
64	171
65	1002
66	297
67	148
68	44
69	77
70	41
71	28
72	3
73	15
74	62
75	54
76	81
77	994
78	750
79	503
80	192
81	81
82	24
83	25
84	13
85	18
86	15
87	17
88	12
89	324
90	423
91	691
92	129
93	97
94	185
95	109
96	23
97	22
98	12
99	7
101	8
102	18
103	79
104	19
105	614
106	651
107	1316
108	481
109	172
110	22
111	16
112	6
115	5
117	9
118	103
119	59
120	30
121	189
122	115
123	64
124	25
125	9
126	43
127	8
129	4
131	4
133	28
134	20
135	415
136	140
137	356
138	104
139	31
140	4
141	6
147	8
148	9
149	53
150	48
151	9999
152	1146
153	108
154	11
163	8
164	43
165	49
166	33
167	20
168	19
180	12
181	30
182	3125
183	353
184	39
185	4
