Mass Spectrum: Acetaldehyde, diethylhydrazone
Formula: C6 H14 N2
CAS: 7422-91-5
Molecular weight: 114
Origin: ATLAS OF MASS SPECTRA OF ORGANIC COMPOUNDS, V. A. KOPTYUG, ED.
m/z	RELATIVE INTENSITY
26	300
27	1600
28	1950
29	3250
30	4100
31	100
39	90
40	160
41	480
42	2700
43	320
44	1800
54	80
55	110
56	2000
57	480
58	900
69	90
70	450
71	1800
72	150
85	180
99	9999
100	620
113	300
114	3800
115	320
