Mass Spectrum: Hydrazine, 1,1-dibutyl-
Formula: C8 H20 N2
CAS: 7422-80-2
Molecular weight: 144
Origin: ATLAS OF MASS SPECTRA OF ORGANIC COMPOUNDS, V. A. KOPTYUG, ED.
m/z	RELATIVE INTENSITY
27	550
28	300
29	1430
30	350
31	120
39	260
41	1210
42	370
43	480
44	450
45	5130
46	290
55	200
56	120
57	1410
58	180
59	1520
70	120
84	160
86	120
87	100
101	9999
102	1010
144	1770
145	290
