Mass Spectrum: Hydrazine, 2-propenyl-
Formula: C3 H8 N2
CAS: 7422-78-8
Molecular weight: 72
Origin: ATLAS OF MASS SPECTRA OF ORGANIC COMPOUNDS, V. A. KOPTYUG, ED.
m/z	RELATIVE INTENSITY
27	1950
28	2640
29	940
30	1520
31	9999
38	430
39	2900
40	420
41	3030
42	910
43	1910
44	1430
45	4390
52	280
54	1230
55	1440
56	1180
57	410
71	820
72	5430
73	460
