Mass Spectrum: 2-Propanone, ethylhydrazone
Formula: C5 H12 N2
CAS: 7422-99-3
Molecular weight: 100
Origin: ATLAS OF MASS SPECTRA OF ORGANIC COMPOUNDS, V. A. KOPTYUG, ED.
m/z	RELATIVE INTENSITY
28	1300
29	1040
30	1300
31	230
38	80
39	910
40	350
41	1100
42	1560
43	530
44	1560
45	180
54	340
55	220
56	9999
57	650
58	190
71	470
72	420
85	6380
86	390
99	350
100	4030
101	440
