Mass Spectrum: Propanal, dimethylhydrazone
Formula: C5 H12 N2
CAS: 7422-93-7
Molecular weight: 100
Origin: ATLAS OF MASS SPECTRA OF ORGANIC COMPOUNDS, V. A. KOPTYUG, ED.
m/z	RELATIVE INTENSITY
27	1580
28	2670
29	1110
30	910
39	690
40	330
41	1060
42	4540
43	6610
44	9999
45	4910
46	270
54	260
55	240
56	1030
57	350
58	1570
59	280
71	590
72	150
85	3460
86	220
99	900
100	7240
101	640
