Mass Spectrum: Acetaldehyde, dimethylhydrazone
Formula: C4 H10 N2
CAS: 7422-90-4
Molecular weight: 86
Origin: ATLAS OF MASS SPECTRA OF ORGANIC COMPOUNDS, V. A. KOPTYUG, ED.
m/z	RELATIVE INTENSITY
27	1520
28	3260
29	330
30	3480
39	260
40	610
41	1000
42	7810
43	3260
44	9110
45	1960
55	180
56	940
58	350
71	2610
72	130
83	150
85	3050
86	9999
87	720
