Mass Spectrum: 2-Propanone, propylhydrazone
Formula: C6 H14 N2
CAS: 7423-00-9
Molecular weight: 114
Origin: ATLAS OF MASS SPECTRA OF ORGANIC COMPOUNDS, V. A. KOPTYUG, ED.
m/z	RELATIVE INTENSITY
27	990
28	1550
29	800
30	1270
31	170
32	110
39	710
40	250
41	1270
42	1200
43	560
44	150
54	300
55	210
56	9999
57	690
58	390
71	210
72	560
83	130
85	9150
86	560
99	150
113	60
114	2680
115	340
