Mass Spectrum: 1-Hexene, 3,5-dimethyl-
Formula: C8 H16
CAS: 7423-69-0
Molecular weight: 112
Origin: NIST Mass Spectrometry Data Center, 1990.
m/z	RELATIVE INTENSITY
27	2579
28	1315
29	2155
32	211
39	4128
41	9999
42	1290
43	2371
44	315
50	315
51	628
52	322
53	1659
54	1141
55	9626
56	7707
57	6603
58	319
65	290
66	160
67	955
68	781
69	5329
70	5535
71	443
77	244
79	266
81	200
83	2753
84	899
97	727
