Mass Spectrum: 2-Propanone, (1-methylethyl)hydrazone
Formula: C6 H14 N2
CAS: 7423-01-0
Molecular weight: 114
Origin: ATLAS OF MASS SPECTRA OF ORGANIC COMPOUNDS, V. A. KOPTYUG, ED.
m/z	RELATIVE INTENSITY
27	1140
28	1690
29	690
30	1290
31	290
32	290
39	970
40	340
41	1970
42	2170
43	1200
44	940
54	370
55	690
56	9999
57	1740
58	1110
71	570
72	460
82	100
83	90
99	8860
100	70
113	180
114	3150
115	310
