Mass Spectrum: 2-Pyrazoline, 1,4,5-trimethyl-
Formula: C6 H12 N2
CAS: 7423-11-2
Molecular weight: 112
Origin: ATLAS OF MASS SPECTRA OF ORGANIC COMPOUNDS, V. A. KOPTYUG, ED.
m/z	RELATIVE INTENSITY
26	210
27	1040
28	2500
29	750
30	960
38	80
39	830
40	170
41	1500
42	2540
43	670
44	120
51	100
52	100
53	310
54	330
55	460
56	5000
57	500
58	140
67	80
68	190
69	190
70	500
80	50
81	120
82	240
83	80
95	220
96	90
97	9999
98	620
111	420
112	2500
113	200
