Mass Spectrum: 1,6-Anhydro-.beta.-D-glucofuranose
Formula: C6 H10 O5
CAS: 7425-74-3
Molecular weight: 162
Origin: W.E. FRANKLIN, SOUTH. REG. RES. CENT., NEW ORLEANS, LA., USA
m/z	RELATIVE INTENSITY
14	18
15	404
19	1080
26	53
27	619
28	1169
29	1687
30	149
31	1159
39	304
41	751
42	563
43	2278
44	3026
45	1494
47	265
53	33
54	53
55	590
56	338
57	1269
58	99
59	25
60	452
61	2063
68	6
69	3152
70	1287
71	816
72	203
73	9999
74	794
81	12
83	284
84	18
85	2048
86	372
87	14
89	263
91	169
95	4
97	193
98	491
99	13
101	182
102	64
103	208
111	2
115	784
119	246
127	2
