Mass Spectrum: 2-Methoxycyclohexanone
Formula: C7 H12 O2
CAS: 7429-44-9
Molecular weight: 128
Origin: Japan AIST/NIMC Database- Spectrum MS-IW-1310
m/z	RELATIVE INTENSITY
14	10
15	159
26	70
27	599
28	369
29	699
30	40
31	119
32	20
33	20
37	10
38	50
39	669
40	149
41	2609
42	539
43	469
44	50
45	639
46	10
50	30
51	50
52	20
53	189
54	50
55	479
56	90
57	499
58	1159
59	70
63	10
65	40
66	20
67	409
68	369
69	309
70	99
71	9999
72	789
73	50
74	20
77	10
79	20
81	10
83	50
84	4249
85	469
86	30
87	40
95	20
96	30
97	60
98	2229
99	219
100	199
101	20
111	10
126	10
127	10
128	1159
129	159
130	10
