Mass Spectrum: Propanoic acid, 3-chloro-, decyl ester
Formula: C13 H25 Cl O2
CAS: 74306-06-2
Molecular weight: 248
Origin: V.Zaikin,Topchiev Inst.Petrochem.Synth.,Moscow
m/z	RELATIVE INTENSITY
27	2102
28	801
29	4174
30	120
31	200
35	20
36	80
37	50
38	50
39	1431
40	430
41	7797
42	3743
43	9308
44	631
45	140
49	140
50	110
51	150
52	70
53	490
54	1041
55	9999
56	8868
57	5785
58	260
61	70
62	90
63	3443
64	70
65	1271
66	90
67	881
68	2202
69	6406
70	8167
71	2062
72	100
73	781
74	30
77	60
79	30
80	20
81	380
82	1942
83	5645
84	4044
85	1001
86	70
87	30
89	50
90	20
91	4614
92	230
93	1581
94	50
95	190
96	681
97	3673
98	2392
99	350
100	30
101	50
106	60
107	40
108	100
109	4394
110	290
111	2752
112	2893
113	350
114	20
119	70
121	150
123	50
125	70
127	40
129	130
130	20
132	50
135	70
137	40
138	60
139	50
140	1351
141	200
146	80
148	40
149	90
150	30
155	50
157	60
163	160
165	50
166	50
185	80
186	20
213	70
