Mass Spectrum: 5-Decene, (E)-
Formula: C10 H20
CAS: 7433-56-9
Molecular weight: 140
Origin: S.A. Rang et al., IR & MS of Unsatd. Hydrocarbons, 1977
m/z	RELATIVE INTENSITY
15	35
25	6
26	50
27	1211
28	243
29	1096
30	26
36	2
37	8
38	21
39	1028
40	164
41	3837
42	1471
43	1983
44	73
45	8
50	20
51	71
52	55
53	434
54	799
55	9999
56	3773
57	1087
58	50
59	4
63	13
64	4
65	107
66	65
67	662
68	293
69	3198
70	2750
71	434
72	21
73	5
74	2
75	3
77	86
78	26
79	105
80	23
81	193
82	193
83	1005
84	959
85	250
86	18
87	7
88	5
91	25
92	3
93	11
94	3
95	52
96	92
97	1051
98	393
99	50
100	4
101	2
105	3
107	2
109	12
110	24
111	300
112	157
113	27
114	3
123	3
125	8
138	9
139	9
140	1663
141	171
142	11
