Mass Spectrum: (Z)-5-Decene
Formula: C10 H20
CAS: 7433-78-5
Molecular weight: 140
Origin: S.A. Rang et al., IR & MS of Unsatd. Hydrocarbons, 1977
m/z	RELATIVE INTENSITY
14	7
15	33
25	6
26	68
27	1461
28	355
29	1353
30	34
37	7
38	23
39	1299
40	203
41	5000
42	2121
43	2576
44	87
50	23
51	92
52	68
53	541
54	974
55	9999
56	4849
57	1136
58	53
63	10
64	6
65	130
66	82
67	704
68	355
69	3788
70	3333
71	490
72	21
78	23
79	116
80	26
81	186
82	220
83	1136
84	1082
85	254
86	17
91	31
92	6
93	10
94	4
95	38
96	92
97	974
98	423
99	31
109	7
110	27
111	304
112	169
113	16
125	7
138	6
140	1840
141	179
142	11
