Mass Spectrum: Trichloroacetic acid, pentadecyl ester
Formula: C17 H31 Cl3 O2
CAS: 74339-53-0
Molecular weight: 372
Origin: V.G.Zaikin, Petrochem. Synth. Inst., Moscow
m/z	RELATIVE INTENSITY
25	30
26	290
27	1191
28	530
29	2442
30	110
35	120
36	1091
37	120
38	581
39	1531
40	470
41	7617
42	2312
43	9999
44	1431
45	80
47	150
48	80
49	150
50	130
51	220
52	100
53	611
54	1151
55	8818
56	4794
57	9619
58	490
59	70
63	110
65	120
66	120
67	1301
68	1852
69	7497
70	4094
71	4994
72	290
76	110
77	130
78	90
79	190
80	120
81	851
82	2282
83	7557
84	2742
85	2853
86	210
87	60
89	60
91	130
93	110
94	90
95	410
96	891
97	5975
98	1752
99	741
100	80
105	80
109	170
110	330
111	3213
112	1091
113	490
114	50
117	420
118	30
119	490
120	30
121	150
123	50
124	210
125	1321
126	691
127	350
128	230
130	120
138	110
139	581
140	310
141	150
153	280
154	230
155	70
167	110
182	260
183	10
209	50
210	210
211	30
