Mass Spectrum: Codeine, TMS derivative
Formula: C21 H29 N O3 Si
CAS: 74367-14-9
Molecular weight: 371
Origin: N.W. Davies, Centr. Sci. Lab., Univ. Tasmania, Hobart, Australia
m/z	RELATIVE INTENSITY
25	60
26	240
27	530
28	10
30	480
31	1430
34	30
38	60
39	420
41	500
42	2920
43	240
45	1180
46	40
47	160
49	10
50	140
51	240
52	120
53	270
54	110
55	230
56	180
57	1150
58	710
59	2080
60	70
61	160
62	10
63	130
64	70
65	240
66	100
67	140
68	120
69	110
70	2050
71	340
72	120
73	9999
74	700
75	1490
76	260
77	400
78	200
79	100
80	140
81	600
82	330
83	200
84	120
85	10
87	90
88	50
89	300
90	130
91	460
92	130
93	150
94	1430
95	150
96	550
97	30
98	30
99	30
100	70
101	120
102	160
103	390
104	110
105	240
106	160
107	180
108	180
109	130
110	120
111	50
112	110
113	150
114	90
115	790
116	150
117	240
118	100
119	110
120	190
121	140
122	110
123	70
124	180
125	30
126	140
127	320
128	250
129	440
130	280
131	200
132	220
133	140
134	180
135	120
136	100
137	120
138	140
139	140
140	140
141	380
142	120
143	140
144	320
145	180
146	1540
147	270
148	90
149	680
150	170
151	180
152	350
153	260
154	190
155	300
156	240
157	180
158	180
159	130
160	130
161	200
162	320
163	180
164	190
165	430
166	130
167	330
168	200
169	180
170	180
171	80
172	120
173	290
174	130
175	320
176	370
177	220
178	4110
179	1770
180	320
181	300
182	290
183	170
184	230
185	320
186	290
187	210
188	1110
189	510
190	190
191	70
192	260
193	310
194	120
195	320
196	3910
197	870
198	380
199	150
200	130
201	120
202	140
203	200
204	130
205	190
206	100
207	440
208	100
209	60
210	160
211	190
212	240
213	80
214	340
215	130
216	320
217	200
218	100
219	100
220	90
221	240
222	180
223	170
224	160
225	220
226	140
227	120
228	160
229	1870
230	480
231	110
232	100
233	60
234	1350
235	580
236	230
237	180
238	180
239	130
240	120
241	150
242	330
243	110
244	40
247	60
248	90
249	60
250	120
251	90
252	100
253	180
254	270
255	180
256	60
257	70
263	50
264	70
265	80
266	280
267	140
268	160
269	130
270	120
271	60
273	30
277	100
279	130
280	320
281	260
282	630
283	240
284	150
285	200
286	60
295	70
296	70
297	240
298	240
299	410
300	70
301	60
302	50
310	40
311	50
312	210
313	930
314	510
315	190
316	50
324	100
325	60
326	40
327	50
328	110
329	30
339	40
340	70
341	30
342	100
343	650
344	180
345	50
349	30
352	30
354	70
355	60
356	850
357	300
358	70
368	30
369	30
370	1090
371	7610
372	2260
373	630
374	80
