Mass Spectrum: 2-Ketoisocaproic acid, TMS derivative
Formula: C9 H18 O3 Si
CAS: 74367-71-8
Molecular weight: 202
Origin: NIST Mass Spectrometry Data Center
m/z	RELATIVE INTENSITY
15	40
26	20
27	300
28	70
29	460
30	20
31	40
37	10
38	40
39	591
40	110
41	1461
42	430
43	1441
44	300
45	1842
46	140
47	440
48	20
49	20
50	20
51	30
52	10
53	130
54	30
55	290
56	140
57	2472
58	791
59	500
60	130
61	330
62	20
63	10
65	10
66	10
67	30
68	40
69	310
70	70
71	70
73	9999
74	1932
75	3813
76	270
77	140
83	100
84	60
85	1001
86	70
87	20
88	20
89	50
90	10
91	20
95	10
97	10
99	30
101	1872
102	190
103	150
104	10
111	10
112	10
113	20
115	130
116	891
117	861
118	110
119	40
125	10
127	40
128	10
129	40
130	110
131	280
132	30
133	20
141	10
143	1071
144	170
145	4514
146	510
147	220
148	10
156	10
157	20
158	430
159	90
160	20
169	120
170	20
171	20
187	200
188	30
189	10
202	10
