Mass Spectrum: Pentadecanoic acid, TMS derivative
Formula: C18 H38 O2 Si
CAS: 74367-22-9
Molecular weight: 314
Origin: NIST Mass Spectrometry Data Center
m/z	RELATIVE INTENSITY
15	20
26	10
27	280
28	70
29	811
30	30
31	20
39	230
40	50
41	2282
42	480
43	3083
44	220
45	741
46	50
47	360
48	20
49	10
51	10
52	10
53	160
54	170
55	2622
56	500
57	1141
58	220
59	300
60	110
61	510
62	40
63	20
65	30
66	10
67	400
68	80
69	941
70	180
71	300
72	360
73	8908
74	871
75	7337
76	500
77	350
78	10
79	140
80	20
81	430
82	80
83	540
84	240
85	190
86	110
87	80
88	60
89	270
90	50
91	90
92	10
93	100
94	10
95	400
96	70
97	410
98	340
99	200
100	20
101	110
102	30
103	40
105	210
106	30
107	80
109	130
110	30
111	180
112	120
113	40
114	10
115	110
116	701
117	9999
118	961
119	400
120	20
121	80
122	10
123	60
124	20
125	60
126	30
127	30
129	4414
130	611
131	1281
132	4164
133	781
134	200
135	70
136	10
137	10
138	10
139	20
140	10
141	20
142	20
143	300
144	60
145	2512
146	350
147	120
148	10
149	20
151	10
153	20
154	30
155	20
157	90
158	10
159	210
160	30
167	10
168	30
169	10
171	160
172	20
173	60
174	30
177	10
180	10
181	20
182	10
185	240
186	50
187	190
188	50
189	20
195	10
196	10
199	80
200	20
201	400
202	60
203	20
213	60
214	10
215	60
216	20
225	10
227	60
228	10
229	60
230	10
231	10
241	40
242	10
243	50
255	260
256	60
257	80
258	20
269	40
271	240
272	50
273	20
285	50
286	10
297	20
299	5455
300	1221
301	300
302	60
313	30
314	300
315	80
316	20
317	10
