Mass Spectrum: Behenic acid, TMS derivative
Formula: C25 H52 O2 Si
CAS: 74367-36-5
Molecular weight: 412
Origin: NIST Mass Spectrometry Data Center
m/z	RELATIVE INTENSITY
27	100
28	20
29	380
30	10
31	10
39	130
41	1551
42	400
43	3203
44	150
45	330
46	20
47	140
48	10
49	10
51	10
52	10
53	110
54	180
55	2742
56	651
57	2752
58	250
59	220
60	60
61	330
62	20
63	10
65	20
66	20
67	500
68	170
69	1351
70	320
71	871
72	320
73	7847
74	811
75	5515
76	400
77	260
78	10
79	130
80	30
81	500
82	140
83	971
84	310
85	470
86	90
87	70
88	40
89	260
90	40
91	80
92	10
93	130
94	30
95	500
96	110
97	791
98	460
99	210
100	30
101	100
102	20
103	40
105	140
106	10
107	100
108	20
109	210
110	50
111	370
112	160
113	70
114	20
115	100
116	641
117	9999
118	1001
119	420
120	20
121	130
122	20
123	80
124	30
125	110
126	40
127	40
129	4914
130	631
131	1001
132	5845
133	1501
134	330
135	140
136	20
137	30
138	20
139	50
140	20
141	30
142	20
143	340
145	4514
146	591
147	210
148	10
149	50
150	10
151	10
152	10
153	30
154	50
155	40
156	10
157	90
158	20
159	310
160	50
161	20
163	20
165	10
166	10
167	20
168	20
169	10
171	260
172	40
173	90
174	80
175	10
177	10
181	10
182	10
183	10
185	390
186	60
187	300
188	90
189	20
191	10
195	10
196	10
197	10
199	90
200	20
201	741
202	120
203	40
209	10
210	10
213	70
214	10
215	50
216	10
223	10
224	10
227	110
228	20
229	40
230	10
237	10
241	120
242	20
243	80
244	20
251	10
255	90
256	20
257	100
258	20
259	10
265	10
266	10
267	10
269	90
270	20
271	40
272	10
279	20
280	10
283	70
284	20
285	40
286	10
293	10
294	10
297	80
298	20
299	40
300	20
311	50
312	10
313	100
314	30
315	10
321	10
322	10
323	10
325	30
326	10
327	70
328	20
329	10
339	30
340	10
341	30
342	10
353	360
354	110
355	80
356	30
357	10
367	50
368	10
369	360
370	100
371	30
381	10
383	70
384	20
385	10
395	30
397	6706
398	2162
399	591
400	100
401	10
411	60
412	1541
413	510
414	140
415	30
