Mass Spectrum: 2-Oxopentanoic acid, TMS derivative
Formula: C8 H16 O3 Si
CAS: 74367-69-4
Molecular weight: 188
Origin: John Halket,Royal Holloway, University of London, UK
m/z	RELATIVE INTENSITY
14	30
15	160
16	10
26	100
27	1001
28	300
29	340
30	30
31	80
37	20
38	50
39	460
40	70
41	951
42	420
43	2122
44	320
45	1802
46	120
47	370
48	20
49	10
51	10
53	70
54	20
55	220
56	40
57	100
58	460
59	400
60	90
61	240
62	10
63	10
68	10
69	40
70	80
71	440
73	9999
74	1041
75	3033
76	200
77	100
85	20
89	10
99	50
101	500
102	50
111	10
113	30
116	100
117	90
118	10
127	10
129	831
130	110
131	250
132	30
144	200
145	50
146	10
173	60
174	10
