Mass Spectrum: 2.alpha.-Methyl-dihydrotestosterone propioate
Formula: C23 H36 O3
CAS: 7438-48-4
Molecular weight: 360
Origin: LAC, NIDDK, NIH, Bethesda, MD 20892
m/z	RELATIVE INTENSITY
41	1337
42	286
43	727
49	27
53	338
54	60
55	1291
57	9999
58	234
65	123
66	29
67	890
68	287
69	653
71	64
77	427
78	36
79	917
80	143
81	953
82	126
83	129
84	27
91	831
92	111
93	967
94	1198
95	994
96	125
97	129
105	670
106	170
107	814
108	265
109	476
110	34
111	120
115	24
117	130
118	33
119	453
120	173
121	577
122	200
123	405
124	122
125	102
131	204
132	29
133	419
134	156
135	419
136	381
137	300
138	1140
139	129
143	29
144	30
145	242
146	126
147	511
148	718
149	2047
150	328
151	294
157	63
158	53
159	264
160	101
161	687
162	292
163	285
171	67
173	190
174	78
175	284
176	118
177	451
178	70
179	29
185	59
187	168
188	27
189	144
190	54
199	112
200	150
201	440
202	201
203	105
204	25
213	116
214	135
215	192
217	68
218	26
229	113
230	23
231	160
243	150
244	132
245	525
246	70
247	59
253	26
258	285
260	58
261	69
269	29
271	1642
272	314
285	80
286	2054
287	591
288	61
360	381
361	100
