Mass Spectrum: Diphenyl isophthalate
Formula: C20 H14 O4
CAS: 744-45-6
Molecular weight: 318
Origin: NIST Mass Spectrometry Data Center
m/z	RELATIVE INTENSITY
16	10
18	20
26	10
27	40
28	30
37	40
38	150
39	1071
40	50
41	10
44	20
50	761
51	370
52	20
53	50
55	10
61	10
62	50
63	210
64	140
65	1031
66	120
67	10
69	10
74	190
75	440
76	3183
77	530
78	30
88	10
89	20
91	40
92	40
93	130
94	70
102	10
104	2202
105	220
106	20
113	20
115	681
116	60
119	10
132	30
139	130
141	1091
142	140
151	30
152	70
153	80
168	110
169	260
170	40
171	110
172	10
196	20
197	60
221	10
222	10
223	30
225	9999
226	1531
227	180
228	10
318	621
319	140
320	10
