Mass Spectrum: p-Methoxybenzylidine p-phenylazoaniline
Formula: C20 H17 N3 O
CAS: 744-66-1
Molecular weight: 315
Origin: NIST Mass Spectrometry Data Center, 1994
m/z	RELATIVE INTENSITY
38	194
39	510
40	69
50	1010
51	3042
52	271
53	51
55	61
62	161
63	698
64	493
65	394
66	72
75	376
76	1519
77	5190
78	497
79	215
89	385
90	313
91	472
92	339
93	72
102	142
103	326
104	154
105	392
107	67
113	92
114	191
115	323
116	86
119	67
126	69
127	191
128	131
133	203
134	114
139	1002
140	975
141	252
151	550
152	668
153	543
154	152
155	117
158	122
165	204
166	1189
167	3282
168	957
169	202
170	54
177	255
178	555
179	347
180	264
181	92
182	54
183	884
184	216
191	65
194	473
195	2377
196	371
208	72
210	8147
211	1329
212	121
226	63
238	452
243	81
286	94
315	9999
316	2233
317	280
