Mass Spectrum: Cyclopentane, 1,1,3-trimethyl-3-(2-methyl-2-propenyl)-
Formula: C12 H22
CAS: 74421-09-3
Molecular weight: 166
Origin: D.HENNEBERG, MAX-PLANCK INSTITUTE, MULHEIM, WEST GERMANY
m/z	RELATIVE INTENSITY
24	38
26	11
27	458
28	69
29	637
30	62
35	14
38	41
39	636
40	30
41	1621
42	78
43	685
47	44
50	25
51	77
52	23
53	450
54	63
55	4134
56	301
57	487
58	31
59	10
60	19
61	19
62	25
64	4
65	121
67	634
68	247
69	9999
70	544
71	108
73	2
74	4
75	7
76	23
77	200
78	44
79	171
80	71
81	496
82	143
83	131
84	19
87	14
90	13
91	140
92	31
93	146
94	45
95	3335
96	388
97	21
98	6
105	12
106	25
107	69
108	60
109	255
110	1748
111	6703
112	677
113	42
120	9
122	13
123	36
137	15
145	14
147	1
151	97
165	10
