Mass Spectrum: Sulfur dioxide
Formula: O2 S
CAS: 7446-09-5
Molecular weight: 64
m/z	RELATIVE INTENSITY
16	520
32	1041
33	10
34	40
48	4934
49	40
50	230
64	9999
65	90
66	490
