Mass Spectrum: 1,1'-Biphenyl, 2,2',3,4,4',5,6-Heptachloro-
Formula: C12 H3 Cl7
CAS: 74472-47-2
Molecular weight: 392
Origin: N. Todua, WGM, MMES
m/z	RELATIVE INTENSITY
41	187
42	187
44	311
47	249
48	187
49	249
50	374
51	187
60	249
61	311
62	187
63	187
71	249
72	249
73	633
74	374
75	249
77	249
78	187
83	187
84	374
85	436
86	249
87	187
91	436
92	187
94	187
95	249
96	311
97	374
98	311
99	187
101	187
105	187
106	187
107	249
108	633
109	633
110	374
111	187
112	187
113	187
114	187
118	249
119	249
120	374
121	311
122	311
123	187
126	820
127	820
128	311
129	187
130	187
131	311
132	436
133	311
134	249
135	187
141	187
142	311
143	561
145	696
146	436
147	436
148	249
149	187
150	187
153	187
154	187
155	187
156	249
157	187
158	249
159	187
161	945
162	1630
163	1007
164	374
165	187
166	187
167	187
168	187
169	249
170	187
171	187
177	187
179	436
180	374
181	436
182	633
183	249
184	249
190	187
191	187
192	187
193	187
194	187
195	311
196	561
197	498
198	311
199	187
200	187
201	187
202	187
203	249
204	249
205	187
206	187
214	187
215	187
216	311
217	436
218	311
219	374
220	249
226	187
228	187
230	187
237	187
239	187
240	187
242	187
249	187
250	187
251	249
252	1506
253	436
254	1568
255	249
256	561
257	187
258	187
262	187
263	187
264	187
272	187
273	187
274	187
275	187
276	187
286	311
287	436
288	374
289	561
290	311
291	374
292	187
322	3769
323	561
324	5659
325	820
326	3894
327	561
328	1194
329	187
330	249
331	187
356	1256
357	374
358	2326
359	498
361	1952
362	436
363	758
364	187
365	249
392	4527
393	633
394	9999
395	1319
396	9739
397	1194
398	5088
399	758
400	1692
401	249
402	311
403	187
404	187
