Mass Spectrum: 1,1'-Biphenyl, 2,3,3',4,6-Pentachloro-
Formula: C12 H5 Cl5
CAS: 74472-35-8
Molecular weight: 324
Origin: T.L.Hayes, Battelle Columbus Laboratories, Columbus, OH 43221
m/z	RELATIVE INTENSITY
35	136
36	121
37	227
38	217
39	240
47	166
48	61
49	291
50	713
51	456
55	36
60	276
61	735
62	538
63	299
65	48
67	82
71	124
72	330
73	909
74	1318
75	860
76	113
78	128
79	292
80	59
83	118
84	666
85	853
86	658
87	251
88	77
91	490
92	1036
93	330
94	83
95	97
96	312
97	669
98	1273
99	655
100	113
101	59
106	123
107	289
108	1018
109	2110
110	1867
111	605
112	63
113	94
114	160
115	139
116	85
118	161
119	96
120	429
121	469
122	794
123	657
124	104
127	2685
128	2215
129	819
131	154
132	507
133	386
134	324
135	178
136	78
137	98
141	36
142	138
143	225
144	905
145	1247
146	1020
147	584
148	543
149	880
150	116
153	37
155	70
156	145
157	198
158	165
159	200
160	131
162	461
163	583
164	389
165	111
167	178
168	151
169	196
170	192
171	122
172	93
178	67
179	73
180	87
181	159
182	229
183	651
184	3116
185	532
186	927
187	133
192	114
194	192
195	65
196	98
198	67
203	145
204	98
205	135
215	41
216	57
217	140
218	885
219	675
220	594
221	429
222	166
223	98
227	42
228	88
229	46
230	110
232	42
238	59
240	79
241	39
242	46
243	37
252	65
253	83
254	4994
255	724
256	4747
257	625
258	1536
259	252
260	174
264	65
266	36
275	37
288	157
289	188
290	266
291	229
292	149
293	143
294	55
295	42
324	6404
325	841
326	9999
327	1331
328	6210
329	926
330	2110
331	283
332	338
333	50
334	40
