Mass Spectrum: 1,1'-Biphenyl, 2,3,3',4,5,5',6-heptachloro-
Formula: C12 H3 Cl7
CAS: 74472-51-8
Molecular weight: 392
Origin: T.L.Hayes, Battelle Columbus Laboratories, Columbus, OH 43221
m/z	RELATIVE INTENSITY
31	9
32	245
35	648
36	1248
37	618
38	640
39	113
40	46
41	132
42	74
43	179
44	107
45	48
47	541
48	123
49	523
50	940
51	185
52	23
53	11
54	31
55	155
56	68
57	66
58	48
59	95
60	656
61	1139
62	467
63	164
64	9
66	94
67	160
68	20
69	89
70	29
71	435
72	813
73	2111
74	1382
75	619
76	45
77	70
78	420
79	272
80	13
81	40
82	124
83	380
84	1362
85	1550
86	661
87	236
88	32
90	1041
91	1333
93	10
94	224
95	626
96	1051
97	1345
98	984
99	280
101	64
102	162
103	72
104	25
105	16
106	357
107	937
108	2846
109	2882
110	1266
111	379
112	36
113	238
114	239
115	151
116	22
117	88
118	544
119	526
120	1411
121	915
122	1021
123	246
126	3805
127	3071
128	1152
129	103
130	251
131	609
132	1991
133	981
134	771
135	266
136	72
137	71
138	30
139	50
140	39
141	275
142	829
143	2513
144	3994
145	2575
146	2252
147	715
148	200
149	180
150	123
151	45
153	98
154	180
155	278
156	786
157	512
158	428
159	185
161	4627
162	6540
163	4386
164	1545
165	369
166	259
167	423
168	353
169	488
170	160
171	183
172	41
173	52
177	195
178	736
179	1535
180	1824
181	1545
182	2167
183	597
184	596
185	104
188	47
189	62
190	164
191	163
192	261
193	219
194	153
195	127
196	600
197	1286
198	1297
199	671
200	247
201	135
202	245
203	182
204	386
205	272
206	271
207	201
208	73
209	22
210	12
212	96
213	49
214	153
215	220
216	976
217	1325
218	781
219	803
220	218
221	150
222	29
223	30
225	21
226	206
227	84
228	323
229	88
230	210
231	40
232	53
235	19
236	17
237	184
238	83
239	259
240	117
241	165
242	81
243	43
244	23
245	11
247	19
249	100
250	212
251	419
252	4327
253	907
254	4040
255	613
256	1356
257	179
258	170
259	37
260	14
261	40
262	104
263	66
264	138
265	54
266	62
267	42
268	12
271	8
272	113
273	40
274	167
275	114
276	113
277	88
278	58
279	35
281	17
283	36
285	50
286	557
287	813
288	844
289	974
290	550
291	450
292	185
293	104
294	37
295	21
296	43
298	73
299	12
300	35
302	37
306	13
308	6
310	26
311	44
312	5
313	20
314	16
315	7
316	6
317	7
319	17
320	11
321	46
322	5704
323	832
324	8981
325	1222
326	5913
327	738
328	1952
329	227
330	330
331	54
332	32
336	8
337	8
339	9
342	17
345	11
347	32
350	12
354	11
357	149
359	273
360	70
361	239
362	132
363	101
364	60
365	40
366	8
368	7
369	12
373	10
376	15
378	15
384	10
392	4641
393	512
394	9999
395	1256
396	9451
397	1159
398	5071
399	597
400	1578
401	222
402	340
403	32
404	61
