Mass Spectrum: 1,1'-Biphenyl, 2,2',3,4,4',5,6,6'-octachloro-
Formula: C12 H2 Cl8
CAS: 74472-52-9
Molecular weight: 426
Origin: Organic Synthesis Lab, MSU, Moscow.TRC 1183
m/z	RELATIVE INTENSITY
41	19
43	12
44	128
45	16
47	24
49	25
50	22
56	14
60	31
61	38
62	17
66	12
71	21
72	33
73	79
74	39
75	7
78	22
79	16
84	57
85	78
86	20
90	88
91	38
95	50
96	38
97	48
98	32
103	10
106	19
108	189
109	132
110	31
111	13
113	14
114	14
118	26
119	53
120	68
121	61
122	38
123	7
130	14
131	45
132	124
133	49
134	35
141	17
142	79
143	284
144	356
145	241
146	142
147	25
149	23
150	11
154	9
155	28
156	60
157	22
158	17
161	122
166	50
167	30
168	32
169	27
170	20
177	19
178	300
179	528
180	575
181	263
182	62
183	31
188	8
190	18
191	25
192	39
194	12
203	25
204	13
207	12
213	111
214	208
215	326
216	372
217	114
218	134
219	28
220	34
227	20
228	24
238	36
239	32
240	42
241	25
242	18
250	73
251	148
252	92
253	157
254	41
255	42
256	11
262	23
264	31
271	10
273	23
274	17
275	12
277	9
285	34
286	742
287	125
288	987
289	137
290	509
291	63
292	97
293	12
298	20
308	17
309	11
310	12
311	20
320	54
321	215
322	129
323	374
324	103
325	248
326	72
327	89
328	20
329	16
356	1629
357	259
358	3304
359	498
360	2778
361	305
362	1179
363	164
364	287
365	29
366	36
390	16
391	61
392	40
393	132
394	76
395	149
396	68
397	60
398	29
399	28
426	3322
427	479
428	8898
429	1141
430	9999
431	1238
432	6295
433	754
434	2493
435	303
436	597
437	83
438	95
