Mass Spectrum: Uridine, 2TMS, TBDMS derivative
Formula: C21 H42 N2 O6 Si3
CAS: 74518-78-8
Molecular weight: 502
Origin: ASES Database, Dalian Institute, P.R. China
m/z	RELATIVE INTENSITY
73	9678
74	990
89	2312
90	290
103	6425
104	510
129	2692
131	980
147	6475
148	2802
169	8327
170	1000
189	5995
190	1281
211	500
217	6555
219	7026
243	1591
244	390
299	9999
300	2582
333	400
355	400
445	2382
446	390
487	1201
