Mass Spectrum: Uridine, 2TMS, TBDMS derivative
Formula: C21 H42 N2 O6 Si3
CAS: 74518-77-7
Molecular weight: 502
Origin: ASES Database, Dalian Institute, P.R. China
m/z	RELATIVE INTENSITY
73	5915
74	590
103	5414
104	390
147	4263
148	790
169	9999
170	990
191	4564
192	390
211	790
241	1000
242	1401
262	690
265	4484
271	790
333	290
341	390
343	1491
445	8147
446	2482
487	490
