Mass Spectrum: Butanoic acid, 2-methyl-, ethyl ester
Formula: C7 H14 O2
CAS: 7452-79-1
Molecular weight: 130
Origin: NIST Mass Spectrometry Data Center, 1990.
m/z	RELATIVE INTENSITY
14	7
15	123
26	369
27	1813
28	823
29	3504
30	155
31	130
38	117
39	1187
41	4353
42	356
43	394
44	90
45	840
51	93
53	223
54	126
55	1027
56	1945
57	9999
58	435
59	167
69	293
71	56
73	861
74	2798
75	288
85	3710
86	232
87	1416
88	127
102	6343
103	616
115	870
130	113
