Mass Spectrum: 1,1,2-Ethanetricarboxylic acid, triethyl ester
Formula: C11 H18 O6
CAS: 7459-46-3
Molecular weight: 246
Origin: Japan AIST/NIMC Database- Spectrum MS-NW-7600
m/z	RELATIVE INTENSITY
12	30
13	20
14	70
15	259
16	30
17	70
18	259
19	119
24	30
25	129
26	869
27	3499
28	929
29	7299
30	179
31	979
32	10
37	10
38	10
39	60
40	20
41	109
42	229
43	619
44	929
45	1039
46	159
47	159
51	10
52	10
53	179
54	269
55	4989
56	449
57	109
58	60
59	80
60	40
61	10
63	10
68	10
69	109
70	20
71	229
72	479
73	3069
74	189
75	80
77	10
78	10
81	50
82	139
83	169
84	30
85	50
86	60
87	70
88	20
89	30
93	10
94	10
95	10
96	10
97	10
98	40
99	3519
100	4089
101	2189
102	319
103	40
104	10
105	10
108	10
109	20
110	40
111	10
112	10
113	20
114	20
115	60
116	10
117	849
118	40
119	10
121	10
122	10
125	30
126	309
127	6639
128	5529
129	1089
130	129
131	10
132	10
133	30
136	10
139	10
140	10
141	20
143	40
144	50
145	2589
146	209
147	50
148	10
149	10
150	10
151	10
153	10
154	799
155	1979
156	169
157	50
158	10
159	10
160	10
163	10
167	10
168	10
170	10
171	20
172	189
173	9999
174	1989
175	239
176	30
182	10
183	10
185	20
187	10
189	10
190	10
191	10
194	10
198	10
199	10
200	929
201	3359
202	419
203	60
204	10
213	10
214	10
215	10
218	159
219	149
220	20
228	20
246	40
247	10
