Mass Spectrum: 4-Chlorobenzamide, N-(4-bromophenyl)-
Formula: C13 H9 Br Cl N O
CAS: 7461-40-7
Molecular weight: 309
Origin: Zaikin V.G., TIPS RAS, Moscow, Russia
m/z	RELATIVE INTENSITY
28	10
36	40
38	60
39	70
44	30
50	230
51	120
52	30
61	30
62	50
63	260
64	190
65	120
74	120
75	891
76	370
77	80
85	70
90	90
91	350
92	80
104	170
105	30
110	50
111	2382
112	200
113	801
114	60
117	30
119	30
138	30
139	9999
140	771
141	3413
142	240
143	120
145	100
155	30
157	30
166	50
167	50
170	50
171	120
172	70
173	110
183	50
185	60
229	60
231	40
309	1702
310	260
311	2222
312	330
313	571
314	70
