Mass Spectrum: 1-Undecene, 5-methyl-
Formula: C12 H24
CAS: 74630-38-9
Molecular weight: 168
Origin: D.HENNEBERG, MAX-PLANCK INSTITUTE, MULHEIM, WEST GERMANY
m/z	RELATIVE INTENSITY
24	18
25	45
26	126
27	1686
28	275
29	2973
30	83
34	14
36	45
37	23
38	29
39	1437
40	207
41	6343
42	1073
43	9622
44	151
45	23
46	9
48	7
49	26
50	33
51	71
52	52
53	439
54	472
55	7203
56	9999
57	8732
58	425
59	16
63	32
65	106
66	69
67	846
68	542
69	3918
70	3511
71	2834
72	166
73	23
77	146
78	23
79	75
80	25
81	240
82	849
83	3447
84	1405
85	850
86	71
91	15
93	9
95	77
96	52
97	770
98	1088
99	192
100	4
105	6
106	4
107	8
110	195
111	1696
112	381
113	32
115	4
126	726
127	91
139	6
140	32
168	70
169	19
