Mass Spectrum: p-Methoxybenzoic acid, 2-chlorophenyl ester
Formula: C14 H11 Cl O3
CAS: 7465-89-6
Molecular weight: 262
Origin: Zaikin V.G., TIPS RAS, Moscow, Russia
m/z	RELATIVE INTENSITY
28	10
38	30
39	30
50	50
51	30
63	170
64	220
65	30
73	40
75	40
76	80
77	591
78	50
92	500
93	30
99	70
104	30
107	340
108	30
128	30
135	9999
136	731
137	60
152	260
262	70
