Mass Spectrum: 4-Methoxybenzenamide, N-(4-bromophenyl)-
Formula: C14 H12 Br N O2
CAS: 7465-96-5
Molecular weight: 305
Origin: Zaikin V.G., TIPS RAS, Moscow, Russia
m/z	RELATIVE INTENSITY
28	10
38	30
39	40
50	50
51	40
63	160
64	250
65	70
75	30
76	90
77	731
78	60
79	40
90	30
91	110
92	661
93	50
104	50
107	450
108	40
135	9999
136	761
137	60
143	20
171	70
173	70
225	50
305	851
306	130
307	831
308	130
