Mass Spectrum: Cyclopropane, nonyl-
Formula: C12 H24
CAS: 74663-85-7
Molecular weight: 168
Origin: D.HENNEBERG, MAX-PLANCK INSTITUTE, MULHEIM, WEST GERMANY
m/z	RELATIVE INTENSITY
24	22
25	23
26	175
27	1994
28	401
29	4024
30	107
31	15
32	63
33	10
34	13
35	16
37	44
38	61
39	1777
40	334
41	7091
42	2832
43	8506
44	176
45	1
47	10
48	11
49	17
50	66
51	87
52	56
53	633
54	1232
55	9999
56	9125
57	5687
58	231
60	6
61	2
62	7
63	22
64	2
65	105
66	141
67	1168
68	1918
69	7332
70	6737
71	1552
72	76
75	10
77	57
78	12
79	86
80	15
81	318
82	1460
83	5070
84	3055
85	732
86	43
88	8
91	11
92	2
95	55
96	520
97	3155
98	1529
99	136
100	2
109	7
110	144
111	1093
112	630
113	39
124	33
125	291
126	143
127	16
138	3
139	81
140	282
141	25
168	71
169	13
