Mass Spectrum: Cyclohexane, 1,1'-(1,2-dimethyl-1,2-ethanediyl)bis-
Formula: C16 H30
CAS: 74663-71-1
Molecular weight: 222
Origin: D.HENNEBERG, MAX-PLANCK INSTITUTE, MULHEIM, WEST GERMANY
m/z	RELATIVE INTENSITY
24	51
25	34
26	117
27	716
28	1596
29	1467
30	38
34	7
35	27
36	117
37	76
38	44
39	674
40	1264
41	4689
42	368
43	1751
44	164
45	7
48	6
49	12
50	29
51	64
52	36
53	383
54	516
55	6779
56	868
57	2879
58	136
59	20
61	30
62	9
63	11
64	5
65	103
66	145
67	1508
68	499
69	9999
70	667
71	660
72	23
75	7
77	123
78	53
79	188
80	190
81	2117
82	1725
83	5075
84	402
85	165
86	20
91	53
93	17
95	366
96	157
97	1458
98	120
99	25
105	66
106	12
108	18
109	466
110	3327
111	4604
112	417
113	18
123	47
125	9
137	3
138	419
139	481
140	41
