Mass Spectrum: 2-Pentanol, 3-chloro-4-methyl-, (R*,S*)-(.+/-.)-
Formula: C6 H13 Cl O
CAS: 74685-48-6
Molecular weight: 136
Origin: D.HENNEBERG, MAX-PLANCK INSTITUTE, MULHEIM, WEST GERMANY
m/z	RELATIVE INTENSITY
25	6
26	60
27	770
28	284
29	829
30	23
31	59
35	33
36	340
37	39
38	148
39	681
40	126
41	1824
42	281
43	6206
44	382
45	9999
46	215
47	23
48	3
49	24
50	34
51	49
52	17
53	101
54	31
55	325
56	336
57	1002
58	1817
59	142
60	6
61	9
62	6
63	36
65	38
66	7
67	195
68	14
69	234
70	13
71	39
72	41
73	14
75	17
76	221
77	31
78	80
79	22
80	6
81	15
82	47
83	137
84	73
85	538
86	28
90	52
91	17
92	22
93	8
94	5
98	4
99	3
100	407
101	29
103	10
105	3
121	14
