Mass Spectrum: 2,4-Dodecadiene, (E,Z)-
Formula: C12 H22
CAS: 74685-27-1
Molecular weight: 166
Origin: D.HENNEBERG, MAX-PLANCK INSTITUTE, MULHEIM, WEST GERMANY
m/z	RELATIVE INTENSITY
22	13
25	13
26	58
27	1182
28	232
29	1232
30	27
34	5
35	10
36	2
37	38
38	42
39	1101
40	251
41	2967
42	295
43	1484
44	376
45	7
47	26
48	4
49	9
50	84
51	217
52	175
53	1173
54	597
55	1662
56	236
57	247
58	13
62	20
63	68
64	36
65	322
66	601
67	3520
68	9999
69	1109
70	218
71	29
72	13
74	15
75	52
76	36
77	677
78	372
79	1752
80	603
81	5830
82	2251
83	278
84	45
85	7
86	6
89	12
91	284
92	94
93	275
94	113
95	1185
96	402
97	71
98	35
102	13
103	12
104	9
105	46
106	14
107	58
108	19
109	261
110	172
111	34
112	4
115	50
116	7
117	11
119	2
121	7
123	99
124	106
125	14
127	18
128	49
129	25
130	11
131	4
137	35
141	14
142	2
151	9
152	29
153	26
154	18
155	14
156	18
158	9
164	65
165	5
166	871
167	111
