Mass Spectrum: 3-Nonen-5-yne, 4-ethyl-
Formula: C11 H18
CAS: 74685-67-9
Molecular weight: 150
Origin: D.HENNEBERG, MAX-PLANCK INSTITUTE, MULHEIM, WEST GERMANY
m/z	RELATIVE INTENSITY
26	372
27	1114
28	212
29	2133
30	56
31	12
36	7
39	1174
40	201
41	3161
42	160
43	2091
44	64
49	12
50	71
51	608
52	294
53	1294
54	150
55	3073
56	163
57	231
58	22
59	18
61	6
62	8
63	231
64	126
65	1439
66	397
67	1586
68	133
69	439
70	33
71	62
72	27
73	11
75	72
76	70
77	5360
78	1152
79	9033
80	829
81	960
82	159
83	24
85	12
86	10
89	126
90	62
91	6237
92	765
93	9999
94	1013
95	364
96	44
97	19
98	16
99	17
100	18
101	16
102	35
103	403
104	167
105	2382
106	628
107	2809
108	319
109	165
110	18
111	14
115	105
116	43
117	143
118	36
119	440
120	171
121	6637
122	1275
123	136
124	28
125	14
131	16
133	59
134	32
135	1125
136	155
137	78
138	14
149	46
150	7951
151	939
152	85
