Mass Spectrum: 2-Cyanobenzaldehyde
Formula: C8 H5 N O
CAS: 7468-67-9
Molecular weight: 131
Origin: Chuck Anderson, Aldrich Chemical Co.
m/z	RELATIVE INTENSITY
25	23
26	145
27	247
28	89
29	427
36	48
37	278
38	264
39	301
40	8
43	11
48	30
49	200
50	1366
51	845
52	305
53	56
60	29
61	129
62	138
63	151
64	70
65	26
72	18
73	133
74	548
75	1384
76	3183
77	296
78	20
84	16
85	37
86	46
87	49
88	43
98	24
99	202
100	95
101	48
102	2859
103	9999
104	2230
105	132
130	1852
131	566
132	59
