Mass Spectrum: Naphthalene, 1,2-dihydro-4-phenyl-
Formula: C16 H14
CAS: 7469-40-1
Molecular weight: 206
Origin: NIST Mass Spectrometry Data Center, 1990.
m/z	RELATIVE INTENSITY
15	61
17	9
18	44
27	437
28	42
29	19
32	3
37	22
38	93
39	761
40	65
41	57
50	420
51	1095
52	192
53	82
61	46
62	306
63	926
64	128
65	279
66	20
67	29
69	83
74	423
75	713
76	1004
77	967
78	329
79	24
81	142
82	468
85	34
86	199
87	414
88	901
89	1623
90	24
91	4497
92	356
93	24
94	741
98	139
99	187
100	566
101	1824
102	886
103	462
109	17
110	57
111	89
112	19
113	135
114	17
115	863
116	87
122	43
123	33
124	17
125	89
126	479
127	1234
128	3504
129	1488
130	130
135	16
137	44
138	57
139	312
140	44
141	113
142	21
149	82
150	425
151	493
152	670
153	134
154	11
161	36
162	77
163	339
164	304
165	1521
166	211
167	25
173	18
174	118
175	180
176	596
177	357
178	1538
179	867
180	119
187	108
189	1509
190	1452
191	5362
192	872
193	73
198	38
199	87
200	529
201	616
202	2608
203	2518
204	1756
205	3319
206	9999
207	1728
208	145
209	16
