Mass Spectrum: Bromobutide
Formula: C15 H22 Br N O
CAS: 74712-19-9
Molecular weight: 311
Origin: NIST Mass Spectrometry Data Center
m/z	RELATIVE INTENSITY
15	20
26	10
27	190
28	70
29	370
30	40
38	20
39	530
40	70
41	1682
42	661
43	150
44	70
50	90
51	360
52	100
53	300
54	90
55	831
56	160
57	571
58	661
59	50
62	20
63	70
64	20
65	200
66	30
67	80
68	30
69	520
70	80
71	50
72	30
73	10
74	20
75	30
76	80
77	1011
78	410
79	500
80	60
81	30
82	140
83	761
84	70
85	10
86	10
87	10
89	70
91	3523
92	310
93	40
94	20
95	50
96	20
97	40
98	50
99	90
100	30
101	20
102	100
103	621
104	771
105	150
106	20
107	50
108	10
109	20
110	10
112	30
113	20
114	771
115	340
116	90
117	771
118	4274
119	9999
120	7136
121	651
122	50
123	10
128	20
129	10
130	30
131	40
132	70
133	40
134	190
135	80
136	30
137	390
138	90
139	360
140	20
142	10
143	10
144	10
145	10
146	100
147	20
149	70
150	10
151	70
152	10
154	10
157	10
158	10
159	10
160	70
161	20
162	10
163	10
171	10
174	30
175	20
176	200
177	50
178	60
179	10
180	60
194	30
196	40
198	20
200	10
202	10
206	20
208	20
216	10
232	1471
233	280
234	30
236	10
255	240
256	30
257	250
258	30
296	270
297	40
298	270
299	50
311	120
312	20
313	110
314	20
