Mass Spectrum: p-Benzanisidide
Formula: C14 H13 N O2
CAS: 7472-54-0
Molecular weight: 227
Origin: Japan AIST/NIMC Database- Spectrum MS-NW-4120
m/z	RELATIVE INTENSITY
15	20
17	10
18	30
26	20
27	50
28	80
29	10
37	10
38	40
39	90
41	119
50	179
51	639
52	249
53	119
54	10
55	10
62	30
63	90
64	80
65	80
66	10
67	20
68	10
74	50
75	50
76	119
77	3169
78	279
79	90
80	90
81	20
90	20
91	20
92	30
95	259
96	20
103	20
104	40
105	9999
106	819
107	70
108	30
109	20
122	329
123	60
124	189
125	10
127	10
128	10
134	30
139	20
149	20
154	30
155	10
167	20
182	10
183	20
198	10
210	10
211	10
226	50
227	5109
228	819
229	80
