Mass Spectrum: 6-Benzoylhexanoic acid
Formula: C13 H16 O3
CAS: 7472-43-7
Molecular weight: 220
Origin: NIST Mass Spectrometry Data Center, 1994
m/z	RELATIVE INTENSITY
15	21
17	52
18	127
26	57
27	824
28	304
29	343
30	5
36	38
37	18
38	66
39	724
40	131
41	904
42	409
43	247
44	34
45	726
46	22
47	16
49	26
50	502
51	1833
52	168
53	174
54	16
55	865
56	77
57	64
58	13
60	232
61	18
62	30
63	96
64	23
65	135
66	24
67	58
68	56
69	196
70	34
71	28
73	101
74	27
75	110
76	317
77	5463
78	776
79	103
80	23
81	23
83	42
86	31
87	18
89	40
91	234
92	71
93	15
95	13
97	34
98	49
102	26
103	58
105	9999
106	791
107	63
115	81
116	23
117	34
118	23
120	4803
121	546
122	49
125	19
127	18
128	51
129	67
130	17
131	35
132	17
133	323
134	43
142	22
143	16
145	37
146	29
147	14
157	36
159	13
161	24
173	27
174	53
175	16
184	16
188	21
201	52
202	284
203	43
216	46
220	37
