Mass Spectrum: N-(2-Chloroethyl)-1,8-naphthalimide
Formula: C14 H10 Cl N O2
CAS: 74732-00-6
Molecular weight: 259
Origin: NIST Mass Spectrometry Data Center, 1994
m/z	RELATIVE INTENSITY
49	685
50	650
51	685
62	697
63	1506
74	582
75	1368
76	1154
77	1426
86	331
87	624
91	415
98	639
99	663
100	538
101	430
113	590
114	639
125	1176
126	4573
127	3344
139	429
140	1116
141	236
151	403
152	4181
153	4158
154	1850
155	1482
169	528
180	7520
181	989
197	9999
198	1800
210	6084
211	949
222	1002
223	766
224	7318
225	1403
259	9652
260	1486
261	3133
262	472
