Mass Spectrum: 5-Undecen-3-yne, (E)-
Formula: C11 H18
CAS: 74744-31-3
Molecular weight: 150
Origin: D.HENNEBERG, MAX-PLANCK INSTITUTE, MULHEIM, WEST GERMANY
m/z	RELATIVE INTENSITY
23	9
25	23
26	95
27	1495
28	99
29	1982
30	46
31	10
33	24
34	31
35	19
36	4
37	57
38	92
39	1775
40	270
41	2734
42	318
43	677
44	17
45	11
46	11
47	13
48	10
49	22
50	202
51	720
52	452
53	737
54	303
55	1161
56	124
57	348
58	44
59	15
60	5
61	27
62	74
63	306
64	114
65	1198
66	349
67	943
68	162
69	127
70	55
71	31
72	17
73	13
74	63
75	237
76	85
77	4390
78	1329
79	9999
80	3875
81	634
82	165
83	52
84	18
85	4
86	8
87	16
88	6
89	105
90	42
91	2670
92	329
93	2238
94	278
95	114
96	114
97	18
99	5
101	4
102	13
103	65
104	23
105	253
106	66
107	794
108	224
109	65
110	5
115	40
116	10
117	25
118	3
119	53
120	15
121	770
122	101
123	4
128	6
129	7
131	9
133	4
135	117
136	10
141	3
146	3
148	15
149	14
150	1560
151	203
152	10
