Mass Spectrum: Erythro-Pentonic acid, 2-deoxy-3,4,5-tris-O-(trimethylsilyl)-, trimethylsilyl ester
Formula: C17 H42 O5 Si4
CAS: 74742-30-6
Molecular weight: 438
Origin: D.HENNEBERG, MAX-PLANCK INSTITUTE, MULHEIM, WEST GERMANY
m/z	RELATIVE INTENSITY
24	1
25	9
26	32
27	37
28	217
29	47
30	16
31	16
33	2
36	17
37	8
39	44
40	25
41	64
42	73
43	165
44	197
45	659
46	49
47	230
48	11
49	24
50	14
51	6
52	14
53	84
54	45
55	182
56	5
57	28
58	45
59	306
60	27
61	37
62	6
63	16
64	14
65	20
66	37
67	17
68	53
69	47
70	32
71	48
72	185
73	9999
74	809
75	1738
76	111
77	162
78	2
79	13
80	5
81	7
83	5
85	28
86	10
87	35
88	29
89	53
90	13
91	6
92	2
93	159
94	14
95	52
96	54
97	259
98	22
99	27
100	14
101	410
102	65
103	470
104	29
105	52
106	19
107	9
108	9
109	7
110	8
111	18
112	9
113	22
114	20
115	37
116	433
117	770
118	97
119	65
120	6
121	12
122	3
125	5
127	101
128	10
129	727
130	88
131	137
132	25
133	317
134	72
135	34
136	6
138	8
139	14
140	11
141	24
142	38
143	89
144	13
145	25
146	19
147	2116
148	347
149	253
150	38
151	16
152	7
156	67
157	22
158	9
159	13
161	24
162	6
163	51
164	6
165	1
166	5
169	27
170	9
171	8
172	5
173	26
174	10
175	77
176	12
177	32
179	12
180	2
182	6
183	4
184	1
185	10
187	11
188	6
189	422
190	270
191	368
192	65
193	28
195	8
196	1
197	6
198	1
200	4
201	51
202	26
203	50
204	395
205	815
206	208
207	109
208	18
209	2
210	2
213	32
214	1
215	95
216	40
217	731
218	163
219	87
220	11
221	58
222	18
223	7
224	2
226	3
229	11
230	65
231	50
232	21
233	424
234	107
235	42
236	9
237	4
238	1
242	2
243	33
244	8
245	84
246	24
247	15
248	5
249	2
251	2
252	2
253	2
254	2
255	3
256	9
257	3
258	13
259	80
260	16
261	14
262	5
263	18
264	6
265	1
275	6
277	13
278	1
280	7
286	1
287	2
289	14
290	8
291	19
292	9
293	10
294	11
295	2
302	5
304	15
305	94
306	303
307	113
308	40
309	44
310	11
311	5
321	9
322	1
323	2
331	3
333	16
334	11
335	44
336	6
345	11
348	9
349	12
350	6
351	1
385	2
396	1
