Mass Spectrum: 4-Hexadecen-6-yne, (E)-
Formula: C16 H28
CAS: 74744-51-7
Molecular weight: 220
Origin: D.HENNEBERG, MAX-PLANCK INSTITUTE, MULHEIM, WEST GERMANY
m/z	RELATIVE INTENSITY
26	182
27	2782
28	1000
29	4551
30	113
32	3
33	41
35	27
36	44
37	89
38	34
39	2555
40	348
41	7227
42	765
43	5668
44	751
47	13
48	48
49	24
50	213
51	824
52	851
53	1120
54	1020
55	5506
56	593
57	1772
58	151
59	48
61	51
62	65
63	282
64	231
65	2286
66	968
67	9999
68	1451
69	2703
70	282
71	317
74	65
75	327
76	172
77	3024
78	1941
79	9686
80	2968
81	3437
82	1003
83	613
84	72
85	155
86	13
88	51
89	189
91	3417
92	851
93	6396
94	1803
95	1768
96	455
97	165
98	65
101	37
102	75
103	231
104	231
105	1255
106	351
107	3779
108	793
109	2175
110	244
111	34
115	303
116	117
117	379
118	268
119	379
120	144
121	1803
122	517
123	106
124	82
125	6
127	58
128	172
129	155
130	79
131	206
132	34
133	120
134	20
135	1079
136	572
137	131
138	10
141	51
143	79
145	20
147	48
148	41
149	1058
150	641
151	75
152	48
155	34
163	241
164	68
165	58
166	13
167	24
169	20
177	231
178	100
179	62
191	106
202	37
203	51
204	62
205	27
216	24
218	79
220	337
221	79
