Mass Spectrum: 3-Tetradecen-5-yne, (E)-
Formula: C14 H24
CAS: 74744-44-8
Molecular weight: 192
Origin: D.HENNEBERG, MAX-PLANCK INSTITUTE, MULHEIM, WEST GERMANY
m/z	RELATIVE INTENSITY
22	12
23	15
24	18
25	89
26	345
27	3237
28	1829
29	5710
30	181
33	27
34	31
35	32
36	21
37	109
38	108
39	2412
40	316
41	6145
42	772
43	5279
44	292
47	62
48	42
49	42
50	173
51	1017
52	625
53	1151
54	720
55	5785
56	681
57	2431
58	79
60	14
61	23
62	74
63	374
64	172
65	1503
66	719
67	4640
68	748
70	289
71	468
72	54
73	43
75	244
76	87
77	3554
78	1325
79	9999
80	2137
81	2785
82	750
83	275
84	141
85	230
86	27
87	25
88	33
89	185
90	92
91	3344
92	655
93	6151
94	1525
95	5156
96	622
97	126
98	45
99	42
101	13
102	26
103	116
104	80
105	686
106	209
107	2289
108	571
109	325
110	154
111	12
112	12
113	13
114	4
115	73
116	31
117	101
118	19
119	194
120	71
121	1643
122	758
123	154
124	50
125	6
128	22
129	18
131	23
133	68
134	25
135	1327
136	786
137	106
138	13
141	4
142	5
143	8
147	14
149	350
150	78
151	11
163	334
164	42
165	16
177	9
190	29
191	9
192	468
193	65
