Mass Spectrum: Methyl .alpha.-chlorophenylacetate
Formula: C9 H9 Cl O2
CAS: 7476-66-6
Molecular weight: 184
Origin: NIST Mass Spectrometry Data Center, 1994
m/z	RELATIVE INTENSITY
12	31
13	47
15	2337
16	36
17	4
18	27
26	131
27	190
28	121
29	660
30	223
31	112
32	29
35	70
36	49
37	238
38	565
39	1264
40	158
41	73
42	24
43	80
45	120
48	17
49	98
50	668
51	857
52	138
53	58
59	1416
60	69
61	279
62	903
63	2020
64	536
65	441
66	32
73	211
74	135
75	202
76	32
77	763
78	206
79	99
84	21
85	84
86	178
87	143
88	21
89	3176
90	1976
91	1167
92	99
93	23
97	34
99	536
100	29
101	166
102	26
103	67
104	23
105	1694
106	193
107	18
118	645
119	94
121	490
122	46
125	9999
126	913
127	3316
128	246
133	39
139	20
141	17
149	275
150	183
151	24
152	23
184	1955
185	230
186	654
187	60
