Mass Spectrum: Butanoic acid, 3-methylphenyl ester
Formula: C11 H14 O2
CAS: 7476-80-4
Molecular weight: 178
Origin: Zaikin V.G., TIPS RAS, Moscow, Russia
m/z	RELATIVE INTENSITY
27	220
28	80
39	220
41	320
42	30
43	1641
44	50
50	30
51	90
52	60
53	80
55	130
63	50
65	150
70	50
71	1161
72	40
77	430
78	130
79	310
80	160
89	40
90	150
91	310
107	1141
108	9999
109	821
110	50
178	1351
179	160
