Mass Spectrum: Methyl 3-(1-pyrrolo)thiophene-2-carboxylate
Formula: C10 H9 N O2 S
CAS: 74772-16-0
Molecular weight: 207
Origin: NIST Mass Spectrometry Data Center, 1994
m/z	RELATIVE INTENSITY
15	2209
18	65
26	351
27	302
29	222
30	117
37	535
38	1233
39	2614
40	445
41	195
44	233
45	2389
47	156
49	206
50	1085
51	2110
52	719
53	368
54	124
55	305
56	68
57	156
58	269
59	271
61	285
62	198
63	470
64	588
65	265
66	232
67	222
68	235
69	1295
70	706
71	280
72	153
74	284
75	396
76	486
77	1443
78	1097
79	115
80	197
81	939
82	957
83	408
84	323
87	72
88	493
89	121
90	72
91	249
92	158
93	267
94	314
95	403
96	482
97	474
98	394
99	73
102	135
103	398
104	2686
105	217
107	50
108	228
109	537
110	577
111	243
112	107
115	106
116	85
117	326
118	130
119	101
120	638
121	2470
122	1570
123	366
124	137
125	84
126	61
134	148
135	389
136	1566
137	420
138	200
139	155
146	580
147	1420
148	4225
149	5290
150	912
151	333
152	92
162	136
163	176
164	1082
165	215
166	71
175	4412
176	2821
177	1312
178	326
179	72
191	157
192	926
193	88
207	9999
208	1030
209	513
