Mass Spectrum: Arabino-Hexonic acid, 2-deoxy-3,5,6-tris-O-(trimethylsilyl)-, .gamma.-lactone
Formula: C15 H34 O5 Si3
CAS: 74778-25-9
Molecular weight: 378
Origin: D.HENNEBERG, MAX-PLANCK INSTITUTE, MULHEIM, WEST GERMANY
m/z	RELATIVE INTENSITY
24	10
26	13
27	47
28	232
29	116
30	17
31	135
32	2
33	22
35	23
36	18
37	14
38	24
39	58
40	10
41	175
42	13
43	292
44	241
45	1306
46	135
47	503
48	12
49	49
53	63
54	98
55	234
57	116
58	125
59	736
60	68
61	218
62	38
63	15
64	13
65	13
67	50
68	15
69	18
70	27
71	156
72	217
73	9999
74	896
75	2832
76	283
77	128
78	17
79	14
81	252
82	96
83	65
84	13
85	84
86	15
87	47
88	49
89	146
90	46
91	17
92	33
93	50
94	3
96	28
97	17
98	34
99	38
100	45
101	543
102	22
103	456
104	72
105	19
106	48
107	27
108	37
109	195
110	22
111	6
113	39
114	21
115	181
116	344
117	1330
118	163
119	131
121	2
122	15
124	30
125	9
126	39
127	89
128	37
129	538
130	83
131	252
132	38
133	698
134	113
135	41
136	10
141	33
142	27
143	1383
144	128
145	76
146	25
147	2861
148	507
149	422
150	59
151	56
152	36
153	8
154	36
155	316
156	89
157	496
158	77
159	94
160	40
161	5
163	24
164	4
165	2
166	24
167	6
168	21
169	134
170	54
171	49
172	13
173	25
174	12
175	83
176	31
177	12
180	15
181	7
183	163
184	49
185	193
186	30
187	13
188	22
189	1263
190	220
191	149
192	45
194	10
195	12
196	13
198	24
199	70
201	19
203	161
204	116
205	744
206	126
207	76
209	4
215	60
216	48
217	2411
218	491
219	198
220	2
221	54
223	23
224	1
227	1
228	14
229	53
230	66
231	215
232	70
233	71
234	13
235	28
241	12
243	46
244	30
245	115
246	265
247	91
248	44
251	11
257	67
258	7
259	37
261	11
267	24
269	5
271	31
273	204
274	80
275	1370
276	328
277	160
278	53
279	15
281	21
282	18
287	19
288	37
289	11
290	10
291	40
293	3
295	9
301	18
303	12
304	9
306	28
307	45
309	12
316	7
317	10
318	5
320	16
321	1
332	13
333	19
340	8
342	15
345	11
349	10
355	11
359	13
362	9
363	54
365	13
369	8
