Mass Spectrum: 6-Octen-2-one, (Z)-
Formula: C8 H14 O
CAS: 74810-53-0
Molecular weight: 126
Origin: D.HENNEBERG, MAX-PLANCK INSTITUTE, MULHEIM, WEST GERMANY
m/z	RELATIVE INTENSITY
25	11
26	338
27	2461
28	316
29	1516
30	38
31	56
32	22
36	4
37	81
38	248
39	2762
40	562
41	2484
42	752
43	9999
44	196
45	102
48	4
49	27
50	245
51	415
52	205
53	1260
54	431
55	2680
56	193
57	178
58	2533
59	433
60	18
61	14
62	43
63	75
64	11
65	183
66	295
67	3406
68	8685
69	1162
70	53
71	881
72	72
74	25
75	12
77	245
78	28
79	132
80	28
81	104
82	77
83	500
84	193
85	72
86	5
89	3
91	48
93	160
94	16
95	27
96	7
97	470
98	63
99	7
105	4
107	4
108	738
109	73
111	334
112	29
118	3
126	877
127	80
