Mass Spectrum: 4-Trifluoromethyl-.alpha.,.alpha.,.alpha.-trifluoroacetophenone
Formula: C9 H4 F6 O
CAS: 74853-66-0
Molecular weight: 242
Origin: NIST Mass Spectrometry Data Center, 1994
m/z	RELATIVE INTENSITY
12	14
14	20
15	18
18	37
19	24
20	42
26	71
27	103
31	369
36	17
37	210
38	303
39	134
49	164
50	2000
51	600
52	30
53	125
56	59
57	403
61	118
62	206
63	379
69	1921
70	38
72	22
73	164
74	883
75	2135
76	565
77	231
78	34
79	39
80	79
81	169
85	60
86	69
87	109
88	61
92	56
93	129
94	241
95	2106
96	142
99	463
100	127
101	50
103	23
104	67
105	55
106	39
107	121
112	20
113	35
117	19
118	37
119	237
123	77
125	1318
126	745
127	67
143	206
145	9999
146	807
147	32
154	157
155	22
163	108
173	9524
174	820
175	59
191	39
195	116
223	840
224	80
242	80
243	7
