Mass Spectrum: Mercury(II) chloride
Formula: Cl2 Hg
CAS: 7487-94-7
Molecular weight: 272
Origin: Drug Lab
m/z	RELATIVE INTENSITY
45	10
64	180
65	10
66	10
70	10
100	430
101	480
102	110
117	10
118	30
135	150
136	220
137	120
138	30
162	10
196	30
198	1972
199	3363
200	4644
201	2783
202	6065
204	1421
233	150
234	250
235	410
236	270
237	510
238	70
239	230
241	30
268	2212
269	3683
270	6456
271	5345
272	9999
273	2392
274	6406
275	320
276	1651
278	150
