Mass Spectrum: Trifluperidol
Formula: C22 H23 F4 N O2
CAS: 749-13-3
Molecular weight: 409
Origin: Tox21 Consortium/NIST Mass Spectrometry Data Center, 2012
m/z	RELATIVE INTENSITY
15	70
17	10
18	40
20	10
26	10
27	250
28	651
29	240
30	520
31	160
34	10
37	10
38	20
39	240
40	60
41	1351
42	9248
43	1091
44	290
45	50
46	10
47	50
48	100
50	160
51	200
52	40
53	210
54	611
55	1732
56	3964
57	731
58	150
59	40
60	410
61	30
62	50
63	100
64	20
65	70
66	20
67	90
68	821
69	691
70	1241
71	671
72	40
73	20
74	80
75	911
76	150
77	220
78	50
79	20
80	120
81	90
82	941
83	3323
84	1151
85	90
86	310
87	40
88	20
89	60
90	30
91	170
92	30
93	50
94	320
95	4274
96	831
97	210
98	891
99	100
100	30
101	100
102	90
103	100
104	60
105	50
106	30
107	110
108	140
109	510
110	110
111	20
112	120
113	30
114	40
115	360
116	80
117	60
118	30
120	120
121	100
122	170
123	8868
124	661
125	290
126	230
127	400
128	230
129	330
130	260
131	90
132	40
133	691
134	110
135	220
136	50
137	30
138	360
139	80
140	60
141	110
142	60
143	70
144	70
145	2142
146	370
147	110
148	40
149	60
150	40
151	440
152	70
153	250
154	100
155	150
156	30
157	20
158	30
159	1251
160	140
161	50
162	80
163	160
164	460
165	2272
166	250
167	3063
168	370
169	80
170	80
171	761
172	150
173	1441
174	200
175	50
176	120
177	130
178	50
179	290
180	50
181	100
182	50
183	140
184	80
185	80
186	70
187	30
188	80
189	20
190	50
191	70
192	40
193	90
194	30
195	30
196	40
197	60
198	50
199	340
200	70
201	230
202	50
203	20
204	30
205	10
206	130
207	20
208	90
209	40
210	60
211	140
212	70
213	30
214	30
215	20
216	110
217	20
218	20
220	30
221	30
222	20
223	70
224	130
225	40
226	340
227	90
228	160
229	20
230	40
231	10
237	10
238	1331
239	280
240	3603
241	520
242	260
243	160
244	290
245	60
246	10
250	10
251	10
252	120
253	340
254	290
255	120
256	340
258	7857
259	1091
260	80
266	30
267	10
268	30
270	150
271	9999
272	1631
273	120
283	10
284	80
285	20
286	20
343	10
359	10
372	10
389	10
390	440
391	150
392	40
408	30
409	60
410	10
