Mass Spectrum: Butanoic acid, 2-butoxy-1-methyl-2-oxoethyl ester
Formula: C11 H20 O4
CAS: 7492-70-8
Molecular weight: 216
Origin: NIST Mass Spectrometry Data Center, 1992
m/z	RELATIVE INTENSITY
12	4
13	5
14	27
15	221
16	9
17	14
18	46
19	35
24	3
26	228
27	1838
28	920
29	1874
30	64
31	115
37	10
39	701
41	2430
42	939
43	5137
44	256
45	696
46	19
47	5
50	9
51	8
52	6
53	47
55	488
56	605
57	934
58	43
59	11
60	54
61	11
63	64
64	2
66	2
68	15
69	85
71	9999
72	497
73	182
74	31
75	9
82	2
83	4
85	76
86	55
87	16
88	64
89	77
90	48
91	102
92	3
98	2
99	12
100	37
101	70
102	3
104	13
105	14
115	1372
116	127
117	18
126	3
129	15
132	18
133	112
134	6
143	326
144	33
145	5
146	15
147	18
161	96
162	9
172	325
173	35
174	3
188	27
189	2
217	2
