Mass Spectrum: 4-Octanone, 2-methyl-
Formula: C9 H18 O
CAS: 7492-38-8
Molecular weight: 142
Origin: COMPAGNIE FRANCAISE DE RAFFINAGE, FRANCE.
m/z	RELATIVE INTENSITY
26	157
27	1599
28	657
29	3000
30	73
31	61
37	22
38	86
39	1010
40	185
41	3500
42	585
43	1792
44	175
45	35
50	29
51	63
52	29
53	182
54	57
55	704
56	357
57	9999
58	4000
59	253
60	14
65	23
66	14
67	111
68	30
69	194
70	35
71	275
72	250
73	27
77	25
79	34
81	68
82	22
83	214
84	99
85	7593
86	430
87	29
91	12
95	43
96	16
97	53
98	32
100	574
101	43
105	12
109	27
111	32
113	131
114	22
123	13
124	40
125	16
126	10
127	252
128	24
142	1009
143	108
