Mass Spectrum: Allyl phenoxyacetate
Formula: C11 H12 O3
CAS: 7493-74-5
Molecular weight: 192
Origin: NIST Mass Spectrometry Data Center, 1990.
m/z	RELATIVE INTENSITY
14	132
15	260
17	4
18	47
26	248
27	941
28	240
29	578
30	72
31	171
37	156
38	605
39	3161
40	525
41	4134
42	743
43	145
44	50
50	1075
51	3283
52	281
53	110
55	243
56	37
57	132
61	64
62	113
63	404
64	197
65	954
66	256
70	68
71	75
73	39
74	235
75	195
76	39
77	9999
78	944
79	3551
80	238
91	114
92	72
93	122
94	877
95	120
105	223
107	9294
108	842
109	60
133	36
134	27
135	36
192	2921
193	353
194	34
