Mass Spectrum: Allyl nonanoate
Formula: C12 H22 O2
CAS: 7493-72-3
Molecular weight: 198
Origin: NIST Mass Spectrometry Data Center, 1990.
m/z	RELATIVE INTENSITY
15	262
17	52
18	17
26	265
27	2127
28	709
29	3010
30	118
31	133
37	60
38	272
39	2843
40	939
41	9999
42	1689
43	5976
44	318
45	192
51	57
52	65
53	304
54	1222
55	4904
56	1666
57	5480
58	986
59	286
60	125
65	57
66	81
67	776
68	354
69	1945
70	461
71	3161
72	300
73	404
77	50
79	192
81	1099
82	675
83	686
84	304
85	366
86	43
87	89
93	206
94	76
95	334
96	161
97	931
98	195
99	425
100	2081
101	301
102	40
109	43
111	134
113	1225
114	109
115	48
121	225
122	51
123	187
127	148
138	32
139	216
141	2530
142	269
155	294
157	35
169	223
170	35
183	28
