Mass Spectrum: Allyl 2-ethyl butyrate
Formula: C9 H16 O2
CAS: 7493-69-8
Molecular weight: 156
Origin: NIST Mass Spectrometry Data Center, 1990.
m/z	RELATIVE INTENSITY
14	27
15	210
16	16
18	10
26	256
27	1848
28	457
29	1966
30	61
31	120
32	9
37	74
38	279
39	2396
40	539
41	4860
42	1031
43	9999
44	353
45	438
46	14
47	11
50	24
51	53
53	198
55	1848
56	156
57	472
58	170
59	98
60	14
63	11
65	15
66	16
67	68
68	85
69	702
70	743
71	6468
72	353
73	133
74	51
81	51
82	49
83	322
84	29
85	72
86	28
87	135
88	41
95	19
96	13
97	58
98	13
99	2156
100	538
101	38
109	12
113	123
114	18
115	14
117	35
127	55
128	364
129	27
156	27
