Mass Spectrum: 2-Butenoic acid, 2-methyl-, 2-propenyl ester, (E)-
Formula: C8 H12 O2
CAS: 7493-71-2
Molecular weight: 140
Origin: W.Jennings, T.Shibamoto
m/z	RELATIVE INTENSITY
27	380
29	2052
36	270
39	1151
40	110
41	3253
42	110
43	651
53	651
54	651
55	9999
56	651
57	220
67	220
69	330
71	90
79	320
81	430
82	190
83	7357
84	550
85	110
94	110
95	1832
96	130
97	130
99	90
111	90
112	80
125	1471
126	110
140	681
