Mass Spectrum: 1-Heptanol, 2-(phenylmethylene)-, acetate
Formula: C16 H22 O2
CAS: 7493-78-9
Molecular weight: 246
Origin: W.Jennings, T.Shibamoto
m/z	RELATIVE INTENSITY
28	350
29	220
41	430
43	5325
44	120
55	771
57	430
67	210
69	330
70	90
71	310
78	90
79	210
81	90
82	190
91	2953
92	661
93	110
95	751
96	120
99	420
104	871
105	871
106	110
107	190
113	110
115	1051
116	1261
117	2052
118	230
120	110
127	430
128	1331
129	9999
130	9529
131	1952
132	120
133	1331
134	330
135	90
141	90
142	220
143	4994
144	1732
145	330
147	881
148	430
149	110
157	641
158	110
171	230
186	3053
187	651
203	430
204	871
246	220
