Mass Spectrum: Ethane, iodo-
Formula: C2 H5 I
CAS: 75-03-6
Molecular weight: 156
Origin: NIST Mass Spectrometry Data Center, 1994
m/z	RELATIVE INTENSITY
12	41
13	82
14	172
15	131
24	71
25	383
26	2261
27	8068
28	1406
29	9037
30	175
63	26
127	4834
128	895
129	55
139	85
140	79
141	227
156	9999
157	227
