Mass Spectrum: Ethanethiol
Formula: C2 H6 S
CAS: 75-08-1
Molecular weight: 62
Origin: Japan AIST/NIMC Database- Spectrum MS-NW-3851
m/z	RELATIVE INTENSITY
12	30
13	40
14	70
15	139
17	40
18	219
24	30
25	139
26	1209
27	6059
28	3659
29	9419
30	229
31	10
32	219
33	399
34	1729
35	1089
36	99
37	50
41	30
42	10
43	20
44	199
45	1549
46	1279
47	6869
48	189
49	319
56	109
57	559
58	749
59	659
60	129
61	1489
62	9999
63	369
64	489
65	10
