Mass Spectrum: Ethene, fluoro-
Formula: C2 H3 F
CAS: 75-02-5
Molecular weight: 46
m/z	RELATIVE INTENSITY
2	50
12	661
13	841
14	691
15	130
19	90
20	30
21	10
24	520
25	1281
26	5925
27	5995
28	160
29	10
31	1191
32	450
33	50
43	130
44	3103
45	7116
46	9999
47	290
