Mass Spectrum: Dimethyl sulfide
Formula: C2 H6 S
CAS: 75-18-3
Molecular weight: 62
Origin: Japan AIST/NIMC Database- Spectrum MS-NW-1477
m/z	RELATIVE INTENSITY
12	30
13	80
14	189
15	499
17	20
18	119
26	50
27	2079
28	189
29	90
31	30
32	119
33	70
34	109
35	3229
36	30
37	139
39	10
41	20
42	10
43	169
44	409
45	4089
46	3619
47	9549
48	339
49	429
56	40
57	229
58	299
59	289
60	40
61	3339
62	9999
63	439
64	439
65	10
