Mass Spectrum: Methane, diiodo-
Formula: C H2 I2
CAS: 75-11-6
Molecular weight: 268
Origin: Japan AIST/NIMC Database- Spectrum MS-NW-4431
m/z	RELATIVE INTENSITY
12	20
13	30
63	10
127	2309
128	199
134	109
139	569
140	629
141	7199
142	90
254	719
255	10
266	99
267	169
268	9999
269	119
