Mass Spectrum: Propane, 2-bromo-
Formula: C3 H7 Br
CAS: 75-26-3
Molecular weight: 122
Origin: Japan AIST/NIMC Database- Spectrum MS-NW-4951
m/z	RELATIVE INTENSITY
13	10
14	30
15	139
25	30
26	219
27	2739
28	109
29	10
36	40
37	119
38	209
39	989
40	189
41	3189
42	399
43	9999
44	359
45	50
59	10
60	10
63	10
71	60
79	70
80	70
81	60
82	60
88	10
89	20
93	10
95	10
105	10
106	10
107	109
108	10
109	99
122	589
123	30
124	569
125	20
