Mass Spectrum: 2-Propanethiol
Formula: C3 H8 S
CAS: 75-33-2
Molecular weight: 76
Origin: Japan AIST/NIMC Database- Spectrum MS-NW-3853
m/z	RELATIVE INTENSITY
13	10
14	50
15	259
25	30
26	219
27	3799
28	129
29	70
32	99
33	189
34	149
35	999
36	40
37	209
38	369
39	1909
40	399
41	6419
42	1479
43	9999
44	339
45	599
46	109
47	479
48	20
49	80
55	10
56	20
57	159
58	409
59	679
60	259
61	3599
62	169
63	179
64	10
71	40
73	10
74	20
75	179
76	6499
77	299
78	339
79	10
