Mass Spectrum: Acetyl chloride
Formula: C2 H3 Cl O
CAS: 75-36-5
Molecular weight: 78
Origin: Japan AIST/NIMC Database- Spectrum MS-IW-3409
m/z	RELATIVE INTENSITY
12	139
13	439
14	1019
15	4839
16	60
18	20
21	10
24	109
25	299
26	379
27	169
28	489
29	749
30	20
35	789
36	509
37	269
38	159
40	229
41	989
42	2479
43	9999
44	359
45	90
47	279
48	409
49	399
50	129
51	109
59	70
60	219
61	109
62	119
63	2829
64	50
65	939
66	10
78	50
79	10
80	20
81	10
