Mass Spectrum: Ethene, 1,1-dichloro-
Formula: C2 H2 Cl2
CAS: 75-35-4
Molecular weight: 96
Origin: NIST Mass Spectrometry Data Center, 1990.
m/z	RELATIVE INTENSITY
12	47
13	56
14	150
16	62
24	268
25	925
26	1201
35	1023
36	134
37	358
38	44
47	624
48	118
49	268
50	35
59	471
60	2117
61	9999
62	903
63	3356
64	67
96	6413
97	174
98	4078
99	138
100	675
