Mass Spectrum: Propane, 2-iodo-
Formula: C3 H7 I
CAS: 75-30-9
Molecular weight: 170
Origin: Japan AIST/NIMC Database- Spectrum MS-NW-4952
m/z	RELATIVE INTENSITY
14	20
15	109
25	10
26	139
27	2769
28	159
29	20
36	30
37	90
38	159
39	1149
40	199
41	3579
42	359
43	9999
44	339
45	20
127	579
128	109
139	10
141	10
155	70
170	2429
171	90
