Mass Spectrum: Fluorodichloromethane
Formula: C H Cl2 F
CAS: 75-43-4
Molecular weight: 102
m/z	RELATIVE INTENSITY
12	40
13	90
19	10
20	20
31	420
32	140
35	530
36	320
37	180
38	110
41	40
42	20
47	881
48	500
49	280
50	190
51	10
66	831
67	9999
68	170
69	3213
70	60
72	20
82	140
83	390
84	90
85	270
86	20
87	40
101	150
102	360
103	100
104	240
105	20
106	30
