Mass Spectrum: Difluorochloromethane
Formula: C H Cl F2
CAS: 75-45-6
Molecular weight: 86
m/z	RELATIVE INTENSITY
12	340
13	400
14	10
16	10
19	190
20	20
24	60
25	20
31	1692
32	961
33	20
34	10
35	1241
36	150
37	380
38	50
47	270
48	50
49	80
50	581
51	9999
52	110
54	10
56	10
66	200
67	1501
68	80
69	480
70	10
85	140
86	130
87	50
88	40
