Mass Spectrum: Tetramethylammonium iodide
Formula: C4 H12 I N
CAS: 75-58-1
Molecular weight: 201
Origin: Japan AIST/NIMC Database- Spectrum MS-NW-9038
m/z	RELATIVE INTENSITY
12	10
13	20
14	99
15	1899
26	30
27	109
28	359
29	279
30	1419
31	20
38	20
39	40
40	129
41	219
42	1769
43	529
44	199
51	10
52	10
54	20
55	20
56	189
57	499
58	7569
59	3469
60	119
63	40
69	10
70	10
71	10
73	10
74	60
127	2609
128	419
139	379
140	359
141	1289
142	9999
143	109
