Mass Spectrum: Methane, nitro-
Formula: C H3 N O2
CAS: 75-52-5
Molecular weight: 61
Origin: CARL DJERASSI DEPT OF CHEM STANFORD UNIV STANFORD CALIF 94305
m/z	RELATIVE INTENSITY
12	200
13	800
14	800
15	4800
16	600
17	100
18	100
26	200
27	1000
28	700
29	1100
30	9999
31	200
32	100
41	100
42	200
43	500
44	500
45	700
46	3700
60	400
61	5700
62	100
