Mass Spectrum: Arsinic acid, dimethyl-
Formula: C2 H7 As O2
CAS: 75-60-5
Molecular weight: 138
Origin: RADIAN CORP
m/z	RELATIVE INTENSITY
14	10
15	160
26	10
27	70
29	180
31	90
41	40
42	10
43	30
44	70
45	60
55	50
56	20
57	50
60	30
63	200
65	100
67	20
69	40
71	30
73	40
75	490
76	280
77	350
78	60
79	60
81	30
83	40
84	20
85	40
87	20
88	630
89	2640
90	1630
91	9999
92	1140
93	2710
95	140
96	10
97	40
98	20
99	30
100	110
101	360
102	260
103	1070
105	5570
106	1160
107	3480
108	50
109	2140
110	20
111	60
113	10
117	170
119	550
120	560
121	6280
122	1070
123	1530
124	40
135	130
136	630
137	290
138	2710
139	230
