Mass Spectrum: 2-Propanethiol, 2-methyl-
Formula: C4 H10 S
CAS: 75-66-1
Molecular weight: 90
Origin: Japan AIST/NIMC Database- Spectrum MS-NW-3796
m/z	RELATIVE INTENSITY
14	30
15	199
26	139
27	1099
28	279
29	4859
30	109
32	70
33	149
34	159
35	50
36	10
37	119
38	249
39	1989
40	269
41	9589
42	459
43	109
44	90
45	379
46	70
47	779
48	30
49	209
50	149
51	119
52	40
53	179
54	40
55	689
56	559
57	9999
58	449
59	619
60	40
61	119
62	10
68	10
69	50
70	20
71	60
73	30
74	80
75	2269
76	109
77	109
85	10
89	10
90	5119
91	299
92	259
93	10
