Mass Spectrum: Methane, dibromodifluoro-
Formula: C Br2 F2
CAS: 75-61-6
Molecular weight: 208
m/z	RELATIVE INTENSITY
12	30
28	70
31	571
32	10
36	30
50	731
51	70
68	160
70	50
79	801
81	801
85	20
86	10
87	10
91	130
93	130
110	220
111	30
112	220
113	30
129	9999
130	210
131	9819
132	170
158	100
160	210
162	100
170	20
172	40
174	20
189	410
191	801
193	390
208	420
210	811
212	400
