Mass Spectrum: Trichloromonofluoromethane
Formula: C Cl3 F
CAS: 75-69-4
Molecular weight: 136
Origin: KONINKLIJKE/SHELL LAB., AMSTERDAM, THE NETHERLANDS
m/z	RELATIVE INTENSITY
19	15
31	825
32	105
35	1085
36	185
37	355
38	60
47	853
48	11
49	285
50	40
54	8
56	12
66	1304
67	27
68	438
69	7
70	59
72	44
74	7
82	400
83	3
84	258
85	62
86	43
87	19
101	9999
102	110
103	6577
104	73
105	1060
106	12
117	215
119	211
121	68
123	7
136	7
