Mass Spectrum: Ethane, 1-chloro-1,1-difluoro-
Formula: C2 H3 Cl F2
CAS: 75-68-3
Molecular weight: 100
Origin: THE M.W. KELLOGG CO., JERSEY CITY, N.J., USA
m/z	RELATIVE INTENSITY
19	71
20	17
21	6
24	123
25	353
26	563
27	120
30	7
31	950
32	77
33	209
34	3
35	562
36	127
37	177
38	40
39	3
40	1
41	2
43	73
44	674
45	3090
46	204
47	130
48	75
49	176
50	211
51	138
52	2
59	25
60	78
61	364
62	51
63	346
64	819
65	9999
66	289
67	45
68	26
69	15
78	11
79	81
80	72
81	433
82	31
83	130
84	4
85	1410
86	15
87	456
88	5
97	2
98	11
99	13
100	9
101	8
