Mass Spectrum: Methane, bromotrichloro-
Formula: C Br Cl3
CAS: 75-62-7
Molecular weight: 196
Origin: Japan AIST/NIMC Database- Spectrum MS-IW-5645
m/z	RELATIVE INTENSITY
12	119
35	639
36	30
37	209
38	10
47	1939
48	30
49	639
50	10
70	40
72	30
79	919
80	70
81	909
82	2869
83	139
84	1819
85	90
86	289
87	10
91	369
93	369
94	10
114	90
116	109
117	9999
118	129
119	9709
120	99
121	3139
122	30
123	349
126	379
127	20
128	499
129	30
130	119
131	10
161	3779
162	40
163	6149
164	70
165	2799
166	40
167	379
