Mass Spectrum: Chlorotrifluoromethane
Formula: C Cl F3
CAS: 75-72-9
Molecular weight: 104
m/z	RELATIVE INTENSITY
12	30
19	20
31	180
32	10
33	70
35	310
37	100
47	50
49	20
50	641
51	10
66	30
68	20
69	9999
70	120
85	1802
86	20
87	571
88	10
104	70
105	10
106	20
