Mass Spectrum: Silane, tetramethyl-
Formula: C4 H12 Si
CAS: 75-76-3
Molecular weight: 88
Origin: R.W.CRAWFORD UNIV. OF CALIFORNIA, LIVERMORE, CALIFORNIA, USA
m/z	RELATIVE INTENSITY
2	12
12	11
13	24
14	91
15	485
16	11
25	4
26	34
27	107
28	358
29	733
30	73
31	351
32	25
33	11
36	1
37	4
38	6
39	24
40	13
41	97
42	392
43	1389
44	367
45	1249
46	84
47	41
48	1
51	1
52	14
53	215
54	54
55	217
56	40
57	153
58	150
59	213
60	19
61	9
64	3
65	26
66	32
67	23
68	7
69	10
70	25
71	57
72	119
73	9999
74	848
75	359
76	15
88	70
89	6
90	2
