Mass Spectrum: Ethane, 2-chloro-1,1,1-trifluoro-
Formula: C2 H2 Cl F3
CAS: 75-88-7
Molecular weight: 118
m/z	RELATIVE INTENSITY
13	20
14	100
25	30
31	280
33	2312
34	30
35	70
36	30
37	20
40	60
43	40
44	170
45	40
47	220
48	320
49	1992
50	210
51	851
52	10
62	20
63	611
64	360
65	10
66	40
67	430
68	20
69	1111
78	20
79	841
80	40
81	290
82	80
83	5425
84	120
85	40
97	20
98	420
99	1381
100	170
101	470
116	10
117	40
118	9999
119	240
120	3183
121	70
