Mass Spectrum: Ethanol, 2,2,2-tribromo-
Formula: C2 H3 Br3 O
CAS: 75-80-9
Molecular weight: 280
Origin: Japan AIST/NIMC Database- Spectrum MS-IW-4895
m/z	RELATIVE INTENSITY
12	40
13	80
14	439
15	449
24	20
25	189
26	749
27	40
28	229
29	869
30	109
31	7809
32	60
36	20
39	20
40	50
41	349
42	1439
43	1189
44	179
45	20
55	20
56	30
57	50
60	10
69	20
71	20
73	20
79	1359
80	1029
81	1369
82	1019
83	20
91	1149
92	829
93	5889
94	989
95	4789
96	179
98	10
100	10
101	20
102	10
103	30
104	279
105	499
106	279
107	479
108	10
109	20
120	239
121	6309
122	849
123	6249
124	599
125	50
158	90
160	189
162	90
170	789
171	599
172	1779
173	1199
174	1209
175	629
176	229
177	20
183	30
184	119
185	70
186	239
187	40
188	109
199	50
200	159
201	5179
202	409
203	9999
204	359
205	4879
206	109
207	10
249	259
250	60
251	759
252	179
253	749
254	169
255	249
256	50
265	20
267	20
280	10
282	40
284	40
286	10
