Mass Spectrum: Butane, 2,2-dimethyl-
Formula: C6 H14
CAS: 75-83-2
Molecular weight: 86
Origin: Japan AIST/NIMC Database- Spectrum MS-NW-1294
m/z	RELATIVE INTENSITY
14	10
15	159
16	10
26	109
27	1719
28	119
29	3359
30	80
31	10
37	30
38	99
39	1359
40	179
41	4909
42	559
43	9999
44	309
49	10
50	80
51	109
52	40
53	249
54	40
55	1129
56	2799
57	9829
58	469
59	10
62	10
63	20
65	20
67	30
69	70
70	329
71	7669
72	449
73	10
85	20
86	10
