Mass Spectrum: 1-Propanol, 2,2-dimethyl-
Formula: C5 H12 O
CAS: 75-84-3
Molecular weight: 88
m/z	RELATIVE INTENSITY
14	10
15	90
17	10
18	40
19	50
26	60
27	771
28	210
29	2973
30	100
31	851
32	40
33	10
37	30
38	80
39	921
40	110
41	3753
42	220
43	951
44	50
45	510
49	10
50	50
51	70
52	20
53	150
54	30
55	2823
56	3533
57	9999
58	440
59	40
65	10
67	10
68	10
69	70
70	10
71	80
72	60
73	2122
74	100
75	10
83	10
85	10
86	10
87	30
88	70
89	10
