Mass Spectrum: 1,2-Dibromo-1,1-dichloroethane
Formula: C2 H2 Br2 Cl2
CAS: 75-81-0
Molecular weight: 254
Origin: Japan AIST/NIMC Database- Spectrum MS-NW-4416
m/z	RELATIVE INTENSITY
12	40
13	20
14	50
24	60
25	609
26	1649
27	50
35	309
36	139
37	109
38	40
40	10
41	10
44	20
47	249
48	30
49	90
50	10
59	109
60	1159
61	3049
62	449
63	1019
64	20
79	669
80	259
81	689
82	339
83	10
84	50
87	30
88	50
89	20
91	99
92	30
93	219
94	70
95	759
96	2229
97	499
98	1389
99	109
100	249
103	50
104	199
105	179
106	209
107	129
109	10
110	30
111	10
114	40
116	50
117	10
118	10
119	10
126	40
127	10
128	60
129	10
130	20
131	20
133	10
138	40
139	1039
140	539
141	1339
142	609
143	359
144	139
158	30
160	70
161	369
162	30
163	609
165	269
167	40
173	20
174	50
175	6329
176	229
177	9999
178	279
179	4499
180	119
181	629
182	20
183	60
184	10
185	109
186	10
187	60
207	10
218	10
219	309
220	30
221	669
222	40
223	489
224	20
225	90
