Mass Spectrum: 2-Butanone, 3,3-dimethyl-
Formula: C6 H12 O
CAS: 75-97-8
Molecular weight: 100
Origin: Japan AIST/NIMC Database- Spectrum MS-NW- 893
m/z	RELATIVE INTENSITY
14	50
15	439
18	20
26	40
27	499
28	109
29	3619
30	70
31	10
37	40
38	99
39	1129
40	139
41	5569
42	90
43	3209
44	60
45	60
49	10
50	80
51	90
52	20
53	80
54	10
55	299
56	409
57	9999
58	439
59	20
63	10
65	10
67	80
85	409
100	1489
101	109
