Mass Spectrum: Tribromoacetic acid
Formula: C2 H Br3 O2
CAS: 75-96-7
Molecular weight: 294
Origin: Japan AIST/NIMC Database- Spectrum MS-NW-5050
m/z	RELATIVE INTENSITY
12	119
13	139
16	189
28	50
44	3799
45	70
46	20
64	10
76	50
79	939
80	199
81	909
82	199
85	10
86	20
87	10
91	1629
92	1029
93	1609
94	1039
95	10
158	129
160	279
162	139
170	60
171	5049
172	179
173	9999
174	179
175	4859
176	60
182	10
184	20
249	40
250	399
251	119
252	1169
253	119
254	1129
255	50
256	369
