Mass Spectrum: tert-Butyl Hydroperoxide
Formula: C4 H10 O2
CAS: 75-91-2
Molecular weight: 90
Origin: NIST Mass Spectrometry Data Center
m/z	RELATIVE INTENSITY
14	40
15	350
16	10
17	20
18	60
25	10
26	160
27	821
29	2262
30	60
31	1061
32	10
33	60
37	90
38	190
39	1461
40	190
41	6035
42	811
43	6506
44	200
45	120
49	20
50	130
51	110
52	20
53	130
54	20
55	450
56	290
57	9999
58	2652
59	5835
60	220
61	10
75	861
76	30
90	150
