Mass Spectrum: 4-Cyclohexene-1,2-dicarboxylic acid, dimethyl ester
Formula: C10 H14 O4
CAS: 7500-55-2
Molecular weight: 198
Origin: RADIAN CORP
m/z	RELATIVE INTENSITY
15	1120
26	70
27	540
29	500
30	140
31	310
33	280
38	20
39	740
41	310
42	40
43	50
45	370
50	150
51	540
52	360
53	580
54	180
55	320
56	20
59	1550
60	100
61	110
65	70
66	60
67	200
69	10
71	70
77	2430
78	3320
79	9999
80	950
81	260
82	30
83	20
85	40
91	90
93	80
94	20
97	30
105	180
106	380
107	980
108	80
109	30
110	130
111	130
113	30
121	20
123	20
124	20
137	480
138	2940
139	300
166	750
167	930
168	80
