Mass Spectrum: Acetamide, N-hexyl-
Formula: C8 H17 N O
CAS: 7501-79-3
Molecular weight: 143
Origin: CARL DJERASSI DEPT OF CHEM STANFORD UNIV STANFORD CALIF 94305
m/z	RELATIVE INTENSITY
27	500
28	400
29	500
30	9999
31	300
32	300
39	300
41	800
42	400
43	3000
44	1300
45	200
55	400
56	300
57	100
58	300
60	900
72	2400
73	1700
74	100
86	700
87	300
100	600
101	200
114	300
128	200
143	400
