Mass Spectrum: p-Methoxybenzoic acid, 2-methylphenyl ester
Formula: C15 H14 O3
CAS: 7504-73-6
Molecular weight: 242
Origin: Zaikin V.G., TIPS RAS, Moscow, Russia
m/z	RELATIVE INTENSITY
39	40
50	40
51	50
53	30
63	100
64	160
65	40
76	70
77	611
78	80
79	50
92	450
93	30
104	30
107	360
108	50
135	9999
136	701
137	60
152	140
242	140
