Mass Spectrum: 2-Chlorobenzoic acid, allyl ester
Formula: C10 H9 Cl O2
CAS: 7506-76-5
Molecular weight: 196
Origin: V.Zaikin,Inst.Petrochem.Synth.,RAS,Moscow
m/z	RELATIVE INTENSITY
25	30
26	220
27	340
28	40
29	200
39	1031
40	270
41	1231
42	110
43	200
49	130
50	1041
51	841
52	360
53	90
54	40
55	160
56	80
57	280
58	50
60	60
61	130
62	70
63	100
64	70
65	130
66	20
69	130
70	50
71	60
72	60
73	130
74	460
75	1762
76	801
77	540
78	60
79	450
80	30
81	40
82	60
83	40
84	120
85	260
86	70
87	60
89	50
90	40
91	60
92	50
93	60
94	90
95	30
96	20
97	50
98	30
99	70
101	40
103	30
104	140
105	270
106	50
107	20
109	50
110	80
111	2322
112	290
113	801
114	120
115	160
116	60
117	310
119	30
121	40
122	180
123	60
125	50
127	30
128	60
133	30
138	180
139	9999
140	811
141	3093
142	250
143	20
156	1021
157	100
158	340
159	30
196	761
197	120
198	260
199	40
