Mass Spectrum: Ethanone, 1-(2,6-dihydroxy-4-methoxyphenyl)-
Formula: C9 H10 O4
CAS: 7507-89-3
Molecular weight: 182
m/z	RELATIVE INTENSITY
31	600
38	200
39	700
42	300
43	1500
51	500
53	600
55	500
59	300
65	200
66	300
67	800
68	500
69	1000
77	200
79	400
93	200
95	500
96	300
111	600
121	200
124	200
135	400
138	200
139	200
153	300
167	9999
168	900
182	3700
