Mass Spectrum: 3,4-Hexanediol, 3,4-bis(4-hydroxyphenyl)-
Formula: C18 H22 O4
CAS: 7507-01-9
Molecular weight: 302
Origin: RADIAN CORP
m/z	RELATIVE INTENSITY
26	10
27	90
29	290
38	30
39	220
40	20
41	30
42	20
43	180
44	10
50	20
51	30
52	20
53	110
54	20
55	210
56	60
57	2020
58	80
59	10
60	30
61	30
62	50
63	170
64	110
65	740
66	130
67	50
68	20
70	20
71	40
73	50
74	40
75	40
76	30
77	290
78	60
79	120
80	20
81	40
82	30
83	50
84	30
85	30
87	20
89	40
90	30
91	190
92	170
93	1100
94	340
95	190
96	40
97	60
98	30
99	20
101	20
102	30
103	110
104	30
105	230
106	40
107	320
108	40
109	100
111	30
112	10
113	10
115	100
116	30
118	60
119	70
121	5980
122	560
123	320
124	40
125	20
126	10
128	30
130	10
131	80
132	40
133	280
134	80
135	110
136	300
137	50
138	20
139	20
141	20
143	10
144	20
145	30
146	10
147	30
149	300
150	450
151	9999
152	1440
153	160
154	20
155	20
157	20
159	10
161	40
162	20
163	20
164	10
165	60
166	20
167	10
169	10
171	20
179	10
181	30
183	10
185	20
189	10
191	20
194	20
197	20
199	20
211	10
213	20
226	20
227	170
228	30
237	120
238	20
239	20
256	10
257	20
266	40
267	50
268	40
284	10
285	10
286	10
302	10
