Mass Spectrum: 9(10H)-Phenanthrenone, 10-diazo-
Formula: C14 H8 N2 O
CAS: 7509-44-6
Molecular weight: 220
m/z	RELATIVE INTENSITY
49	100
50	601
51	1001
52	500
53	701
54	300
55	200
56	100
61	200
62	400
63	801
64	300
65	300
66	100
67	200
68	200
69	300
74	400
75	300
76	200
77	100
78	300
79	200
81	801
82	1001
85	200
86	300
87	500
88	200
89	200
91	100
92	100
96	300
98	300
99	100
107	200
108	200
110	300
111	200
112	100
113	200
114	100
122	200
137	300
138	200
139	200
149	200
161	200
162	601
163	5505
164	9999
165	2202
166	601
167	200
192	2502
193	400
194	200
220	1802
221	300
