Mass Spectrum: 4,5-Dimethoxy-2-nitrotoluene
Formula: C9 H11 N O4
CAS: 7509-11-7
Molecular weight: 197
Origin: NIST Mass Spectrometry Data Center, 1994
m/z	RELATIVE INTENSITY
14	224
15	1836
26	121
27	556
28	582
29	600
30	1522
31	141
32	76
37	219
38	703
39	4667
40	344
41	369
42	189
43	380
44	76
45	313
46	106
49	127
50	1461
51	2441
52	860
53	2131
54	177
55	501
56	114
57	175
58	106
59	339
61	247
62	697
63	1991
64	1585
65	4554
66	1032
67	671
68	472
69	797
70	53
71	81
73	89
74	354
75	337
76	512
77	2395
78	2125
79	1720
80	1093
81	459
82	472
83	295
84	70
85	102
86	101
87	120
88	70
89	753
90	791
91	1055
92	1642
93	3892
94	648
95	655
96	245
104	141
105	445
106	1514
107	2522
108	1866
109	1138
110	615
111	323
118	74
119	221
120	1297
121	3057
122	839
123	492
124	874
125	1729
126	140
134	262
135	1099
136	2481
137	1007
138	437
139	317
140	58
147	71
148	199
149	123
150	629
151	819
152	2944
153	366
154	73
164	431
165	501
166	280
167	270
168	93
180	9999
181	1132
182	166
197	6065
198	655
199	29
