Mass Spectrum: n-Butyltrichlorosilane
Formula: C4 H9 Cl3 Si
CAS: 7521-80-4
Molecular weight: 190
Origin: NIST Mass Spectrometry Data Center
m/z	RELATIVE INTENSITY
12	10
14	30
15	430
18	40
26	921
27	4534
28	1922
29	3703
30	100
35	100
36	100
37	140
38	310
39	2552
40	350
41	3123
42	340
43	1561
44	40
49	210
50	200
51	370
52	160
53	611
54	260
55	1381
56	1411
57	1621
58	70
60	10
63	2582
64	220
65	971
66	100
67	60
68	10
73	30
76	30
77	70
78	50
79	50
80	10
81	10
83	10
87	20
88	30
89	30
90	50
91	50
92	60
93	30
94	30
98	1471
99	861
100	1001
101	571
102	250
103	130
104	10
105	20
111	30
112	380
113	1822
114	410
115	1231
116	130
117	390
118	140
119	70
120	20
123	160
124	110
125	591
126	1191
127	430
128	841
129	120
130	150
131	30
133	9779
134	641
135	9999
136	490
137	3083
138	170
139	771
140	50
141	280
142	20
143	40
147	30
149	50
150	10
151	20
152	20
154	5965
155	671
156	3473
157	420
158	761
159	100
160	530
161	8378
162	1411
163	8247
164	1001
165	2803
166	360
167	420
168	30
169	10
175	90
176	10
177	90
179	20
188	10
189	80
190	1191
191	230
192	1251
193	150
194	370
195	30
196	60
