Mass Spectrum: Naphthalene, 1,2,3,4-tetrahydro-2,6-dimethyl-
Formula: C12 H16
CAS: 7524-63-2
Molecular weight: 160
Origin: G.A.M.S., PARIS, FRANCE.
m/z	RELATIVE INTENSITY
15	30
26	30
27	310
28	40
29	130
38	30
39	590
40	70
41	360
42	50
43	230
44	10
50	140
51	530
52	140
53	240
54	20
55	90
56	50
57	300
58	170
61	10
62	70
63	350
64	390
65	460
66	50
67	90
68	20
69	70
70	140
71	440
72	30
73	10
74	60
75	100
76	160
77	740
78	280
79	310
80	20
81	10
85	100
86	20
87	40
88	20
89	170
90	50
91	1130
92	150
93	20
97	10
98	20
99	30
101	40
102	180
103	470
104	180
105	2690
106	320
107	20
112	10
113	30
114	30
115	1400
116	540
117	2130
118	9999
119	1290
120	80
125	20
126	50
127	370
128	1210
129	900
130	460
131	630
132	730
133	80
139	90
140	30
141	470
142	220
143	470
144	240
145	4440
146	540
147	30
151	20
152	50
153	50
154	20
155	80
156	190
157	70
158	130
159	590
160	7120
161	900
162	60
