Mass Spectrum: 2-Propanone, ethyl(1-methylethyl)hydrazone
Formula: C8 H18 N2
CAS: 75268-05-2
Molecular weight: 142
Origin: ATLAS OF MASS SPECTRA OF ORGANIC COMPOUNDS, V. A. KOPTYUG, ED.
m/z	RELATIVE INTENSITY
27	1550
28	1260
29	1190
30	810
39	850
40	310
41	2070
42	3450
43	2590
44	970
54	150
55	150
56	5350
57	410
58	1080
59	100
70	1640
71	710
72	850
82	360
83	150
84	280
85	2850
86	270
99	1020
100	80
127	9999
128	1000
141	90
142	2590
143	330
