Mass Spectrum: 2-Chloro-6-fluorobenzyl cyanide
Formula: C8 H5 Cl F N
CAS: 75279-55-9
Molecular weight: 169
Origin: NIST Mass Spectrometry Data Center
m/z	RELATIVE INTENSITY
12	20
13	10
14	20
15	10
17	20
18	10
25	30
26	150
27	90
28	140
31	601
32	20
33	80
35	60
36	90
37	310
38	300
39	350
40	110
41	10
43	60
44	60
45	30
46	10
47	50
48	30
49	200
50	651
51	310
52	80
53	60
56	270
57	921
58	50
59	10
60	120
61	510
62	540
63	480
64	160
65	30
67	230
68	300
69	150
70	60
71	50
72	90
73	280
74	510
75	440
76	190
77	20
79	40
80	220
81	721
82	280
83	200
84	200
85	240
86	260
87	340
88	200
89	50
90	30
91	160
92	100
93	310
94	200
95	70
96	20
97	50
98	50
99	90
100	70
101	20
102	60
103	30
104	50
105	300
106	671
107	2883
108	611
109	80
110	30
111	60
112	40
113	90
114	621
115	110
116	20
117	160
118	20
119	50
120	20
121	10
122	10
123	30
124	10
125	10
128	20
129	30
130	40
132	841
133	1571
134	9999
135	911
136	30
141	380
142	250
143	450
144	120
145	100
146	10
149	350
150	50
151	100
152	10
169	3954
170	460
171	1281
172	110
