Mass Spectrum: Propanenitrile, 3,3',3''-nitrilotris-
Formula: C9 H12 N4
CAS: 7528-78-1
Molecular weight: 176
Origin: Japan AIST/NIMC Database- Spectrum MS-IW-8128
m/z	RELATIVE INTENSITY
14	20
15	149
24	10
25	30
26	829
27	479
28	1149
29	70
30	449
32	10
37	30
38	60
39	90
40	199
41	449
42	4039
43	719
44	30
50	70
51	389
52	1299
53	1489
54	9359
55	659
56	329
57	99
66	219
67	209
68	209
69	40
70	90
71	20
78	10
79	50
80	40
81	449
82	1799
83	3219
84	169
85	10
93	70
94	40
95	709
96	219
97	20
105	10
106	10
107	199
108	40
109	489
110	40
111	10
119	10
120	60
121	10
122	20
123	40
124	10
134	279
135	839
136	9999
137	889
138	30
149	20
150	10
175	20
176	379
177	70
