Mass Spectrum: Ethylene glycol diallyl ether
Formula: C8 H14 O2
CAS: 7529-27-3
Molecular weight: 142
Origin: NIST Mass Spectrometry Data Center
m/z	RELATIVE INTENSITY
14	60
15	320
16	20
17	10
18	20
19	50
26	340
27	1211
28	851
29	1461
30	120
31	320
32	30
37	80
38	260
39	2783
41	9999
42	530
43	1061
44	120
45	851
46	10
53	40
54	200
55	470
56	310
57	2332
58	180
59	20
67	150
68	40
69	90
71	360
73	1321
74	40
79	10
81	30
83	60
84	40
85	190
86	90
87	10
97	10
99	40
101	470
102	20
