Mass Spectrum: Methylphosphorochlorofluoridate
Formula: C H3 Cl F O P
CAS: 753-71-9
Molecular weight: 116
Origin: Dennis Rohrbaugh, CBDCOM/ERDEC, Edgewood, MD
m/z	RELATIVE INTENSITY
50	9999
51	2775
52	1720
53	284
55	1366
63	298
65	555
66	2886
67	3171
71	471
78	631
79	235
80	3483
81	8951
82	291
85	4662
87	1124
98	340
101	3018
103	693
116	6938
118	2296
