Mass Spectrum: Propane, 1-chloro-2,2-dimethyl-
Formula: C5 H11 Cl
CAS: 753-89-9
Molecular weight: 106
Origin: NIST Mass Spectrometry Data Center, 1994
m/z	RELATIVE INTENSITY
12	24
14	301
15	1117
16	39
26	546
27	2888
28	22
29	3976
30	99
31	18
35	48
36	82
37	257
38	643
39	3234
40	18
41	5255
42	359
43	447
44	13
46	7
47	57
49	648
50	384
51	589
52	144
53	611
54	7
55	5443
56	7
57	9999
58	520
59	11
60	20
61	67
62	7
63	707
64	47
65	244
66	10
67	24
69	56
70	10
71	28
72	9
73	46
75	80
76	10
77	20
91	1458
92	149
93	460
94	22
