Mass Spectrum: Tin, dichlorodimethyl-
Formula: C2 H6 Cl2 Sn
CAS: 753-73-1
Molecular weight: 220
Origin: K. LEVSEN, INST. PHYS. CHEM., UNIV. BONN, W. GER
m/z	RELATIVE INTENSITY
12	400
13	1000
14	3100
15	7900
35	700
36	400
37	200
38	100
115	100
116	1000
117	700
118	1700
119	900
120	2200
121	200
122	300
124	400
129	200
130	300
131	800
132	700
133	1200
134	700
135	1100
137	200
139	200
147	200
149	200
150	300
151	2400
152	1700
153	4700
154	2200
155	6200
156	700
157	2300
158	100
159	1100
161	300
166	300
167	300
168	600
169	400
170	700
171	100
172	300
174	100
180	100
181	1000
182	700
183	2000
184	1000
185	2800
186	400
187	1000
188	300
189	600
190	300
191	200
192	200
197	200
199	300
200	400
201	3400
202	2300
203	7300
204	3800
205	9999
206	1900
207	5600
208	500
209	2500
210	100
211	800
213	100
216	300
217	200
218	700
219	300
220	1000
221	200
222	600
224	300
