Mass Spectrum: 2,2,2-Trifluoroethylamine
Formula: C2 H4 F3 N
CAS: 753-90-2
Molecular weight: 99
Origin: NIST Mass Spectrometry Data Center, 1990.
m/z	RELATIVE INTENSITY
12	16
13	21
14	13
15	24
16	30
17	39
18	16
19	31
24	11
26	48
27	334
28	3368
29	757
30	9999
31	540
32	11
33	465
38	32
39	31
40	4
43	23
44	56
45	37
46	50
47	95
48	826
49	4
50	369
51	340
59	65
60	236
63	79
64	125
66	29
69	647
70	16
76	38
77	203
78	641
79	93
80	92
82	17
83	84
96	43
97	58
98	218
99	523
100	15
