Mass Spectrum: 1,3-Dinitropyrene
Formula: C16 H8 N2 O4
CAS: 75321-20-9
Molecular weight: 292
Origin: Organic Synthesis Lab, MSU, Moscow.TRC 260
m/z	RELATIVE INTENSITY
40	190
43	30
44	240
51	20
55	60
57	70
61	20
62	30
63	50
67	50
69	70
70	20
71	70
73	180
74	130
75	100
76	70
77	60
79	30
81	80
82	40
83	40
84	40
85	80
86	110
87	290
91	40
96	110
97	60
98	140
99	470
100	911
102	20
104	30
105	40
107	30
109	50
110	90
111	140
112	40
113	40
115	50
119	70
121	30
122	100
123	100
124	50
125	50
126	30
127	30
128	30
129	30
131	30
133	150
134	50
135	100
137	40
139	30
141	30
146	70
147	110
148	70
149	250
150	310
151	110
152	40
156	30
158	40
159	30
161	110
162	60
163	100
164	40
165	30
173	150
174	470
175	300
176	520
177	120
178	140
179	40
185	160
186	230
187	1271
188	2602
189	581
190	1061
191	250
192	60
193	70
197	230
198	1341
199	2282
200	9999
201	1982
202	370
203	60
204	1091
205	180
206	100
207	741
208	170
209	110
210	30
211	30
212	110
213	50
214	140
216	1281
217	250
218	390
219	70
223	30
230	30
231	40
232	240
233	60
234	80
246	300
247	70
253	80
259	30
262	1021
263	180
264	90
265	70
266	50
267	40
276	120
281	220
282	60
283	30
292	6136
293	1061
294	120
