Mass Spectrum: 1-Pentanol, 2-amino-4-methyl-, (S)-
Formula: C6 H15 N O
CAS: 7533-40-6
Molecular weight: 117
Origin: Chuck Anderson, Aldrich Chemical Co.
m/z	RELATIVE INTENSITY
15	305
17	36
18	695
26	62
27	1232
28	1293
29	880
30	8062
31	668
32	37
38	61
39	721
40	123
41	2015
42	1980
43	3063
44	7640
45	222
46	14
50	14
51	44
52	7
53	101
54	78
55	147
56	354
57	244
58	79
59	72
60	3661
61	95
67	95
68	59
69	209
70	200
72	52
81	30
82	16
84	61
86	9999
87	512
118	15
