Mass Spectrum: Tryptophan, 3TMS derivative
Formula: C20 H36 N2 O2 Si3
CAS: 7537-04-4
Molecular weight: 420
Origin: A.Pleshkova, Nesmeyanov Inst.Org.Elem.Cpds, Moscow
m/z	RELATIVE INTENSITY
43	190
44	40
59	260
60	10
73	3653
74	310
75	520
76	40
77	10
84	310
85	20
100	520
101	90
147	190
148	20
202	9999
203	1902
204	500
205	50
218	410
219	90
220	40
221	10
291	761
292	220
293	90
294	20
303	160
304	50
330	40
349	10
405	70
406	20
407	10
