Mass Spectrum: Perfluoropropyl iodide
Formula: C3 F7 I
CAS: 754-34-7
Molecular weight: 296
Origin: Japan AIST/NIMC Database- Spectrum MS-NW-3434
m/z	RELATIVE INTENSITY
12	20
19	10
24	10
31	1679
32	20
36	10
50	539
51	10
62	99
63	10
69	7069
70	90
74	60
81	109
93	139
100	2309
101	50
112	40
119	1209
120	30
127	4459
128	60
131	1119
132	40
138	10
139	90
146	50
150	829
151	30
158	359
169	9999
170	349
177	3599
178	40
189	80
208	359
209	10
227	189
239	10
277	569
278	20
296	6419
297	229
