Mass Spectrum: Propanamide, 2,2-dimethyl-
Formula: C5 H11 N O
CAS: 754-10-9
Molecular weight: 101
Origin: Japan AIST/NIMC Database- Spectrum MS-NW-1272
m/z	RELATIVE INTENSITY
14	20
15	169
16	80
17	40
18	80
26	80
27	719
28	179
29	3879
30	129
32	10
36	10
37	60
38	119
39	1179
40	189
41	5449
42	559
43	189
44	1619
45	109
46	2199
47	40
49	10
50	50
51	50
52	30
53	70
54	40
55	329
56	669
57	9999
58	899
59	329
60	10
67	30
68	99
69	319
70	60
83	30
84	10
85	20
86	889
87	40
100	40
101	1559
102	109
