Mass Spectrum: Ethane, 1,1-dibromo-1-chloro-2,2,2-trifluoro-
Formula: C2 Br2 Cl F3
CAS: 754-17-6
Molecular weight: 274
Origin: Thomas J.Bruno
m/z	RELATIVE INTENSITY
31	2212
35	390
40	270
47	1321
49	430
50	490
66	1341
69	1531
79	1471
81	1451
85	400
91	870
93	830
97	240
110	280
116	800
118	270
126	560
128	750
129	300
146	1050
147	1351
160	340
162	300
176	460
178	620
188	160
191	340
195	3112
197	9999
199	2432
205	270
207	870
209	310
