Mass Spectrum: 3,5-Bis(trifluoromethyl)benzyl chloride
Formula: C9 H5 Cl F6
CAS: 75462-59-8
Molecular weight: 262
Origin: NIST Mass Spectrometry Data Center, 1990.
m/z	RELATIVE INTENSITY
13	11
17	6
18	47
19	5
20	17
26	38
27	80
31	99
33	19
35	103
36	32
37	132
38	233
39	306
43	18
44	5
45	14
47	11
48	23
49	114
50	308
51	267
52	18
55	8
56	52
57	216
58	10
59	12
60	23
61	209
62	532
63	631
64	52
65	7
69	976
70	31
72	14
73	77
74	183
75	473
76	40
77	23
78	41
79	77
80	79
81	228
82	39
83	40
84	50
85	130
86	249
87	454
88	289
89	249
90	25
91	18
92	46
93	101
94	88
95	51
96	29
97	25
98	49
99	297
100	50
101	81
102	12
104	292
105	99
106	100
107	363
108	199
109	15
111	62
112	115
113	103
114	48
115	9
117	67
118	52
119	204
120	40
121	27
122	16
123	51
124	24
125	120
126	82
127	358
128	25
129	9
130	20
131	46
132	253
133	30
135	13
137	402
138	736
139	253
140	23
141	12
143	190
144	74
145	88
146	7
147	6
148	8
149	13
150	31
151	24
153	7
154	12
155	55
156	296
157	427
158	796
159	78
160	10
161	32
162	25
163	176
164	20
166	8
167	28
168	16
169	77
170	7
171	5
172	20
173	13
174	37
175	70
176	292
177	1434
178	134
179	10
181	81
182	40
183	7
187	939
188	120
189	51
190	8
191	8
192	7
193	499
194	72
195	193
196	18
199	3
200	12
201	6
203	9
205	75
206	111
207	464
208	465
209	48
211	44
212	7
213	25
214	4
221	18
222	10
223	12
227	9999
228	965
229	44
240	6
243	1422
244	178
245	415
246	42
261	256
262	1381
263	207
264	473
265	39
