Mass Spectrum: Pentanoic acid, 1,7,7-trimethylbicyclo[2.2.1]hept-2-yl ester, endo-
Formula: C15 H26 O2
CAS: 7549-41-9
Molecular weight: 238
Origin: Philip Morris R&D
m/z	RELATIVE INTENSITY
39	558
40	446
41	2939
42	301
43	1863
44	446
45	368
46	89
50	33
51	151
52	145
53	474
54	17
55	1065
56	156
57	8934
58	552
59	201
60	61
63	39
65	301
66	45
67	1149
68	279
69	1757
70	123
71	362
72	234
73	28
77	463
78	112
79	714
80	1377
81	2465
82	680
83	742
84	195
85	9999
86	541
87	173
89	100
91	569
92	1634
93	4439
94	887
95	7556
96	608
97	318
98	11
103	100
105	206
106	22
107	1199
108	3530
109	3853
110	3112
111	697
112	78
113	50
119	33
120	17
121	4099
122	496
123	117
125	95
128	45
129	17
135	362
136	8287
137	2643
138	284
139	173
140	33
152	106
153	362
154	1628
155	100
223	201
238	273
239	61
