Mass Spectrum: Anisyl propionate
Formula: C11 H14 O3
CAS: 7549-33-9
Molecular weight: 194
Origin: NIST Mass Spectrometry Data Center, 1990.
m/z	RELATIVE INTENSITY
14	31
15	90
18	6
26	144
27	528
28	238
29	1204
30	43
31	45
32	21
37	21
38	88
39	347
40	70
41	111
42	29
43	39
50	296
51	599
52	386
53	146
55	144
57	669
58	34
61	23
62	100
63	363
64	286
65	347
66	157
67	52
74	58
75	34
76	151
77	1512
78	1029
79	214
80	30
89	398
90	288
91	1610
92	518
93	66
94	273
95	62
105	355
106	214
107	213
108	62
109	559
110	50
119	421
120	2193
121	9999
122	898
123	80
135	204
136	85
137	368
138	1217
139	112
192	23
194	2017
195	287
196	36
