Mass Spectrum: Methanimidamide, N,N-dimethyl-N'-(4-methylphenyl)-
Formula: C10 H14 N2
CAS: 7549-96-4
Molecular weight: 162
Origin: H.F.GRUTZMACHER HAMBURG UNIVERSITY, HAMBURG, F.R.G
m/z	RELATIVE INTENSITY
27	90
30	460
38	50
39	370
40	60
41	200
42	890
43	450
44	3460
45	1100
50	110
51	230
52	90
53	50
55	50
57	270
58	240
62	70
63	280
64	100
65	1140
66	110
73	220
76	50
77	260
78	110
79	110
80	1180
81	450
89	390
90	280
91	3820
92	400
93	320
103	50
104	160
105	620
106	280
107	100
116	110
117	140
118	2850
119	770
120	3460
121	370
130	80
131	110
132	180
133	150
134	1100
135	160
145	260
146	350
147	3090
148	350
159	70
160	100
161	3420
162	9999
163	1220
164	70
