Mass Spectrum: 1,2,4-Thiadiazole, 5-amino-
Formula: C2 H3 N3 S
CAS: 7552-07-0
Molecular weight: 101
Origin: James Little,Eastman Chem.Co.,Kingsport,TN
m/z	RELATIVE INTENSITY
32	1491
43	3053
46	1011
47	871
53	220
54	130
58	390
59	3823
60	761
61	230
68	130
69	210
73	230
74	8688
75	260
76	390
101	9999
102	500
103	550
