Mass Spectrum: Dimethyl methylphosphonate
Formula: C3 H9 O3 P
CAS: 756-79-6
Molecular weight: 124
Origin: Japan AIST/NIMC Database- Spectrum MS-NW-9774
m/z	RELATIVE INTENSITY
15	489
16	10
18	30
27	10
28	99
29	79
30	20
31	259
32	60
33	30
44	20
45	249
46	10
47	1129
48	139
49	129
50	10
51	10
61	30
62	239
63	1439
64	40
65	60
77	209
78	50
79	7829
80	169
81	50
92	30
93	3149
94	9999
95	279
96	40
109	3939
110	129
111	30
123	40
124	1979
125	269
126	20
