Mass Spectrum: Silane, diethyldimethyl-
Formula: C6 H16 Si
CAS: 756-81-0
Molecular weight: 116
Origin: NIST Mass Spectrometry Data Center
m/z	RELATIVE INTENSITY
15	130
26	100
27	571
29	1041
30	80
31	891
33	10
39	40
41	50
42	310
43	1922
44	601
45	1601
46	100
47	40
53	210
54	60
55	300
56	70
57	330
58	891
59	9999
60	731
61	310
65	10
66	40
67	50
68	10
69	40
70	70
71	140
72	180
73	2112
74	170
75	70
83	10
84	10
85	40
87	7136
88	671
89	260
90	10
101	691
102	70
103	20
116	691
117	70
118	20
