Mass Spectrum: Cyclohexanamine, N-cyclohexyl-N-methyl-
Formula: C13 H25 N
CAS: 7560-83-0
Molecular weight: 195
Origin: Japan AIST/NIMC Database- Spectrum MS-NW-5247
m/z	RELATIVE INTENSITY
15	99
26	10
27	339
28	80
29	459
30	259
38	10
39	369
40	40
41	1519
42	1369
43	199
44	409
45	10
46	20
50	10
51	50
52	20
53	219
54	199
55	1439
56	349
57	1499
58	949
59	30
65	40
66	30
67	269
68	299
69	70
70	3779
71	269
72	40
77	70
78	30
79	109
80	50
81	269
82	449
83	499
84	279
85	40
86	10
91	20
93	20
94	119
95	50
96	659
97	99
98	109
99	10
100	10
105	10
106	20
107	20
108	60
109	30
110	209
111	299
112	469
113	60
114	1039
115	90
120	10
122	30
123	20
124	639
125	119
126	159
127	20
128	30
129	10
132	20
136	30
137	10
138	389
139	219
140	40
146	90
147	10
148	10
150	50
151	10
152	9999
153	1189
154	80
164	10
166	139
167	20
178	10
180	40
181	20
189	30
193	20
194	99
195	1749
196	259
197	20
