Mass Spectrum: Butane, 1-(methylsulfonyl)-
Formula: C5 H12 O2 S
CAS: 7560-59-0
Molecular weight: 136
m/z	RELATIVE INTENSITY
26	300
27	2302
28	2002
29	9609
30	200
31	100
32	100
33	100
34	100
38	100
39	1201
40	200
41	6606
42	300
43	100
44	100
45	200
46	100
47	200
48	200
50	100
51	100
53	200
54	100
55	1101
56	2202
57	9999
58	400
61	100
63	500
64	500
65	400
76	200
77	100
78	100
79	500
80	601
81	3904
82	100
83	200
94	901
96	100
107	90
108	10
109	10
119	380
120	60
121	611
122	30
123	30
136	40
137	10
