Mass Spectrum: 1-Propene-1,2,3-tricarboxylic acid, tributyl ester
Formula: C18 H30 O6
CAS: 7568-58-3
Molecular weight: 342
Origin: James Little
m/z	RELATIVE INTENSITY
39	561
40	110
41	3253
42	180
43	410
53	110
55	751
56	951
57	5925
58	280
67	310
69	230
71	80
75	90
83	200
84	1041
85	300
86	40
87	60
101	160
111	510
112	9999
113	891
114	210
128	190
129	550
130	380
131	80
138	1541
139	4774
140	721
141	120
156	6166
157	8908
158	681
159	140
166	350
167	120
168	781
169	100
185	631
186	220
200	100
211	100
212	1331
213	2152
214	280
226	50
231	150
241	360
242	120
268	450
269	1571
270	310
