Mass Spectrum: 2,3-Diphenylbenzo-1,4-dioxin
Formula: C20 H14 O2
CAS: 75694-46-1
Molecular weight: 286
Origin: W. ADAM, INST. ORG. CHEM., UNIV. WURZBURG, WURZBURG, W. GER.
m/z	RELATIVE INTENSITY
18	29
26	40
27	44
28	28
29	10
38	23
39	142
41	17
43	17
50	183
51	559
52	764
53	55
54	28
55	26
56	2
57	17
62	45
63	221
64	68
65	78
66	2
69	21
71	5
73	7
74	113
75	162
76	269
77	2201
78	184
79	37
80	126
81	22
83	10
85	2
86	43
87	93
88	85
89	116
90	13
91	16
92	22
93	14
94	2
95	16
97	9
98	45
99	53
100	67
101	203
102	163
103	28
104	92
105	4578
106	350
107	54
108	22
109	15
110	19
111	27
112	34
113	210
114	245
115	177
116	47
117	5
118	6
119	54
120	126
121	117
122	16
123	10
124	8
125	47
126	424
127	192
128	224
129	93
130	39
131	9
133	6
134	134
135	9
136	50
137	49
138	71
139	299
140	38
141	13
142	253
143	584
144	15
149	57
150	304
151	793
152	1491
153	575
154	79
155	15
156	3
157	7
158	7
161	5
162	21
163	156
164	95
165	582
166	111
167	13
174	51
175	200
176	1178
177	530
178	1835
179	284
180	408
181	2596
182	349
183	26
187	8
188	2
189	34
190	5
191	2
193	92
194	18
199	1
200	30
201	27
202	99
203	41
204	15
205	16
206	6
207	11
208	26
209	4524
210	720
211	69
212	3
213	15
215	51
216	9
218	11
224	15
225	20
226	125
227	79
228	145
230	55
231	60
232	29
233	16
234	4
237	7
238	9
239	112
240	45
241	145
242	54
243	18
253	7
254	10
255	158
256	64
257	1869
258	398
259	47
267	8
268	40
269	20
271	18
283	10
284	99
285	470
286	9999
287	2193
288	261
289	24
