Mass Spectrum: Dimethyl allylphosphonate
Formula: C5 H11 O3 P
CAS: 757-54-0
Molecular weight: 150
Origin: NIST Mass Spectrometry Data Center
m/z	RELATIVE INTENSITY
12	50
13	50
14	390
15	1992
16	140
17	60
18	130
19	20
25	20
26	140
27	400
28	2252
29	1011
30	200
31	831
32	651
33	100
37	190
38	591
39	3703
40	540
41	2853
42	230
43	70
44	60
45	250
47	2522
48	310
49	300
50	30
51	40
53	60
54	430
55	460
56	100
57	130
58	40
59	30
61	30
62	230
63	430
64	50
65	170
66	90
68	240
69	130
71	90
73	30
77	240
79	6676
80	601
81	80
82	20
86	40
87	60
88	40
89	30
93	1141
94	2162
96	4594
97	220
98	30
103	200
104	40
105	160
109	9999
110	1361
111	400
112	20
117	50
118	80
119	110
120	310
121	90
123	1031
124	1351
125	70
132	30
135	240
149	791
150	1081
151	100
