Mass Spectrum: Ethyne, dichloro-
Formula: C2 Cl2
CAS: 7572-29-4
Molecular weight: 94
m/z	RELATIVE INTENSITY
24	1201
25	100
35	1782
37	581
47	3013
48	330
49	751
59	2502
60	450
61	961
62	150
94	9999
95	611
96	6476
97	410
98	1061
