Mass Spectrum: Benzoic Acid, TBDMS derivative
Formula: C13 H20 O2 Si
CAS: 75732-41-1
Molecular weight: 236
Origin: J.M. Halket, Trace Anal. Unit (TAU), London, UK
m/z	RELATIVE INTENSITY
38	20
39	340
40	60
41	780
42	90
43	320
44	50
45	620
46	30
47	370
48	10
49	20
50	300
51	1110
52	70
53	70
54	10
55	80
56	60
57	410
58	110
59	260
60	70
61	100
62	10
63	20
65	20
67	20
69	20
73	590
74	160
75	620
76	330
77	4850
78	330
79	20
83	10
85	20
89	20
91	60
92	10
93	10
95	20
99	40
103	30
105	5930
106	450
107	50
115	40
119	70
120	20
121	90
133	40
135	3550
136	480
137	130
143	10
147	50
149	100
163	30
164	60
165	10
179	9999
180	1560
181	450
182	40
189	10
205	10
221	110
