Mass Spectrum: Tricyclo[3.3.1.1(3,7)]decane, 1-nitro-
Formula: C10 H15 N O2
CAS: 7575-82-8
Molecular weight: 181
Origin: A.FEINSTEIN AMOCO CHEMICALS CORP., NAPERVILLE, ILLINOIS, USA
m/z	RELATIVE INTENSITY
26	77
27	1264
28	283
29	580
30	405
31	9
37	14
38	85
39	1814
40	302
41	1815
42	114
43	179
44	6
45	5
46	119
50	93
51	398
52	216
53	743
54	149
55	888
56	73
57	107
58	46
59	28
60	11
62	22
63	111
64	48
65	455
66	164
67	1163
68	85
69	294
70	19
74	8
75	9
76	16
77	1068
78	303
79	2682
80	242
81	831
82	57
83	5
85	5
86	5
87	5
88	5
89	20
90	16
91	1220
92	310
93	2863
94	267
95	57
96	6
102	13
103	60
104	30
105	220
106	70
107	857
108	79
109	6
115	44
116	16
117	44
118	13
119	47
120	21
121	9
128	6
131	8
133	48
134	22
135	9999
136	1116
137	55
151	8
180	1
