Mass Spectrum: 2-Chlorobenzoic acid, benzyl ester
Formula: C14 H11 Cl O2
CAS: 7579-40-0
Molecular weight: 246
Origin: V.Zaikin,Inst.Petrochem.Synth.,RAS,Moscow
m/z	RELATIVE INTENSITY
26	120
27	290
28	10
29	200
31	210
39	931
40	80
41	470
42	90
43	200
50	1091
51	1211
52	250
53	130
55	180
56	240
57	180
58	20
59	40
60	20
61	130
62	170
63	480
64	180
65	1271
66	100
67	50
69	130
70	400
71	140
72	30
73	120
74	390
75	1351
76	540
77	1081
78	240
79	771
80	70
81	40
82	40
83	70
84	130
85	200
86	60
87	60
88	50
89	561
90	1221
91	8778
92	731
93	50
95	30
96	50
97	40
103	20
104	150
105	410
106	110
107	1381
108	120
110	50
111	1521
112	330
113	571
114	90
117	20
118	20
119	50
121	30
122	40
123	20
125	80
126	110
127	50
128	40
130	50
131	20
133	60
134	30
135	90
136	60
137	40
138	80
139	9999
140	811
141	3133
142	240
143	30
147	40
151	30
152	80
156	280
157	200
158	80
159	90
161	60
165	100
166	80
167	220
168	40
169	50
181	60
183	20
184	50
193	30
201	140
202	40
203	70
211	420
212	80
228	50
230	30
246	1541
247	350
248	530
249	90
