Mass Spectrum: Propanamide, N,N-dimethyl-
Formula: C5 H11 N O
CAS: 758-96-3
Molecular weight: 101
Origin: NIST Mass Spectrometry Data Center, 1994
m/z	RELATIVE INTENSITY
13	33
14	116
15	1051
18	70
26	514
27	1920
28	1538
29	3328
30	532
31	101
32	63
38	59
39	167
40	239
41	464
42	3119
43	971
44	8343
45	4799
46	794
52	43
53	89
54	97
55	732
56	816
57	4047
58	1331
59	53
68	99
70	81
72	8729
73	627
74	46
86	145
101	9999
102	642
