Mass Spectrum: Methanethioamide, N,N-dimethyl-
Formula: C3 H7 N S
CAS: 758-16-7
Molecular weight: 89
Origin: Japan AIST/NIMC Database- Spectrum MS-NW-7681
m/z	RELATIVE INTENSITY
12	10
13	20
14	109
15	1119
16	10
26	60
27	169
28	1069
29	90
30	3939
31	60
32	199
33	50
34	40
35	10
36	20
38	60
39	90
40	269
41	449
42	3479
43	799
44	6689
45	2069
46	239
47	629
48	30
49	30
51	20
52	30
54	30
55	30
56	109
57	50
58	60
59	70
60	20
61	40
64	20
70	70
71	30
72	259
73	419
74	1199
75	70
76	60
87	10
88	479
89	9999
90	519
91	469
92	20
