Mass Spectrum: 2,3-Difluorobenzyl alcohol
Formula: C7 H6 F2 O
CAS: 75853-18-8
Molecular weight: 144
Origin: NIST Mass Spectrometry Data Center, 1994
m/z	RELATIVE INTENSITY
14	57
16	19
17	106
18	80
19	48
20	69
26	97
27	120
28	183
29	3504
30	535
31	3066
32	63
33	86
37	557
38	827
39	777
40	75
44	179
45	9
47	75
48	128
49	391
50	1731
51	1386
52	238
53	112
55	123
56	360
57	1613
58	84
60	90
61	737
62	1223
63	3467
64	358
65	163
68	968
69	802
70	577
72	271
73	290
74	881
75	2622
76	355
77	794
79	81
80	257
81	929
82	111
83	212
84	123
85	144
86	163
87	265
88	768
89	223
92	248
93	519
94	789
95	7730
96	1828
97	1103
98	102
99	208
100	137
101	1136
102	88
105	218
106	94
107	831
108	95
112	199
113	1983
114	2450
115	9999
116	748
123	5817
124	1371
125	1516
126	1045
127	2731
128	210
141	726
143	4365
144	8615
145	616
