Mass Spectrum: 2,5-Difluorobenzyl alcohol
Formula: C7 H6 F2 O
CAS: 75853-20-2
Molecular weight: 144
Origin: NIST Mass Spectrometry Data Center
m/z	RELATIVE INTENSITY
17	10
19	10
20	10
25	10
26	50
27	70
28	40
29	811
30	130
31	1061
32	20
33	40
36	20
37	220
38	290
39	380
40	20
42	20
43	30
44	70
45	110
46	20
47	40
48	70
49	210
50	1021
51	851
52	160
53	80
55	60
56	280
57	1091
58	50
59	20
60	40
61	440
62	711
63	2252
64	200
65	80
66	30
67	10
68	571
69	591
70	490
71	350
73	170
74	781
75	2512
76	310
77	651
78	50
79	60
80	160
81	721
82	90
83	150
84	60
85	120
86	160
87	200
88	430
89	100
90	10
91	10
92	220
93	440
94	761
95	7277
96	2522
97	1672
98	120
99	170
100	80
101	1141
102	80
103	40
104	40
105	200
106	60
107	871
108	80
109	10
110	40
111	30
112	170
113	1651
114	2152
115	8958
116	1061
117	50
121	10
123	9919
124	2442
125	1481
126	520
127	4064
128	310
129	10
141	1081
142	190
143	3813
144	9999
145	771
146	40
