Mass Spectrum: Urea, N-ethyl-N-nitroso-
Formula: C3 H7 N3 O2
CAS: 759-73-9
Molecular weight: 117
Origin: W.T.RAINEY OAK RIDGE NATIONAL LABORATORY,OAK RIDGE,TN.USA
m/z	RELATIVE INTENSITY
30	6203
31	1094
32	948
38	364
39	583
40	1021
41	1386
42	4379
43	9780
44	9999
45	802
46	437
53	145
54	72
55	291
56	2992
57	583
58	145
59	3138
60	218
69	145
70	218
71	291
72	145
73	145
74	6422
75	291
88	145
102	72
117	656
