Mass Spectrum: Diethyl tert-butylmalonate
Formula: C11 H20 O4
CAS: 759-24-0
Molecular weight: 216
Origin: J. MADSEN,DEP. ORG. CHEM.,TECH. UNIV. DENMARK,LYNGBY,DENMARK
m/z	RELATIVE INTENSITY
39	570
40	220
41	1540
42	320
43	910
44	50
45	800
47	140
51	60
53	240
54	110
55	860
56	470
57	5360
58	380
59	490
60	120
61	80
67	110
69	370
70	110
71	120
73	70
81	60
82	320
83	1160
84	100
85	220
86	1550
87	1600
88	1750
89	110
95	50
96	90
97	60
98	140
99	2160
100	330
101	710
102	70
104	860
105	640
109	70
113	80
114	1850
115	8020
116	480
117	60
125	80
126	60
127	1060
128	150
129	490
130	140
131	60
132	1660
133	3130
134	200
141	60
144	70
155	790
156	70
160	9999
161	860
162	120
171	1740
172	170
201	200
