Mass Spectrum: 2,7-Octadiene-1,6-diol, 2,6-dimethyl-, (E)-
Formula: C10 H18 O2
CAS: 75991-61-6
Molecular weight: 170
Origin: P.J. Williams, Australian Wine Res. Inst., Glen Osmond, S. Australia, Australia
m/z	RELATIVE INTENSITY
41	4300
43	9999
53	1000
55	2600
67	2800
68	1400
71	3400
79	700
93	500
96	400
109	200
110	300
119	300
134	50
137	200
152	20
