Mass Spectrum: Benzofuran-2-one, 4-amino-2,3-dihydro-
Formula: C8 H7 N O2
CAS: 75990-99-7
Molecular weight: 149
Origin: LAC, NIDDK, NIH, Bethesda, MD 20892
m/z	RELATIVE INTENSITY
41	565
42	490
43	692
44	434
45	394
46	100
47	562
48	106
49	390
50	691
51	901
52	1067
53	552
54	638
55	326
56	163
57	347
59	284
60	247
61	274
62	306
63	613
64	264
65	1958
66	2293
67	485
69	640
70	170
71	232
72	107
73	128
74	418
75	351
76	401
77	840
78	525
79	312
80	116
81	181
82	120
83	185
84	204
85	188
86	137
87	67
89	228
90	65
91	694
92	1093
93	6607
94	731
95	228
97	134
98	125
99	130
100	184
101	147
102	216
103	166
104	248
105	438
106	258
107	177
108	130
109	189
111	66
113	127
114	50
115	376
116	194
117	139
118	153
119	324
120	468
121	5766
122	670
123	188
124	147
125	128
127	143
129	58
130	190
131	280
132	243
133	437
134	147
135	86
147	75
148	215
149	9999
150	1331
151	173
