Mass Spectrum: 2-Propanol, 1,1,1-trichloro-
Formula: C3 H5 Cl3 O
CAS: 76-00-6
Molecular weight: 162
Origin: Japan AIST/NIMC Database- Spectrum MS-NW-6844
m/z	RELATIVE INTENSITY
12	10
13	20
14	50
15	229
18	20
25	30
26	129
27	1339
28	109
29	509
30	20
31	50
32	10
35	80
36	209
37	80
38	90
39	159
40	10
41	20
42	99
43	779
44	50
45	9999
46	239
47	229
48	169
49	149
50	50
51	40
53	20
55	70
56	10
57	20
60	40
61	80
62	70
63	1169
64	50
65	389
66	10
67	10
72	20
73	60
74	10
75	90
76	80
77	30
78	30
82	199
83	419
84	139
85	279
86	20
87	50
91	909
92	30
93	309
94	10
95	10
97	30
99	20
109	40
110	20
111	289
112	109
113	179
114	60
115	30
116	10
117	90
119	90
121	30
125	40
126	10
127	339
128	20
129	199
130	10
131	30
147	40
149	40
151	10
