Mass Spectrum: Trichloronitromethane
Formula: C Cl3 N O2
CAS: 76-06-2
Molecular weight: 163
Origin: GAZ DE FRANCE D.E.T.N., B.P. 33, LA PLAINE ST. DENIS, FRANCE
m/z	RELATIVE INTENSITY
30	4565
35	1358
36	1283
37	443
38	398
46	149
47	2775
48	89
49	955
50	75
51	104
61	985
63	774
64	40
65	157
70	67
72	40
76	67
77	233
78	22
79	85
80	18
82	3223
83	21
84	2074
85	134
86	321
87	22
112	175
114	112
116	13
117	9999
119	9698
121	3103
123	328
128	76
130	15
132	3
