Mass Spectrum: Trichloroacetyl chloride
Formula: C2 Cl4 O
CAS: 76-02-8
Molecular weight: 180
Origin: V.G.Zaikin, Petrochem. Synth. Inst., Moscow
m/z	RELATIVE INTENSITY
29	50
35	2793
36	1381
37	951
38	490
42	110
43	50
47	5535
48	90
49	1752
50	20
63	7947
64	100
65	2652
66	30
82	6296
83	190
84	3924
85	150
86	671
87	40
110	1782
111	40
112	1091
113	40
114	220
116	80
117	9999
118	280
119	9969
120	300
121	6556
122	80
123	751
145	550
146	20
147	490
148	20
149	190
