Mass Spectrum: 2,3-Butanediol, 2,3-dimethyl-
Formula: C6 H14 O2
CAS: 76-09-5
Molecular weight: 118
Origin: NIST Mass Spectrometry Data Center, 1990.
m/z	RELATIVE INTENSITY
15	199
27	377
28	12
29	458
30	12
31	1139
32	11
38	129
39	894
40	276
41	2012
42	619
43	3978
44	192
45	127
55	383
57	3245
59	9999
60	349
67	220
69	138
83	298
85	1632
86	121
100	248
103	279
