Mass Spectrum: Perfluoropropane
Formula: C3 F8
CAS: 76-19-7
Molecular weight: 188
m/z	RELATIVE INTENSITY
12	240
19	100
24	40
31	2883
36	10
43	60
50	931
55	10
62	70
69	9999
74	20
75	30
81	70
93	60
100	661
112	10
119	901
131	20
150	10
169	2462
188	10
