Mass Spectrum: Ethane, 1,2-dichloro-1,1,2,2-tetrafluoro-
Formula: C2 Cl2 F4
CAS: 76-14-2
Molecular weight: 170
m/z	RELATIVE INTENSITY
12	20
19	10
24	10
28	10
31	941
32	10
33	10
35	120
36	10
37	40
38	10
43	10
44	10
47	190
48	10
49	70
50	490
51	20
58	50
59	30
61	40
62	30
63	10
65	10
66	310
67	20
68	100
69	410
70	10
78	30
80	10
81	20
82	20
83	10
84	30
85	9999
86	140
87	3283
88	40
95	10
96	10
97	10
98	10
99	10
100	611
101	861
102	10
103	580
104	10
105	90
112	10
113	10
114	10
115	10
116	120
117	10
118	40
119	10
133	10
135	5235
136	140
137	1702
138	50
151	240
152	10
153	160
154	10
155	30
170	10
172	10
