Mass Spectrum: Triamcinolone Acetonide
Formula: C24 H31 F O6
CAS: 76-25-5
Molecular weight: 434
Origin: Japan AIST/NIMC Database- Spectrum MS-IW-6359
m/z	RELATIVE INTENSITY
29	179
30	20
31	20
38	10
39	199
40	50
41	699
42	80
43	1449
44	70
45	30
47	30
49	10
50	10
51	80
52	40
53	309
54	30
55	1469
56	60
57	129
58	249
59	999
60	40
61	40
63	30
64	20
65	209
66	70
67	299
68	50
69	339
70	40
71	159
72	20
73	99
75	40
76	20
77	629
78	139
79	489
80	109
81	569
82	70
83	169
84	50
85	109
86	20
87	99
88	20
89	70
90	30
91	1039
92	229
93	519
94	99
95	459
96	129
97	269
98	60
99	179
100	50
101	109
102	40
103	199
104	80
105	449
106	129
107	539
108	209
109	839
110	139
111	269
112	50
113	179
114	70
115	439
116	169
117	289
118	70
119	319
120	209
121	5409
122	2419
123	579
124	90
125	169
126	40
127	309
128	219
129	449
130	109
131	419
132	139
133	589
134	379
135	1559
136	279
137	379
138	80
139	239
140	70
141	369
142	109
143	279
144	139
145	639
146	319
147	2509
148	369
149	319
150	179
151	229
152	199
153	299
154	129
155	169
156	60
157	259
158	419
159	1379
160	909
161	739
162	129
163	269
164	80
165	329
166	139
167	379
168	159
169	189
170	90
171	629
172	179
173	529
174	139
175	289
176	80
177	209
178	159
179	349
180	99
181	179
182	90
183	259
184	159
185	499
186	249
187	499
188	129
189	279
190	80
191	509
192	119
193	119
194	80
195	249
196	179
197	329
198	179
199	429
200	139
201	139
202	70
203	119
204	60
205	129
206	60
207	159
208	189
209	539
210	209
211	509
212	209
213	429
214	139
215	119
216	50
217	129
218	60
219	159
220	60
221	329
222	279
223	569
224	519
225	639
226	589
227	559
228	149
229	139
230	50
231	129
232	40
233	149
234	80
235	469
236	269
237	1139
238	359
239	389
240	159
241	369
242	319
243	189
244	119
245	139
246	90
247	99
248	119
249	239
250	119
251	929
252	249
253	429
254	159
255	499
256	159
257	279
258	80
259	339
260	90
261	499
262	279
263	689
264	209
265	129
266	70
267	169
268	119
269	359
270	90
271	179
272	50
273	90
274	40
275	139
276	109
277	169
278	70
279	1109
280	289
281	379
282	109
283	99
284	70
285	40
286	20
287	70
288	30
289	80
290	30
291	70
292	50
293	60
294	40
295	90
296	80
297	409
298	119
299	579
300	149
301	90
302	40
303	40
304	20
305	40
306	30
307	50
308	30
309	309
310	119
311	70
312	60
313	40
314	20
315	99
316	20
317	1469
318	339
319	70
320	119
321	90
322	50
323	60
324	30
325	40
326	30
327	99
328	40
329	779
330	179
331	40
332	10
336	20
337	50
338	259
339	99
340	99
341	60
342	30
343	20
345	30
346	10
347	20
353	10
354	30
355	229
356	209
357	119
358	109
359	50
360	20
361	10
375	9999
376	2689
377	439
378	60
380	10
394	10
396	30
397	20
398	20
399	20
400	10
412	60
413	20
414	309
415	90
416	50
417	10
419	90
420	20
432	10
434	309
435	109
436	20
