Mass Spectrum: Uroxine
Formula: C8 H6 N4 O8
CAS: 76-24-4
Molecular weight: 286
Origin: Japan AIST/NIMC Database- Spectrum MS-NW-3365
m/z	RELATIVE INTENSITY
26	139
27	459
28	779
29	579
30	129
31	60
38	60
39	40
40	40
41	139
42	1149
43	9999
44	7149
45	179
46	20
51	40
53	30
54	129
55	40
56	40
57	40
58	50
60	40
69	80
70	909
71	479
77	70
79	60
80	30
83	20
86	3449
87	119
88	50
90	40
94	30
95	40
107	189
108	179
109	20
114	3649
115	189
116	30
119	30
149	30
