Mass Spectrum: 2,2-Dimethyl-1,3-butanediol
Formula: C6 H14 O2
CAS: 76-35-7
Molecular weight: 118
Origin: Insect Chem. Ecol. Lab., USDA, Beltsville, MD 20705
m/z	RELATIVE INTENSITY
41	4547
42	568
43	2898
44	216
45	3237
46	84
47	40
49	68
50	49
51	96
52	23
53	277
54	117
55	2470
56	9999
57	2529
58	147
59	354
60	17
61	125
63	244
65	27
67	137
68	25
69	917
70	1036
71	281
72	176
73	351
74	95
75	14
81	26
82	48
83	226
84	67
85	521
86	69
87	455
88	44
89	26
91	14
95	20
99	31
100	108
101	269
102	18
103	97
105	17
109	15
117	16
118	80
119	21
