Mass Spectrum: Oxycodone
Formula: C18 H21 N O4
CAS: 76-42-6
Molecular weight: 315
Origin: Sigma Chemical Company
m/z	RELATIVE INTENSITY
41	204
42	2107
43	388
44	1961
45	75
50	51
51	315
52	79
53	285
54	114
55	729
56	233
57	546
58	517
59	144
63	241
64	71
65	227
67	74
68	82
70	1792
71	310
72	67
75	167
76	121
77	438
78	254
79	109
80	80
81	60
82	123
83	104
84	314
86	53
87	51
89	248
90	134
91	335
92	152
93	94
94	179
95	50
96	73
97	85
98	517
99	86
100	76
101	136
102	287
103	251
104	92
105	136
106	57
107	94
108	112
109	50
110	39
111	112
112	537
113	171
114	144
115	1129
116	255
117	274
118	161
119	78
120	52
121	59
122	31
126	81
127	441
128	534
129	304
130	184
131	370
132	229
133	67
134	113
135	60
137	132
139	104
140	1296
141	449
142	118
143	181
144	351
145	271
146	134
147	76
148	88
150	91
152	113
153	117
154	88
155	199
156	127
157	343
158	277
159	284
160	161
161	235
162	157
165	50
166	67
167	72
168	144
169	174
170	206
171	399
172	214
173	280
174	315
175	408
176	240
177	66
178	228
179	283
180	53
181	107
182	112
183	202
184	267
185	891
186	457
187	777
188	793
189	355
190	247
192	51
194	58
196	93
197	179
198	377
199	523
200	426
201	1619
202	705
203	226
204	64
209	45
210	86
211	151
212	235
213	234
214	808
215	717
216	819
217	778
218	181
225	94
226	225
227	213
228	251
229	721
230	3508
231	753
232	165
238	57
239	119
240	181
241	149
242	138
243	164
244	325
245	83
252	54
254	149
255	56
256	150
257	149
258	1188
259	698
260	83
268	51
270	106
271	45
272	202
273	46
286	62
287	77
296	65
298	81
299	43
300	402
301	99
315	9999
316	2090
317	336
318	44
