Mass Spectrum: Heptachlor
Formula: C10 H5 Cl7
CAS: 76-44-8
Molecular weight: 370
Origin: NIST Mass Spectrometry Data Center, 1990.
m/z	RELATIVE INTENSITY
27	194
28	336
32	115
35	146
37	264
38	450
39	2235
40	160
47	178
49	395
50	568
51	551
60	251
61	661
62	631
63	867
64	444
65	3645
66	350
71	168
72	246
73	1036
74	894
75	762
79	190
80	191
82	146
83	347
84	610
85	853
86	643
87	310
94	143
95	428
96	507
97	1188
98	1241
99	1665
100	9999
101	1013
102	3306
103	325
106	260
107	344
108	731
109	613
110	335
111	350
113	153
114	563
115	812
116	482
117	644
118	208
119	690
120	585
121	620
122	422
123	465
124	235
125	219
130	486
131	283
132	1289
133	1343
134	906
135	1697
136	343
137	884
139	190
141	644
143	848
145	353
147	204
150	235
151	310
157	227
158	266
159	413
160	913
161	242
162	322
165	366
167	444
169	439
170	226
171	211
183	307
185	166
193	228
194	1036
195	555
196	764
197	306
203	193
204	193
217	426
219	367
228	280
229	289
230	1237
231	393
232	931
233	193
234	376
235	1913
236	830
237	2909
238	1310
239	1982
240	819
241	710
242	321
251	129
253	185
264	1310
265	503
266	1564
267	527
268	744
270	4085
272	7222
273	551
274	6104
275	404
276	2560
277	171
278	622
299	372
300	202
301	634
302	259
303	391
304	198
335	898
336	165
337	1707
338	239
339	1317
340	194
341	552
370	342
372	661
374	636
376	354
