Mass Spectrum: 1(3H)-Isobenzofuranone, 3,3-bis(3,5-dibromo-4-hydroxyphenyl)-
Formula: C20 H10 Br4 O4
CAS: 76-62-0
Molecular weight: 630
Origin: RADIAN CORP
m/z	RELATIVE INTENSITY
16	710
50	1520
51	540
53	2560
62	3220
63	3870
64	510
74	1240
75	1790
76	5590
77	990
79	270
80	270
86	800
87	850
88	70
89	370
90	2780
91	3000
92	500
93	70
94	290
98	470
99	580
100	570
101	200
104	9999
105	20
106	2460
107	1160
110	370
111	620
112	370
113	430
117	520
119	560
121	500
122	550
123	470
124	450
125	80
131	550
133	380
135	430
137	1580
138	4050
139	4960
140	830
141	1590
142	940
143	1710
144	850
149	110
150	2030
151	820
161	700
162	100
163	450
166	970
167	1120
168	590
169	1100
170	2510
171	1220
172	2260
173	140
174	700
175	270
185	580
186	700
187	1780
188	470
195	1000
196	420
197	590
198	130
199	310
200	740
209	40
210	590
211	4010
212	2570
213	4060
214	960
217	750
219	670
221	680
222	590
223	1780
224	1000
225	740
241	50
242	1030
246	1460
247	200
248	1520
249	480
251	860
253	50
274	2390
275	580
276	2520
277	1310
279	1520
281	750
301	550
302	3980
303	1480
304	3930
305	890
313	300
320	610
322	610
349	570
351	570
381	1740
383	3350
384	540
385	1720
428	780
430	1340
432	570
502	50
507	2300
508	350
509	6650
510	1400
511	6320
512	1390
513	2130
514	140
630	100
632	440
634	750
636	280
