Mass Spectrum: Cyclopentobarbital
Formula: C12 H14 N2 O3
CAS: 76-68-6
Molecular weight: 234
Origin: NIST Mass Spectrometry Data Center
m/z	RELATIVE INTENSITY
15	10
26	60
27	430
28	130
29	60
30	20
31	10
37	30
38	130
39	1732
40	380
41	2662
42	180
43	250
44	480
45	40
46	20
49	10
50	240
51	701
52	571
53	1041
54	250
55	210
56	60
57	40
58	40
59	10
60	20
61	30
62	70
63	230
64	80
65	1591
66	2552
67	9999
68	651
69	140
70	290
71	20
72	10
73	10
74	20
75	30
76	60
77	1301
78	530
79	731
80	340
81	230
82	340
83	70
84	10
85	10
86	10
87	30
88	10
89	70
90	40
91	641
92	160
93	310
94	420
95	110
96	520
97	881
98	270
99	20
101	10
102	40
103	110
104	230
105	621
106	410
107	691
108	320
109	220
110	40
111	10
112	20
113	10
114	10
115	150
116	40
117	170
118	50
119	50
120	70
121	170
122	160
123	50
124	210
125	60
126	120
127	10
128	20
129	20
130	20
131	20
132	180
133	631
134	80
135	20
136	20
139	10
140	30
141	180
142	30
143	10
144	10
145	20
146	20
147	20
148	40
149	170
150	1011
151	250
152	30
153	500
154	50
155	30
156	10
161	10
162	10
163	20
164	10
165	60
166	40
167	210
168	801
169	4174
170	360
171	40
174	10
175	40
176	160
177	20
191	20
192	601
193	5645
194	601
195	60
204	10
205	50
206	10
219	10
233	10
234	20
