Mass Spectrum: 2(3H)-Benzofuranone, 3-(.beta.-diethylaminoethyl)-3-phenyl-
Formula: C20 H23 N O2
CAS: 76-65-3
Molecular weight: 309
Origin: Finnigan MAT: Toxicological Library (LIBR-TX)
m/z	RELATIVE INTENSITY
56	614
58	876
71	215
84	347
86	9999
87	766
99	213
100	152
115	243
126	76
131	97
152	502
153	233
165	318
166	81
178	294
181	190
194	61
195	49
207	349
209	468
237	76
238	14
278	9
279	9
294	515
295	112
309	203
310	43
