Mass Spectrum: Ethylphenylmalonic acid diethyl ester
Formula: C15 H20 O4
CAS: 76-67-5
Molecular weight: 264
Origin: NIST Mass Spectrometry Data Center
m/z	RELATIVE INTENSITY
15	60
26	100
27	1091
29	5845
30	150
31	80
38	20
39	520
40	20
41	691
42	40
43	410
44	150
45	901
46	20
50	140
51	571
52	130
53	90
55	70
57	961
58	70
59	10
61	10
62	90
63	380
64	60
65	440
66	50
67	20
69	70
73	3954
74	220
75	110
76	160
77	1491
78	460
79	641
80	40
85	30
86	20
87	40
88	40
89	641
90	290
91	8307
92	651
93	100
94	30
95	10
99	10
101	50
102	430
103	2182
104	300
105	1752
106	190
107	2232
108	170
109	10
113	20
114	30
115	3233
116	971
117	7247
118	1702
119	5145
120	510
121	50
127	50
128	40
129	60
130	40
131	1061
132	150
133	210
134	60
135	9999
136	991
137	60
143	40
144	360
145	881
146	3914
147	1121
148	140
149	440
150	40
159	170
160	30
161	290
162	250
163	520
164	470
165	50
172	10
173	10
174	470
175	120
176	20
177	530
178	60
179	10
189	20
190	430
191	2883
192	2923
193	370
194	30
205	50
218	70
219	30
220	120
221	10
236	110
237	10
264	310
265	50
