Mass Spectrum: Pentobarbital
Formula: C11 H18 N2 O3
CAS: 76-74-4
Molecular weight: 226
Origin: NIST Mass Spectrometry Data Center
m/z	RELATIVE INTENSITY
15	10
26	40
27	530
28	140
29	701
30	40
31	10
37	10
38	40
39	851
40	210
41	2492
42	520
43	2973
44	520
45	40
46	10
50	20
51	90
52	110
53	561
54	270
55	1461
56	210
57	90
58	50
59	10
61	10
62	10
63	20
64	10
65	120
66	120
67	440
68	220
69	971
70	561
71	661
72	50
73	20
77	80
78	20
79	90
80	200
81	130
82	90
83	220
84	100
85	280
86	50
87	30
91	30
92	10
93	30
94	180
95	140
96	150
97	480
98	1001
99	50
100	10
106	10
107	10
108	20
109	90
110	80
111	50
112	550
113	170
114	110
115	10
120	10
121	10
122	30
123	40
124	50
125	20
126	60
127	30
128	60
129	50
135	10
136	10
137	30
138	40
139	50
141	8898
142	561
143	70
152	10
153	30
154	50
155	1031
156	9999
157	2102
158	180
159	20
167	20
168	10
169	30
181	20
183	30
195	10
197	470
198	70
199	10
