Mass Spectrum: Secobarbital
Formula: C12 H18 N2 O3
CAS: 76-73-3
Molecular weight: 238
Origin: Japan AIST/NIMC Database- Spectrum MS-NW-4294
m/z	RELATIVE INTENSITY
15	70
17	70
18	369
26	80
27	1159
28	199
29	949
30	60
37	10
38	60
39	1119
40	189
41	3699
42	439
43	3789
44	359
45	20
50	60
51	169
52	219
53	799
54	209
55	909
56	129
57	50
58	10
61	30
63	20
64	10
65	119
66	109
67	289
68	209
69	509
70	199
71	549
72	30
73	10
77	169
78	149
79	359
80	259
81	429
82	169
83	169
84	40
85	50
86	10
87	20
91	60
92	20
93	60
94	99
95	109
96	629
97	2419
98	379
99	40
100	10
105	10
106	259
107	99
108	569
109	229
110	109
111	40
112	299
113	40
120	10
121	40
122	50
123	60
124	1659
125	249
126	119
127	10
128	30
129	60
134	10
135	30
136	70
137	40
138	70
139	60
140	99
141	529
142	60
143	10
149	30
150	70
151	279
152	119
153	1029
154	189
155	569
156	60
157	10
165	30
166	50
167	8189
168	9999
169	1509
170	159
171	10
178	10
179	70
180	20
181	389
182	50
183	10
191	10
194	10
195	2239
196	879
197	509
198	60
209	119
210	40
211	10
220	20
221	20
223	40
238	40
239	10
