Mass Spectrum: Probarbital
Formula: C9 H14 N2 O3
CAS: 76-76-6
Molecular weight: 198
Origin: MI-0052
m/z	RELATIVE INTENSITY
26	30
27	340
28	290
29	240
30	10
37	10
38	40
39	390
40	140
41	1191
42	190
43	991
44	290
51	40
52	90
53	190
54	170
55	390
56	130
57	100
58	90
59	10
65	50
66	90
67	230
68	150
69	390
70	310
71	90
72	10
79	40
80	190
81	30
82	90
83	190
84	110
85	290
86	90
94	160
95	90
96	90
97	270
98	791
99	90
100	10
108	10
109	240
110	80
111	90
112	490
113	170
114	10
124	20
126	190
140	30
141	5795
142	440
143	140
144	40
153	10
154	90
155	991
156	9999
157	841
158	140
159	40
168	10
169	591
170	290
171	90
182	10
183	90
184	10
198	10
199	60
