Mass Spectrum: Benzenemethanol, .alpha.,.alpha.-diphenyl-
Formula: C19 H16 O
CAS: 76-84-6
Molecular weight: 260
Origin: Japan AIST/NIMC Database- Spectrum MS-NW-2659
m/z	RELATIVE INTENSITY
17	20
18	70
26	10
27	70
28	70
38	10
39	129
41	10
43	10
50	159
51	679
52	80
53	20
55	10
57	10
62	40
63	109
64	30
65	40
74	60
75	70
76	159
77	3839
78	459
79	50
81	10
82	10
86	30
87	40
88	30
89	50
90	10
91	269
92	10
93	20
94	50
95	10
97	10
98	20
99	20
100	20
101	50
102	30
103	20
104	30
105	9999
106	829
107	90
108	30
110	10
111	10
112	10
113	80
114	30
115	149
116	20
118	60
119	139
120	99
121	70
122	10
126	30
127	50
128	60
129	40
130	10
137	10
138	10
139	90
140	10
141	20
150	20
151	60
152	289
153	229
154	2939
155	2199
156	259
157	10
162	10
163	109
164	139
165	1809
166	469
167	409
168	60
176	20
177	10
178	10
180	10
181	489
182	2099
183	9689
184	1359
185	109
186	10
187	20
188	10
189	40
190	10
191	10
200	20
201	20
202	80
203	20
211	10
213	50
214	10
215	149
216	50
217	10
225	10
226	80
227	40
228	109
229	40
230	10
231	10
237	40
238	30
239	349
240	149
241	889
242	1559
243	909
244	539
245	99
246	10
257	10
258	10
259	109
260	1919
261	399
262	40
