Mass Spectrum: Fentin hydroxide
Formula: C18 H16 O Sn
CAS: 76-87-9
Molecular weight: 368
Origin: Japan AIST/NIMC Database- Spectrum MS-NW-5873
m/z	RELATIVE INTENSITY
14	10
15	20
24	10
25	20
26	149
27	429
28	20
29	40
30	30
31	20
32	10
34	10
36	20
37	109
38	139
39	669
40	30
41	40
42	60
43	40
44	90
45	20
48	20
49	99
50	1049
51	2829
52	789
53	50
54	10
55	30
56	30
57	50
58	30
60	30
61	30
62	70
63	229
64	40
65	70
66	40
67	20
68	20
69	40
70	10
71	20
72	30
73	99
74	259
75	199
76	339
77	2379
78	3359
79	259
81	10
82	20
83	20
84	10
85	10
86	20
87	20
88	169
89	60
90	10
91	60
92	20
93	10
94	40
95	10
97	20
98	30
99	20
100	20
101	40
102	70
103	30
104	10
105	20
106	10
107	10
108	20
109	20
110	40
111	10
112	199
113	30
114	129
115	129
116	2779
117	1689
118	4619
119	1749
120	6109
121	169
122	889
123	30
124	1079
125	30
126	80
127	109
128	139
129	30
131	20
133	239
134	119
135	349
136	159
137	579
138	20
139	169
141	249
142	90
143	289
144	99
145	379
146	20
147	80
149	60
150	40
151	139
152	819
153	609
154	1769
155	219
156	30
157	30
158	30
159	10
160	10
161	10
164	10
165	50
166	30
167	109
168	60
169	149
170	60
171	119
172	10
173	30
175	30
176	20
177	10
178	20
179	30
180	10
181	10
182	10
183	10
184	30
185	40
186	80
187	10
188	10
189	199
190	30
191	149
192	159
193	2919
194	1749
195	4819
196	2009
197	6449
198	469
199	899
200	90
201	1129
202	70
203	10
204	10
205	10
207	10
208	10
209	30
210	30
211	60
212	50
213	60
214	60
215	30
216	20
217	30
218	30
219	40
220	10
221	50
222	10
223	10
225	20
226	50
227	20
228	159
229	129
230	139
231	70
232	20
233	10
234	10
236	20
237	20
238	20
239	20
240	30
241	10
242	10
243	30
244	20
245	20
246	10
247	30
248	20
249	10
250	20
251	30
252	50
253	30
254	40
255	30
256	50
258	20
260	20
262	10
263	10
264	10
265	20
266	119
267	40
268	139
269	339
270	1749
271	1419
272	2919
273	1779
274	3739
275	569
276	579
277	179
278	639
279	139
280	99
281	139
282	99
283	70
284	40
285	90
286	129
287	409
288	379
289	819
290	519
291	939
292	199
293	329
294	70
295	169
296	30
297	30
298	10
299	10
301	10
302	20
303	10
304	20
305	40
306	30
307	60
308	30
309	80
310	30
311	40
312	10
313	20
314	10
315	10
316	20
317	10
319	10
320	10
321	10
324	10
325	20
326	20
327	50
328	50
329	109
330	70
331	159
332	70
333	119
334	40
335	50
336	20
337	40
339	10
341	20
342	10
343	329
344	70
345	279
346	269
347	4419
348	3109
349	7139
350	4109
351	9999
352	1819
353	1439
354	359
355	1779
356	369
357	50
358	10
359	10
362	10
363	20
364	30
365	40
366	30
367	40
368	20
369	20
370	10
371	10
