Mass Spectrum: Silane, chlorotriphenyl-
Formula: C18 H15 Cl Si
CAS: 76-86-8
Molecular weight: 294
Origin: J.E. WILKINSON S-CUBED, SAN DIEGO, CA.
m/z	RELATIVE INTENSITY
47	18
48	1
49	11
50	540
51	2320
52	224
53	673
54	46
55	31
56	1
61	1
63	4796
64	258
65	1648
66	88
67	48
69	5
73	3
74	118
75	175
76	230
77	1445
78	361
79	398
80	19
81	5
84	1
86	12
87	44
88	61
89	221
90	37
91	68
92	3
93	1
94	1
96	1
98	10
99	14
100	13
101	79
102	167
103	477
104	76
105	769
106	69
107	6
108	339
109	139
110	7
111	3
112	8
113	122
114	45
115	411
116	39
117	48
118	1
122	1
123	1
124	1
125	14
126	159
127	163
128	217
129	943
130	85
131	20
132	1
137	10
138	6
139	746
140	1760
141	588
142	617
143	115
144	12
146	1
147	10
148	3
149	3
150	82
151	294
152	1461
153	944
154	9999
155	2294
156	224
157	29
163	16
164	7
165	288
166	32
167	77
168	5
169	1
174	1
176	7
177	17
178	23
179	258
180	1139
181	2890
182	511
183	112
184	4
187	1
188	1
189	77
190	7
191	36
192	3
193	2
199	8
201	33
202	40
203	12
204	7
205	16
206	1
213	7
215	1596
216	1280
217	8333
218	1812
219	2755
220	439
221	87
222	3
225	1
226	18
227	9
228	27
229	25
230	10
231	4
252	1
253	3
254	6
255	29
256	5
257	178
258	78
259	66
260	8
278	8
279	1
291	1
293	252
294	3666
295	960
296	1336
297	274
298	46
299	1
