Mass Spectrum: Methyl benzilate
Formula: C15 H14 O3
CAS: 76-89-1
Molecular weight: 242
Origin: NIST Mass Spectrometry Data Center, 1994
m/z	RELATIVE INTENSITY
13	8
14	30
15	481
16	7
17	13
18	18
27	88
28	92
29	74
30	18
31	26
32	13
38	29
39	143
40	5
44	11
45	22
50	215
51	798
52	117
53	57
59	173
60	9
62	58
63	128
64	41
65	38
66	9
70	39
74	84
75	109
77	3659
78	363
79	24
82	98
84	14
86	32
87	43
88	22
89	61
91	89
98	15
99	12
100	11
101	21
102	38
103	22
105	6714
106	515
107	37
110	9
111	13
113	32
114	18
115	90
116	9
126	69
127	78
128	59
129	16
135	8
137	21
138	15
139	97
140	17
150	39
151	114
152	358
153	209
154	43
155	25
162	18
163	100
164	121
165	373
166	76
167	39
168	28
181	344
183	9999
184	1383
185	133
186	12
194	9
195	11
197	128
198	24
242	15
