Mass Spectrum: Benzilic acid
Formula: C14 H12 O3
CAS: 76-93-7
Molecular weight: 228
Origin: VERIFIN - Methodology B4-1983
m/z	RELATIVE INTENSITY
51	500
76	200
77	2702
78	200
82	100
83	300
91	200
105	5805
106	300
152	200
165	700
166	400
167	80
181	300
182	400
183	9999
184	1501
