Mass Spectrum: Phenylmethylbarbituric acid
Formula: C11 H10 N2 O3
CAS: 76-94-8
Molecular weight: 218
Origin: Finnigan MAT: Toxicological Library (LIBR-TX)
m/z	RELATIVE INTENSITY
51	2611
52	1015
63	541
76	365
77	2135
78	2250
91	242
102	458
103	2050
104	7270
105	867
121	113
132	9999
133	1076
146	233
147	100
150	113
175	490
176	77
203	32
218	4714
219	623
