Mass Spectrum: Pentane, 3-methylene-
Formula: C6 H12
CAS: 760-21-4
Molecular weight: 84
m/z	RELATIVE INTENSITY
12	10
13	10
14	70
15	691
16	20
25	10
26	420
27	4954
28	991
29	3453
30	80
31	10
32	10
33	10
36	10
37	80
38	300
39	3924
40	741
41	9999
42	3143
43	991
44	40
49	20
50	300
51	591
52	280
53	1521
54	841
55	7497
56	3143
57	150
58	10
61	10
62	30
63	70
64	10
65	140
66	70
67	500
68	90
69	8938
70	480
71	10
73	10
74	10
75	10
76	10
77	40
78	10
79	30
80	10
81	20
82	10
83	80
84	4244
85	280
86	10
