Mass Spectrum: Silane, diethylmethyl-
Formula: C5 H14 Si
CAS: 760-32-7
Molecular weight: 102
m/z	RELATIVE INTENSITY
12	20
13	20
14	440
15	250
16	190
24	20
25	60
26	370
27	40
28	150
29	40
30	80
31	400
39	90
40	150
41	80
42	360
43	1251
44	801
45	6596
46	460
47	330
51	20
52	20
53	280
54	80
55	400
56	150
57	380
58	370
59	1521
60	170
61	90
63	20
65	40
66	60
67	60
68	20
69	90
70	150
71	260
72	3563
73	9999
74	951
75	340
76	10
86	210
87	681
88	100
89	50
100	20
101	681
102	801
103	160
104	50
