Mass Spectrum: Chloromethyl heptanoate
Formula: C8 H15 Cl O2
CAS: 76068-79-6
Molecular weight: 178
Origin: ASES Database, Dalian Institute, P.R. China
m/z	RELATIVE INTENSITY
39	1531
41	4203
42	3643
43	6325
44	690
49	1801
51	540
55	5014
56	1841
57	1771
68	1261
69	2121
70	1551
71	1211
72	7136
73	680
83	1271
84	1671
85	2812
108	9999
109	850
110	3393
111	140
112	140
113	5755
114	130
121	1811
123	420
135	480
136	70
137	130
149	130
