Mass Spectrum: Formamide, N,N-dibutyl-
Formula: C9 H19 N O
CAS: 761-65-9
Molecular weight: 157
Origin: Japan AIST/NIMC Database- Spectrum MS-IW- 561
m/z	RELATIVE INTENSITY
15	40
18	10
26	20
27	389
28	409
29	1349
30	1819
31	30
32	10
39	269
40	30
41	1209
42	389
43	199
44	1199
45	60
46	259
51	10
52	10
53	60
54	50
55	359
56	219
57	969
58	1399
59	449
60	199
67	10
68	20
69	20
70	80
71	50
72	9999
73	1369
74	70
82	10
83	10
84	199
85	149
86	349
87	40
96	10
98	159
99	30
100	459
101	50
102	219
103	10
112	30
114	6909
115	679
116	40
126	10
128	559
129	50
140	20
142	149
143	10
156	50
157	189
158	459
159	40
