Mass Spectrum: 1-Butene, 1-chloro-, (Z)-
Formula: C4 H7 Cl
CAS: 7611-86-1
Molecular weight: 90
Origin: NIST Mass Spectrometry Data Center, 1990.
m/z	RELATIVE INTENSITY
14	179
15	465
18	211
25	285
26	1831
27	3605
28	1411
29	1861
36	169
37	605
38	1196
39	6603
40	475
41	1009
47	228
48	190
49	1270
50	1212
51	1323
52	358
53	2397
54	2450
55	9999
56	455
61	381
62	1571
63	278
64	585
73	183
75	3286
76	188
77	953
89	349
90	2988
92	990
