Mass Spectrum: Isothiocyanic acid, (p-phenylazo)phenyl ester
Formula: C13 H9 N3 S
CAS: 7612-96-6
Molecular weight: 239
Origin: NIST Mass Spectrometry Data Center, 1994
m/z	RELATIVE INTENSITY
26	128
27	483
28	183
32	71
37	320
38	615
39	1186
40	122
41	51
44	140
45	142
50	2290
51	5156
52	490
53	45
56	20
57	66
58	57
59	34
60	39
61	149
62	407
63	1716
64	1134
65	210
66	36
67	37
69	226
70	325
71	46
72	37
73	76
74	625
75	987
76	1159
77	9999
78	671
81	64
82	94
83	204
84	193
86	29
87	58
88	118
89	29
90	2600
91	246
92	30
93	80
94	72
95	66
96	50
97	38
99	29
102	471
103	62
105	1153
106	152
107	707
108	312
109	225
110	35
120	69
121	31
126	53
127	76
128	33
130	71
134	8702
135	852
136	425
137	37
139	28
140	27
150	60
151	194
152	543
153	114
162	2257
163	226
164	124
177	31
179	23
207	152
208	30
209	31
210	76
211	54
239	3863
240	643
241	256
242	34
