Mass Spectrum: Benzene, 1,1'-(3-methyl-1-propene-1,3-diyl)bis-
Formula: C16 H16
CAS: 7614-93-9
Molecular weight: 208
m/z	RELATIVE INTENSITY
27	230
38	50
39	470
40	40
41	110
50	210
51	761
52	170
53	170
62	90
63	460
64	90
65	771
66	50
70	80
74	110
75	170
76	400
77	1181
78	360
79	320
82	200
83	200
86	40
87	80
88	160
89	1151
90	110
91	4104
92	380
94	120
95	270
96	210
97	70
101	180
102	310
103	701
104	470
105	681
106	100
113	60
114	60
115	9999
116	1271
117	711
118	90
119	80
120	30
126	80
127	330
128	811
129	1611
130	1932
131	821
132	80
139	120
141	70
150	40
151	100
152	340
153	100
154	30
163	90
164	80
165	951
166	230
167	340
168	50
176	130
177	140
178	3123
179	1802
180	270
181	80
187	40
188	40
189	561
191	1021
192	530
193	9479
194	2052
195	130
202	150
203	120
204	80
205	130
206	310
207	1461
208	9549
209	1852
210	190
