Mass Spectrum: Perchloryl fluoride
Formula: Cl F O3
CAS: 7616-94-6
Molecular weight: 102
m/z	RELATIVE INTENSITY
19	120
32	801
35	1712
37	540
51	1872
53	591
67	5505
69	1782
83	9999
85	3423
102	4014
104	1301
