Mass Spectrum: Methanone,(2-iodophenyl)-2-pyridinyl-
Formula: C12 H8 I N O
CAS: 76160-35-5
Molecular weight: 309
Origin: ASES Database, Dalian Institute, P.R. China
m/z	RELATIVE INTENSITY
50	680
51	1010
52	190
63	190
74	190
75	400
76	1501
77	800
78	1291
101	300
126	490
127	1591
128	590
152	200
153	400
154	690
155	100
182	9999
203	2392
231	1381
