Mass Spectrum: .gamma.-Tocopherol
Formula: C28 H48 O2
CAS: 7616-22-0
Molecular weight: 416
Origin: NIST Mass Spectrometry Data Center, 2010
m/z	RELATIVE INTENSITY
27	60
29	200
38	10
39	90
40	10
41	651
42	120
43	1421
44	40
45	10
51	10
52	10
53	100
54	30
55	741
56	120
57	821
58	40
64	10
65	50
66	20
67	210
68	50
69	470
70	50
71	360
72	20
75	10
77	160
78	30
79	170
80	30
81	210
82	30
83	230
84	20
85	80
86	10
89	10
90	10
91	190
92	30
93	100
94	30
95	190
96	30
97	120
98	10
99	10
103	50
104	20
105	110
106	20
107	350
108	90
109	90
110	20
111	120
112	10
113	10
115	40
116	20
117	30
118	10
119	50
120	20
121	250
122	300
123	260
124	40
125	30
126	10
127	20
128	30
129	30
130	20
131	50
132	20
133	30
134	20
135	250
136	40
137	110
138	150
139	40
141	10
142	10
143	20
144	10
145	70
146	20
147	70
148	40
149	110
150	2022
151	9999
152	1551
153	150
154	10
155	10
157	20
158	30
159	40
160	20
161	100
162	60
163	170
164	290
165	150
166	20
171	10
172	20
173	60
174	30
175	160
176	120
177	190
178	40
179	20
187	20
188	20
189	210
190	80
191	1732
192	230
193	30
201	10
202	10
203	40
204	20
205	140
206	40
217	10
218	10
219	20
220	10
231	10
232	10
233	10
246	10
260	20
274	30
275	10
288	20
289	10
302	30
303	10
316	10
330	20
331	10
344	20
358	10
372	10
373	20
374	20
400	20
401	20
414	20
416	7186
417	2162
418	350
419	40
