Mass Spectrum: 2,6-Methano-3-benzazocin-8-ol, 1,2,3,4,5,6-hexahydro-3-allyl-6,11-dimethyl-
Formula: C17 H23 N O
CAS: 7619-35-4
Molecular weight: 257
Origin: Patti Price, Georgia Bureau of Investigation, Decatur, Georgia
m/z	RELATIVE INTENSITY
41	5214
42	2802
43	2232
50	20
51	410
52	100
53	600
54	650
55	1541
56	2532
57	2422
58	770
61	10
63	180
64	80
65	570
66	140
67	460
68	2121
69	590
70	1491
71	120
72	80
73	10
74	10
75	70
76	100
77	1121
78	240
79	640
80	320
81	790
82	1201
83	270
84	3373
85	1961
86	200
87	40
89	170
90	20
91	1060
92	70
93	180
94	570
95	170
96	800
97	200
98	840
99	70
101	80
102	140
103	270
104	100
105	410
106	140
107	1040
108	980
109	440
110	5775
111	470
112	160
114	110
115	1801
116	470
117	590
118	100
119	190
120	160
121	540
122	800
123	170
124	240
125	10
126	60
127	980
128	1311
129	780
130	270
131	1241
132	450
133	560
134	390
135	150
136	460
137	20
139	80
140	20
141	570
142	100
143	190
144	1030
145	2191
146	1781
147	610
148	300
149	20
150	7156
151	780
152	160
153	100
154	70
155	250
156	60
157	1751
158	1811
159	3182
160	1121
161	1211
162	170
165	10
166	10
167	10
168	40
169	90
170	160
171	390
172	1861
173	1851
174	2352
175	550
176	60
177	10
180	10
181	20
182	20
183	80
184	140
185	300
186	530
187	290
188	170
190	10
195	10
198	70
199	100
200	860
201	260
202	100
212	30
213	10
214	610
215	790
216	720
217	130
224	10
226	70
227	40
228	1261
229	360
230	3813
231	590
232	50
240	180
241	10
242	7566
243	1431
244	100
255	40
256	3943
257	9999
258	1881
259	140
