Mass Spectrum: Silane, trimethyl-2-propenyl-
Formula: C6 H14 Si
CAS: 762-72-1
Molecular weight: 114
Origin: D.HENNEBERG, MAX-PLANCK INSTITUTE, MULHEIM, WEST GERMANY
m/z	RELATIVE INTENSITY
25	8
26	13
27	53
29	309
30	28
31	259
33	9
36	1
37	7
38	16
39	133
40	10
41	55
42	126
43	1049
44	287
45	1689
46	112
47	65
48	5
50	6
51	13
52	5
53	122
54	38
55	208
56	33
57	146
58	114
59	1480
60	108
61	52
65	17
66	40
67	69
68	13
69	52
70	41
71	489
72	131
73	9999
74	835
75	349
76	12
77	5
79	5
81	20
82	4
83	52
84	7
85	12
95	21
96	4
97	79
98	14
99	930
100	101
101	37
114	276
115	34
116	10
