Mass Spectrum: 1-Pentene, 4,4-dimethyl-
Formula: C7 H14
CAS: 762-62-9
Molecular weight: 98
Origin: Japan AIST/NIMC Database- Spectrum MS-NW-3136
m/z	RELATIVE INTENSITY
15	80
26	50
27	589
28	40
29	2009
30	40
31	10
37	20
38	80
39	1099
40	169
41	3889
42	199
43	289
44	10
50	60
51	90
52	30
53	209
54	40
55	2869
56	619
57	9999
58	469
59	60
62	10
63	30
65	60
66	20
67	179
68	30
69	60
70	269
71	40
77	30
79	30
81	99
82	50
83	1519
84	109
85	10
95	20
96	10
97	30
98	109
99	40
