Mass Spectrum: Formic acid, 1,1-dimethylethyl ester
Formula: C5 H10 O2
CAS: 762-75-4
Molecular weight: 102
Origin: D.HENNEBERG, MAX-PLANCK INSTITUTE, MULHEIM, WEST GERMANY
m/z	RELATIVE INTENSITY
27	1912
28	539
29	3844
30	124
31	3010
32	42
33	19
36	12
37	91
38	258
39	2158
40	358
41	7203
42	385
43	1654
44	193
45	148
46	65
47	51
48	8
49	52
50	158
51	134
52	35
53	150
54	84
55	858
56	2686
57	9324
58	429
59	9999
60	273
61	26
63	29
64	10
65	20
67	35
68	9
69	120
71	23
73	21
76	7
77	54
81	6
83	49
87	1097
88	41
