Mass Spectrum: 2-Butynedioic acid, dimethyl ester
Formula: C6 H6 O4
CAS: 762-42-5
Molecular weight: 142
Origin: NIST Mass Spectrometry Data Center, 1992
m/z	RELATIVE INTENSITY
12	52
13	36
14	215
15	1443
16	32
17	3
18	7
24	267
25	222
26	207
27	203
28	444
29	1431
30	331
31	171
32	80
36	65
37	148
38	374
39	3408
40	328
41	65
42	258
43	81
44	174
45	145
46	7
52	2024
53	858
54	111
55	105
56	29
57	15
58	7
59	1148
60	21
61	6
64	12
66	290
67	97
68	280
69	623
70	87
71	14
80	1092
81	259
82	385
83	370
84	571
85	42
86	57
94	6
96	21
97	212
98	967
99	90
111	9999
112	1843
113	158
114	22
127	9
142	110
143	8
