Mass Spectrum: Ethane, 1-bromo-2-fluoro-
Formula: C2 H4 Br F
CAS: 762-49-2
Molecular weight: 126
Origin: Japan AIST/NIMC Database- Spectrum MS-NW-2961
m/z	RELATIVE INTENSITY
12	20
13	30
14	99
15	60
20	10
24	20
25	149
26	689
27	3299
28	339
29	20
31	129
32	40
33	389
39	10
43	179
44	249
45	1259
46	1719
47	9999
48	219
58	80
78	70
79	169
80	80
81	159
82	80
88	20
91	50
92	40
93	629
94	50
95	579
104	20
105	199
106	40
107	279
108	20
109	109
123	10
124	20
125	80
126	3529
127	159
128	3379
129	80
