Mass Spectrum: N-tert-Butylacetamide
Formula: C6 H13 N O
CAS: 762-84-5
Molecular weight: 115
Origin: NIST Mass Spectrometry Data Center
m/z	RELATIVE INTENSITY
15	40
18	20
26	10
27	90
29	140
30	100
38	20
39	270
40	60
41	791
42	821
43	1371
44	90
50	40
51	20
52	20
53	40
54	50
55	200
56	621
57	821
58	9999
59	400
60	1912
61	50
70	30
71	20
72	110
73	20
84	10
100	1191
101	70
115	1111
116	80
