Mass Spectrum: N,N-Diamylmethylamine
Formula: C11 H25 N
CAS: 76257-73-3
Molecular weight: 171
Origin: AIR PRODUCTS & CHEMICALS, INC BOX 538, ALLENTOWN, PA 18105, D M PAREES
m/z	RELATIVE INTENSITY
27	370
29	660
30	130
31	70
39	190
41	870
42	810
43	1570
44	2640
45	140
55	170
56	90
57	520
58	3190
59	540
70	160
71	130
84	410
96	130
98	100
100	130
101	70
102	70
114	9999
115	1090
116	60
117	70
140	50
142	40
170	100
171	600
172	80
