Mass Spectrum: 4-(2-Trifluoromethylphenyl)but-3-en-2-one
Formula: C11 H9 F3 O
CAS: 76293-37-3
Molecular weight: 214
Origin: ASES Database, Dalian Institute, P.R. China
m/z	RELATIVE INTENSITY
51	300
75	540
102	760
145	6525
146	770
151	9999
152	1231
169	460
171	2292
199	5094
200	680
213	230
214	1861
215	220
