Mass Spectrum: 3-Buten-2-one, 4-(2-iodophenyl)-
Formula: C10 H9 I O
CAS: 76293-36-2
Molecular weight: 272
Origin: ASES Database, Dalian Institute, P.R. China
m/z	RELATIVE INTENSITY
51	1221
74	390
75	770
76	910
101	370
102	3252
103	140
130	3853
131	310
145	9999
146	920
272	770
