Mass Spectrum: n-Propyl methylphosphonofluoridate
Formula: C4 H10 F O2 P
CAS: 763-14-4
Molecular weight: 140
Origin: VERIFIN - Methodology B1-1979
m/z	RELATIVE INTENSITY
27	700
28	100
29	300
31	90
35	70
36	100
39	500
40	50
41	900
42	800
43	600
47	400
49	90
51	80
59	200
67	400
79	500
80	70
81	3302
82	1401
83	300
86	100
98	200
99	9999
100	200
111	1901
112	100
113	100
125	400
139	10
