Mass Spectrum: 3-Penten-1-ol, 4-methyl-
Formula: C6 H12 O
CAS: 763-89-3
Molecular weight: 100
Origin: Chuck Anderson, Aldrich Chemical Co.
m/z	RELATIVE INTENSITY
26	43
27	619
28	153
29	661
30	35
31	672
37	45
38	137
39	1911
40	307
41	9999
42	590
43	724
44	104
45	70
50	166
51	212
52	95
53	787
54	160
55	871
56	501
57	777
58	53
59	121
62	15
63	36
65	120
66	68
67	1239
68	170
69	5377
70	535
71	54
72	554
79	76
81	129
82	189
83	49
100	564
101	32
