Mass Spectrum: 3-Buten-1-ol, 3-methyl-
Formula: C5 H10 O
CAS: 763-32-6
Molecular weight: 86
Origin: Japan AIST/NIMC Database- Spectrum MS-NW-1070
m/z	RELATIVE INTENSITY
14	50
15	189
16	10
17	10
18	30
25	10
26	239
27	2369
28	719
29	2909
30	189
31	5459
32	159
33	10
36	10
37	199
38	459
39	3969
40	2179
41	9999
42	799
43	759
44	679
45	209
49	70
50	369
51	449
52	159
53	2349
54	329
55	3039
56	9599
57	649
58	149
59	20
61	30
62	40
63	40
65	109
66	129
67	3669
68	8069
69	539
70	40
71	1209
72	60
73	10
82	10
83	99
84	119
85	70
86	2539
87	139
