Mass Spectrum: Boron trifluoride
Formula: B F3
CAS: 7637-07-2
Molecular weight: 68
Origin: LRL 0010
m/z	RELATIVE INTENSITY
10	150
11	540
19	320
29	30
30	110
38	10
48	2692
49	9999
68	480
