Mass Spectrum: Fumaronitrile
Formula: C4 H2 N2
CAS: 764-42-1
Molecular weight: 78
Origin: Japan AIST/NIMC Database- Spectrum MS-NW-4972
m/z	RELATIVE INTENSITY
12	189
13	40
14	30
24	159
25	299
26	929
27	179
28	189
36	179
37	299
38	589
39	289
40	50
48	60
49	10
50	559
51	5199
52	1709
53	80
62	80
63	40
76	559
77	3139
78	9999
79	519
80	10
