Mass Spectrum: 2-Hexyne
Formula: C6 H10
CAS: 764-35-2
Molecular weight: 82
Origin: NIST Mass Spectrometry Data Center, 1990.
m/z	RELATIVE INTENSITY
15	516
26	1075
27	5149
28	563
29	1212
37	459
38	886
39	6157
40	1075
41	5510
42	1256
43	151
49	319
50	2092
51	2851
52	1730
53	7461
54	3649
55	705
56	126
61	200
62	371
63	582
64	126
65	1944
66	126
67	9999
68	539
73	79
74	187
77	651
78	149
79	1157
80	310
81	1228
82	9244
83	584
