Mass Spectrum: Hydroperoxide, heptyl
Formula: C7 H16 O2
CAS: 764-81-8
Molecular weight: 132
m/z	RELATIVE INTENSITY
12	120
14	90
15	1120
16	300
17	360
18	110
19	270
26	760
27	7499
28	1940
29	9999
30	670
31	2210
32	40
33	40
34	110
37	80
38	240
39	4310
40	740
41	7149
42	2270
43	4070
44	1210
45	430
47	600
50	120
51	240
52	110
53	570
54	800
55	3440
56	1040
57	2100
58	140
59	40
63	30
65	70
66	30
67	200
68	230
69	500
70	850
71	280
72	70
73	30
79	30
83	70
85	40
86	70
96	50
97	330
98	50
