Mass Spectrum: Nonanoyl chloride
Formula: C9 H17 Cl O
CAS: 764-85-2
Molecular weight: 176
Origin: NIST Mass Spectrometry Data Center, 1994
m/z	RELATIVE INTENSITY
14	174
15	658
16	15
27	6773
28	1986
29	7070
30	163
35	58
37	102
39	4373
41	9999
42	3691
43	5414
44	197
47	33
49	112
50	128
51	282
52	161
53	710
54	33
55	5528
56	2188
57	4061
58	288
61	51
63	951
65	410
67	632
68	658
69	1583
70	1069
71	1001
72	80
77	211
78	875
79	417
80	370
81	827
82	80
83	1303
84	3380
85	252
86	33
91	467
93	360
94	247
96	1823
97	948
98	1661
99	48
102	117
104	4
105	86
107	55
111	136
112	296
113	61
116	49
118	6
121	19
122	73
123	111
124	22
125	8
133	29
135	29
141	620
142	44
