Mass Spectrum: 1-Decyne
Formula: C10 H18
CAS: 764-93-2
Molecular weight: 138
m/z	RELATIVE INTENSITY
25	10
26	310
27	6336
28	1041
29	6146
30	130
37	70
38	270
39	4824
40	1011
41	9999
42	1972
43	6566
44	210
45	10
49	10
50	200
51	591
52	440
53	2092
54	3533
55	7337
56	2322
57	3954
58	170
59	10
61	10
62	20
63	100
64	30
65	470
66	500
67	6676
68	2432
69	1421
70	931
71	150
72	10
74	10
75	10
76	10
77	380
78	130
79	871
80	370
81	7827
82	2232
83	581
84	110
85	30
89	10
91	110
92	20
93	140
94	70
95	3203
96	661
97	290
98	180
99	10
103	10
105	10
107	20
108	10
109	731
110	110
111	20
112	10
120	10
122	10
123	60
124	10
137	10
138	10
139	10
