Mass Spectrum: 1,5-Octadiyne
Formula: C8 H10
CAS: 764-74-9
Molecular weight: 106
Origin: S.A. Rang et al., IR & MS of Unsatd. Hydrocarbons, 1977
m/z	RELATIVE INTENSITY
26	120
27	640
37	120
38	410
39	2500
41	4500
42	150
50	730
51	1550
52	720
53	400
54	80
55	10
61	110
62	350
63	990
64	210
65	4060
66	700
67	760
73	20
74	200
75	120
76	120
77	880
78	80
79	1130
80	8
91	9999
92	640
105	2080
106	260
