Mass Spectrum: 2-Hydroxyhexadecanoic acid
Formula: C16 H32 O3
CAS: 764-67-0
Molecular weight: 272
Origin: Japan AIST/NIMC Database- Spectrum MS-NW-2240
m/z	RELATIVE INTENSITY
15	70
16	30
17	109
18	459
19	20
26	70
27	1509
28	559
29	3779
30	99
31	349
32	80
34	20
35	20
36	209
38	60
39	979
40	219
41	7219
42	1459
43	9999
44	1039
45	499
46	30
47	60
48	10
50	20
51	50
52	40
53	499
54	909
55	8299
56	2049
57	8609
58	479
59	149
60	289
61	60
62	90
63	30
64	30
65	90
66	299
67	2339
68	1859
69	7829
70	1779
71	4259
72	339
73	999
74	199
75	60
76	6999
77	219
78	99
79	239
80	169
81	2339
82	2779
83	7629
84	1259
85	2269
86	229
87	419
88	50
89	3259
90	149
91	109
92	30
93	119
94	219
95	2029
96	1979
97	6339
98	1809
99	679
100	519
101	189
102	70
103	30
104	10
105	50
106	30
107	70
108	119
109	1129
110	749
111	3319
112	649
113	5359
114	1649
115	269
116	70
117	60
118	249
119	60
120	20
121	70
122	70
123	589
124	599
125	1589
126	419
127	2319
128	249
129	239
130	40
131	1629
132	129
133	119
134	40
135	60
136	50
137	419
138	1269
139	739
140	319
141	169
142	299
143	99
144	40
145	389
146	40
147	30
148	20
149	40
150	20
151	309
152	399
153	359
154	149
155	149
156	1519
157	229
158	70
159	10
161	20
163	20
164	10
165	129
166	129
167	119
168	90
169	199
170	619
171	169
172	40
177	30
178	20
179	70
180	279
181	99
182	1019
183	239
184	129
185	90
186	30
189	10
191	10
192	40
193	50
194	40
195	199
196	109
197	80
198	60
199	179
200	70
201	10
202	10
205	10
206	10
207	60
208	409
209	149
210	139
211	70
212	50
213	479
214	229
215	30
218	10
221	20
223	20
224	20
225	469
226	169
227	4289
228	759
229	70
230	10
236	219
237	60
238	20
239	10
240	10
241	40
242	80
243	40
244	139
245	20
252	10
253	20
254	909
255	229
256	109
257	20
268	10
269	10
270	40
271	20
272	8669
273	1529
274	199
275	20
