Mass Spectrum: 2-Butyn-1-ol
Formula: C4 H6 O
CAS: 764-01-2
Molecular weight: 70
Origin: NIST Mass Spectrometry Data Center, 1990.
m/z	RELATIVE INTENSITY
12	39
13	63
14	135
15	240
16	40
17	23
18	56
24	68
25	259
26	723
27	3266
28	307
29	1713
30	224
31	709
34	124
36	337
37	1409
38	1562
39	5464
40	1128
41	2821
42	4534
43	865
44	325
48	131
49	668
50	1915
51	1946
52	793
53	1931
54	167
55	911
56	41
65	29
66	127
67	332
68	29
69	9999
70	911
71	55
