Mass Spectrum: Thiocyanic acid, 2-propenyl ester
Formula: C4 H5 N S
CAS: 764-49-8
Molecular weight: 99
Origin: G.Slater ET AL.J.Chromatogr.,648,433(1993)
m/z	RELATIVE INTENSITY
39	7677
40	460
41	9999
42	390
45	691
46	270
47	50
58	340
59	90
67	70
69	70
71	160
72	1421
98	390
99	2012
100	50
