Mass Spectrum: 5-Chloro-7-bromo-8-hydroxyquinoline
Formula: C9 H5 Br Cl N O
CAS: 7640-33-7
Molecular weight: 257
Origin: Japan AIST/NIMC Database- Spectrum MS-NW-7058
m/z	RELATIVE INTENSITY
25	20
26	50
27	40
28	159
29	40
36	50
37	219
38	239
39	409
40	40
41	50
42	30
43	269
44	99
45	10
47	20
48	40
49	129
50	249
51	169
52	129
53	169
54	30
55	30
56	199
57	969
58	119
60	99
61	579
62	869
63	769
64	209
65	80
66	30
67	10
69	10
71	40
72	129
73	299
74	299
75	939
76	369
77	80
78	30
79	30
80	30
81	30
82	30
83	50
84	109
85	229
86	489
87	959
88	799
89	229
90	80
91	20
92	10
93	10
95	20
96	99
97	319
98	199
99	149
100	60
101	40
102	50
103	10
104	10
106	10
108	20
109	20
110	40
111	50
112	70
113	90
114	1489
115	1639
116	199
117	50
118	10
119	30
120	10
121	80
122	129
123	809
124	189
125	259
126	60
127	10
128	219
129	289
130	80
131	10
133	10
135	10
139	10
140	20
141	40
142	40
143	80
144	10
148	60
149	579
150	4079
151	599
152	1299
153	139
154	20
155	10
156	10
165	20
166	10
167	40
168	20
169	20
176	10
177	60
178	959
179	209
180	339
181	60
182	10
185	20
187	10
192	10
193	40
194	129
195	50
196	109
197	10
201	40
202	10
203	50
204	20
205	20
206	10
213	80
214	10
215	50
217	10
222	10
224	10
228	189
229	1049
230	329
231	1329
232	189
233	349
234	40
255	10
256	40
257	7699
258	849
259	9999
260	1079
261	2449
262	259
263	20
