Mass Spectrum: 2-Octene, (Z)-
Formula: C8 H16
CAS: 7642-04-8
Molecular weight: 112
Origin: Japan AIST/NIMC Database- Spectrum MS-NW-1295
m/z	RELATIVE INTENSITY
14	199
15	119
26	129
27	2469
28	379
29	4499
30	99
37	30
38	119
39	2239
40	369
41	8069
42	4399
43	1489
44	70
45	60
50	99
51	209
52	109
53	789
54	839
55	9999
56	6339
57	2519
58	119
59	20
63	40
65	99
66	50
67	559
68	519
69	3359
70	5599
71	629
72	40
75	10
77	70
78	10
79	60
80	10
81	119
82	259
83	2179
84	959
85	90
86	10
91	10
93	10
95	40
97	189
98	20
110	40
111	10
112	3639
113	329
114	10
