Mass Spectrum: (Z)-3-Heptene
Formula: C7 H14
CAS: 7642-10-6
Molecular weight: 98
Origin: NIST Mass Spectrometry Data Center, 1990.
m/z	RELATIVE INTENSITY
14	257
15	446
26	365
27	2804
28	1716
29	1711
32	417
39	3741
40	886
41	9999
42	1660
43	989
50	396
51	537
52	255
53	1208
54	1008
55	5608
56	7141
57	754
65	311
67	959
69	5670
70	1716
83	371
98	3845
99	329
