Mass Spectrum: 3-Hexene, (Z)-
Formula: C6 H12
CAS: 7642-09-3
Molecular weight: 84
Origin: Japan AIST/NIMC Database- Spectrum MS-NW-4616
m/z	RELATIVE INTENSITY
14	10
15	159
26	189
27	1959
28	159
29	1879
30	50
31	20
37	90
38	239
39	2429
40	489
41	6649
42	6109
43	1449
44	80
49	30
50	229
51	309
52	139
53	899
54	619
55	9999
56	2659
57	129
61	20
62	40
63	70
64	10
65	139
66	50
67	519
68	90
69	2669
70	149
73	40
74	20
77	50
78	40
79	50
81	30
82	40
83	40
84	3829
85	269
86	10
