Mass Spectrum: Phosphorus pentafluoride
Formula: F5 P
CAS: 7647-19-0
Molecular weight: 126
Origin: A.Pleshkova, Nesmeyanov Inst.Org.Elem.Cpds, Moscow
m/z	RELATIVE INTENSITY
31	160
50	490
69	380
88	440
107	9999
126	80
