Mass Spectrum: 4-Thiazolidinone, 3-ethyl-2-thioxo-
Formula: C5 H7 N O S2
CAS: 7648-01-3
Molecular weight: 161
Origin: Japan AIST/NIMC Database- Spectrum MS-NW-1399
m/z	RELATIVE INTENSITY
12	10
13	30
14	239
15	339
17	10
18	30
25	20
26	259
27	1719
28	749
29	1699
30	60
31	10
32	149
33	40
34	20
35	10
36	20
38	20
39	40
40	109
41	199
42	899
43	389
44	269
45	1369
46	2619
47	399
48	119
49	10
51	20
52	40
54	439
55	40
56	269
57	80
58	229
59	1909
60	1779
61	149
62	90
64	639
65	20
66	50
68	10
69	10
70	60
71	40
72	519
73	60
74	489
75	339
76	369
77	239
78	239
79	30
80	20
83	10
84	40
85	70
86	6989
87	1979
88	1239
89	129
90	149
91	909
92	109
93	80
94	10
100	10
101	10
102	20
104	70
105	40
106	50
117	40
118	139
119	1829
120	109
121	159
132	30
133	219
134	40
135	20
145	30
146	10
159	30
160	939
161	9999
162	869
163	919
164	60
165	20
