Mass Spectrum: Cyclopentane, (1-methylethylidene)-
Formula: C8 H14
CAS: 765-83-3
Molecular weight: 110
Origin: D.HENNEBERG, MAX-PLANCK INSTITUTE, MULHEIM, WEST GERMANY
m/z	RELATIVE INTENSITY
25	18
26	66
27	1308
28	729
29	459
37	74
38	176
39	2313
40	355
41	3352
42	296
43	472
44	122
45	56
50	138
51	430
52	243
53	1100
54	384
55	1284
56	213
57	24
62	53
63	200
64	56
65	563
66	1591
67	9999
68	1696
69	1800
70	90
77	579
78	146
79	587
80	173
81	1554
82	587
83	32
89	26
91	424
92	48
93	608
94	72
95	5763
96	376
107	26
108	90
109	181
110	2812
111	221
