Mass Spectrum: Vinyl lauryl ether
Formula: C14 H28 O
CAS: 765-14-0
Molecular weight: 212
Origin: NIST Mass Spectrometry Data Center, 1994
m/z	RELATIVE INTENSITY
4	41
14	59
15	178
27	1798
28	599
29	4082
30	103
31	680
32	45
39	1229
41	7685
42	1992
43	9999
44	995
45	426
51	55
53	460
54	624
55	5803
56	3588
57	9169
58	412
59	550
60	28
65	106
66	207
67	1082
68	1680
69	4324
70	3209
71	3984
72	341
77	62
79	103
80	89
81	724
82	2674
83	3384
84	1707
85	2030
86	129
95	610
96	1177
97	2029
98	785
99	276
100	244
109	401
110	465
111	705
112	286
113	81
114	39
123	269
124	296
125	138
126	91
127	80
128	73
137	116
138	150
140	119
141	129
155	38
166	595
167	90
168	40
169	53
197	859
198	114
212	161
