Mass Spectrum: 1,3-Cyclopentanedione, 2-methyl-
Formula: C6 H8 O2
CAS: 765-69-5
Molecular weight: 112
Origin: Japan AIST/NIMC Database- Spectrum MS-NW-6706
m/z	RELATIVE INTENSITY
12	10
13	20
14	109
15	189
16	20
18	20
24	20
25	149
26	1079
27	3019
28	2729
29	1049
30	50
31	259
32	20
33	30
36	30
37	169
38	239
39	1139
40	329
41	1499
42	659
43	1839
44	239
45	50
48	20
49	90
50	259
51	279
52	209
53	569
54	389
55	3409
56	4849
57	1739
58	99
59	10
60	40
61	80
62	109
63	129
64	40
65	399
66	569
67	559
68	109
69	1899
70	1179
71	70
72	10
73	20
74	20
77	20
78	30
79	30
80	10
81	90
82	109
83	3469
84	729
85	619
86	40
89	20
90	10
91	20
92	10
93	30
94	99
95	90
96	20
97	359
98	30
108	20
109	10
110	50
111	1539
112	9999
113	719
114	70
115	10
