Mass Spectrum: 2-Methylpyrrolidine
Formula: C5 H11 N
CAS: 765-38-8
Molecular weight: 85
Origin: A.Pleshkova, Nesmeyanov Inst.Org.Elem.Cpds, Moscow
m/z	RELATIVE INTENSITY
27	711
28	4234
29	2432
30	3113
31	1031
32	90
39	1131
40	100
41	3213
42	220
43	3033
44	1051
45	90
55	611
56	2312
57	4834
58	420
69	510
70	9999
71	1221
72	100
84	2312
85	2532
86	210
87	10
