Mass Spectrum: Ethanone, 1-cyclopropyl-
Formula: C5 H8 O
CAS: 765-43-5
Molecular weight: 84
Origin: NIST Mass Spectrometry Data Center, 1990.
m/z	RELATIVE INTENSITY
13	74
14	307
15	1326
16	39
18	13
25	126
26	619
27	997
28	137
29	326
31	28
32	33
36	82
37	425
38	843
39	3997
40	549
41	6820
42	1349
43	9999
44	285
45	62
49	86
50	183
51	159
53	206
54	77
55	287
61	70
62	71
63	51
65	67
66	34
67	30
68	30
69	7160
70	289
83	448
84	2328
85	138
