Mass Spectrum: Tridecane, 1-bromo-
Formula: C13 H27 Br
CAS: 765-09-3
Molecular weight: 262
Origin: Japan AIST/NIMC Database- Spectrum MS-NW-5196
m/z	RELATIVE INTENSITY
15	30
26	50
27	1299
28	109
29	2389
30	60
38	20
39	859
40	169
41	4939
42	1259
43	8889
44	309
50	10
51	40
52	20
53	319
54	329
55	5159
56	1659
57	9999
58	469
59	10
65	40
66	20
67	349
68	249
69	4259
70	1139
71	5259
72	299
73	10
77	20
78	10
79	40
80	40
81	129
82	189
83	2099
84	569
85	3109
86	199
87	10
91	80
93	40
95	50
96	60
97	1059
98	299
99	679
100	60
105	30
106	10
107	189
108	10
109	169
110	20
111	339
112	129
113	449
114	40
119	10
120	10
121	139
122	20
123	90
124	10
125	80
126	60
127	309
128	30
129	10
133	10
134	30
135	6689
136	339
137	6529
138	309
139	20
140	30
141	159
142	20
148	80
149	1249
150	149
151	1229
152	70
154	30
162	30
163	189
164	40
165	169
166	10
176	10
177	60
178	10
179	50
182	20
183	70
184	10
191	20
192	10
193	20
205	10
207	10
219	10
221	10
262	20
264	20
