Mass Spectrum: Decane, 1-(ethenyloxy)-
Formula: C12 H24 O
CAS: 765-05-9
Molecular weight: 184
Origin: CARL DJERASSI DEPT OF CHEM STANFORD UNIV STANFORD CALIF 94305
m/z	RELATIVE INTENSITY
41	3861
42	1188
43	9999
44	396
45	396
53	198
54	297
55	3465
56	2970
57	7227
58	396
59	495
66	99
67	495
68	1089
69	2673
70	2970
71	2376
72	198
81	396
82	1485
83	2178
84	1287
85	1782
86	198
95	396
96	594
97	1188
98	495
99	99
100	198
109	198
110	198
111	495
112	396
123	198
127	198
128	99
138	594
139	99
140	198
141	198
169	693
170	198
184	297
