Mass Spectrum: Dodecyl thiocyanate
Formula: C13 H25 N S
CAS: 765-15-1
Molecular weight: 227
Origin: NIST Mass Spectrometry Data Center
m/z	RELATIVE INTENSITY
12	10
14	10
15	140
18	30
27	2873
28	991
29	4904
30	170
32	50
35	20
37	20
39	2322
41	9999
42	2452
43	6286
44	280
45	410
46	170
47	230
51	80
53	701
54	1011
55	8588
56	3863
57	3253
58	300
59	380
60	540
61	200
62	150
63	10
65	110
67	1111
68	1101
69	5115
70	2592
71	1081
72	470
73	90
74	80
75	90
77	60
78	20
79	160
80	80
81	430
82	1041
83	3243
84	1071
85	520
86	230
87	911
88	240
89	180
90	20
91	40
93	60
94	90
95	230
96	951
97	1872
98	460
99	140
100	200
101	1281
102	330
103	140
107	40
108	90
109	100
110	601
111	641
112	180
113	130
114	290
115	761
116	180
117	80
121	30
122	100
123	60
124	430
125	330
126	100
127	50
128	180
129	410
130	100
131	40
136	120
137	50
138	390
139	200
140	90
141	50
142	240
143	250
144	60
145	30
150	110
152	821
153	130
154	30
155	40
156	340
157	170
158	50
164	70
166	871
167	130
168	50
170	360
171	110
172	40
178	20
180	601
181	100
182	10
184	330
185	50
186	30
194	641
195	80
198	280
199	410
200	410
201	80
202	20
212	30
226	30
