Mass Spectrum: n-Propyldiphenylphosphine
Formula: C15 H17 P
CAS: 7650-84-2
Molecular weight: 228
Origin: NIST Mass Spectrometry Data Center, 1994
m/z	RELATIVE INTENSITY
15	140
26	69
27	1951
38	122
39	1813
40	195
41	1385
42	302
43	285
44	60
50	749
51	2430
52	347
53	95
56	311
57	1206
58	99
62	91
63	576
64	119
65	1190
66	99
68	134
69	393
70	93
71	93
75	205
76	238
77	1640
78	831
79	336
80	357
81	947
82	336
83	917
84	44
87	57
89	257
91	2836
92	364
93	105
94	71
95	443
96	53
102	220
103	83
104	61
105	81
106	53
107	4100
108	7146
109	1898
110	158
113	86
115	984
116	123
117	76
119	58
120	242
121	2738
122	386
123	58
124	1808
125	147
126	118
127	77
128	267
131	93
133	834
134	105
135	56
139	357
140	85
141	260
144	104
145	59
146	54
149	120
150	113
151	199
152	1561
153	371
154	123
157	811
158	92
159	77
165	422
166	148
167	75
169	52
170	487
171	89
181	200
183	7985
184	1115
185	1553
186	2404
187	312
195	53
196	95
197	204
198	53
199	9999
200	2283
201	274
213	201
227	1068
228	5722
229	992
230	91
