Mass Spectrum: (E)-2-Butenylcyclopropane
Formula: C7 H12
CAS: 76588-98-2
Molecular weight: 96
Origin: L.L. MILLER, DEP. CHEM., UNIV. MINNESOTA, MINN., USA
m/z	RELATIVE INTENSITY
32	1500
37	500
39	6800
40	1600
41	4200
42	600
46	100
49	400
51	800
53	4400
54	2300
55	9999
61	200
63	300
65	700
67	7400
68	5500
77	600
79	1600
81	8000
82	300
96	1000
