Mass Spectrum: 2-Toluic hydrazide
Formula: C8 H10 N2 O
CAS: 7658-80-2
Molecular weight: 150
Origin: NIST Mass Spectrometry Data Center, 1994
m/z	RELATIVE INTENSITY
16	48
26	40
27	92
28	212
29	193
30	108
31	396
32	31
37	54
38	206
39	1063
40	86
41	229
43	41
44	46
45	36
50	286
51	487
52	119
53	62
61	107
62	350
63	801
64	289
65	2532
66	131
74	93
75	96
76	59
77	168
78	51
79	31
85	39
86	59
87	64
88	31
89	810
90	31
91	7605
92	659
104	71
105	52
116	63
117	71
119	9999
120	901
121	52
132	33
135	85
150	1122
151	82
