Mass Spectrum: cis-1-Methyl-2-(2'-propenyl)cyclopropane
Formula: C7 H12
CAS: 76588-97-1
Molecular weight: 96
Origin: L.L. MILLER, DEP. CHEM., UNIV. MINNESOTA, MINN., USA
m/z	RELATIVE INTENSITY
39	6000
40	400
41	3800
42	700
43	100
50	200
51	900
52	100
53	3100
54	8100
55	9999
56	400
65	700
66	400
67	3500
68	1400
69	300
77	800
79	1600
80	300
81	6300
82	300
95	400
96	400
