Mass Spectrum: Benzene, (ethenyloxy)-
Formula: C8 H8 O
CAS: 766-94-9
Molecular weight: 120
Origin: NIST Mass Spectrometry Data Center, 1990.
m/z	RELATIVE INTENSITY
13	43
14	91
15	193
16	17
18	46
25	85
26	568
27	1321
29	94
31	57
32	33
36	40
37	332
38	862
39	3232
40	629
41	149
42	216
43	198
44	22
45	103
46	200
49	188
50	1464
51	2975
52	279
53	172
54	55
55	551
59	63
60	138
61	201
62	377
63	920
64	375
65	2518
66	3023
67	190
68	183
73	111
74	449
75	244
76	284
77	2546
78	332
79	52
89	157
91	9999
92	1379
93	372
94	3743
95	269
105	91
119	1517
120	8231
121	746
122	65
