Mass Spectrum: 1,3-Dioxane, 4,4-dimethyl-
Formula: C6 H12 O2
CAS: 766-15-4
Molecular weight: 116
m/z	RELATIVE INTENSITY
18	50
26	350
27	1702
29	2112
30	480
31	1241
39	1461
40	310
41	2762
42	510
43	9999
44	310
45	110
53	210
54	50
55	360
56	1131
57	430
58	2082
59	1001
67	80
68	80
69	1952
70	140
71	2172
72	170
73	240
75	10
82	10
83	10
84	10
85	20
86	1401
87	90
101	2803
115	160
116	30
