Mass Spectrum: 2,5-Furandione, 3,4-dimethyl-
Formula: C6 H6 O3
CAS: 766-39-2
Molecular weight: 126
Origin: NIST Mass Spectrometry Data Center, 2011
m/z	RELATIVE INTENSITY
15	60
16	10
24	10
25	90
26	571
27	1672
28	1101
29	150
36	70
37	460
38	591
39	7497
40	300
41	70
42	100
43	110
44	170
45	140
48	60
49	490
50	1812
51	1722
52	1041
53	3713
54	9999
55	550
56	10
60	10
61	20
62	20
63	10
65	20
66	110
67	300
68	20
69	60
70	60
80	30
82	6025
83	330
84	20
97	10
126	2422
127	170
128	20
