Mass Spectrum: Formamide, N-cyclohexyl-
Formula: C7 H13 N O
CAS: 766-93-8
Molecular weight: 127
Origin: Japan AIST/NIMC Database- Spectrum MS-NW-7284
m/z	RELATIVE INTENSITY
14	10
15	60
26	70
27	689
28	1079
29	509
30	729
31	20
32	50
37	20
38	70
39	799
40	149
41	1339
42	889
43	1589
44	199
45	30
46	9999
47	189
48	30
49	10
50	70
51	149
52	80
53	329
54	1129
55	729
56	3909
57	319
58	399
59	299
60	30
62	10
63	30
64	10
65	60
66	60
67	2369
68	229
69	109
70	449
71	849
72	159
73	70
74	10
77	90
78	40
79	179
80	70
81	519
82	1789
83	189
84	5909
85	429
86	80
93	20
94	20
96	50
97	30
98	549
99	219
100	20
108	20
109	30
110	40
112	159
113	10
126	159
127	859
128	99
