Mass Spectrum: Piperidine, 1-ethyl-2-methyl-
Formula: C8 H17 N
CAS: 766-52-9
Molecular weight: 127
Origin: CARL DJERASSI DEPT OF CHEM STANFORD UNIV STANFORD CALIF 94305
m/z	RELATIVE INTENSITY
41	600
42	800
44	500
54	100
55	700
56	1400
57	200
58	200
69	100
70	300
71	400
84	800
98	100
110	200
112	9999
113	800
126	500
127	1200
128	100
