Mass Spectrum: Benzene, 1-ethynyl-4-fluoro-
Formula: C8 H5 F
CAS: 766-98-3
Molecular weight: 120
Origin: A.Pleshkova, Inst. Org. Elem. Cpds, Moscow
m/z	RELATIVE INTENSITY
39	160
41	130
42	20
43	180
44	420
45	210
46	20
47	150
48	10
49	230
50	1051
51	470
52	80
53	50
54	40
55	781
56	400
57	601
58	100
59	30
60	581
61	440
62	510
63	731
64	50
65	120
66	50
67	280
68	410
69	561
70	1401
71	581
73	270
74	1491
75	310
76	210
77	150
78	20
79	130
80	50
81	701
82	120
83	420
84	130
85	280
86	80
87	230
88	40
89	50
90	10
91	180
92	260
93	470
94	1862
95	170
96	30
99	70
100	520
101	260
102	130
118	160
119	420
120	9999
121	1131
122	140
