Mass Spectrum: 2-Cyclopentylethanol
Formula: C7 H14 O
CAS: 766-00-7
Molecular weight: 114
Origin: NIST Mass Spectrometry Data Center, 1990.
m/z	RELATIVE INTENSITY
26	167
27	1099
28	848
29	1016
31	1467
38	277
39	2562
40	645
41	3767
42	928
43	633
44	436
45	198
50	173
51	418
52	192
53	1199
54	1203
55	3245
56	599
57	645
65	419
66	1164
67	9999
68	8803
69	1223
71	160
77	252
79	373
81	2520
82	266
83	477
95	257
96	255
