Mass Spectrum: (Z)-1-Phenylpropene
Formula: C9 H10
CAS: 766-90-5
Molecular weight: 118
Origin: NIST Mass Spectrometry Data Center, 1990.
m/z	RELATIVE INTENSITY
15	69
26	143
27	367
28	178
37	104
38	323
39	1348
40	144
41	132
50	950
51	1566
52	374
53	109
58	539
61	217
62	606
63	1345
64	271
65	1250
66	119
73	73
74	441
75	342
76	429
77	989
78	822
79	87
85	93
86	186
87	246
88	114
89	971
90	73
91	3600
92	331
101	53
102	399
103	939
104	93
113	68
115	4400
117	9999
118	6677
119	603
