Mass Spectrum: Silane, dimethylphenyl-
Formula: C8 H12 Si
CAS: 766-77-8
Molecular weight: 136
Origin: Japan AIST/NIMC Database- Spectrum MS-NW-7497
m/z	RELATIVE INTENSITY
15	30
26	20
27	80
28	119
29	239
30	10
31	139
32	10
37	10
38	30
39	199
40	20
41	30
42	119
43	2559
44	209
45	139
49	10
50	139
51	339
52	70
53	1109
54	169
55	279
56	30
57	109
58	5729
59	729
60	279
61	40
62	30
63	60
64	10
65	159
66	199
67	399
68	70
69	269
70	30
71	10
73	30
74	50
75	30
76	20
77	219
78	109
79	489
80	90
81	179
82	20
83	80
89	30
90	30
91	429
92	50
93	419
94	139
95	419
96	50
97	10
101	30
102	10
103	149
104	60
105	1639
106	279
107	379
108	50
109	70
110	10
117	109
118	30
119	459
120	359
121	9999
122	1289
123	419
124	30
131	30
133	40
134	30
135	2449
136	3879
137	619
138	169
139	10
