Mass Spectrum: Quinoline, 7-ethyl-
Formula: C11 H11 N
CAS: 7661-47-4
Molecular weight: 157
Origin: CARL DJERASSI DEPT OF CHEM STANFORD UNIV STANFORD CALIF 94305
m/z	RELATIVE INTENSITY
38	200
39	700
40	200
41	200
43	200
44	100
50	500
51	800
52	200
55	100
57	200
61	100
62	300
63	800
64	200
65	200
71	100
74	300
75	500
76	300
77	700
78	200
86	100
87	200
88	200
89	500
90	100
91	100
98	100
99	100
100	100
101	300
102	400
103	200
113	200
114	300
115	800
116	600
117	200
126	100
127	400
128	600
129	1300
130	700
131	100
140	400
141	1200
142	9999
143	1500
144	100
153	100
154	800
155	400
156	3400
157	6500
158	800
159	100
