Mass Spectrum: N-(4-Ethylphenyl)maleimide
Formula: C12 H11 N O2
CAS: 76620-00-3
Molecular weight: 201
Origin: NIST Mass Spectrometry Data Center
m/z	RELATIVE INTENSITY
13	10
14	40
15	170
18	40
26	2823
27	901
28	260
37	150
38	370
39	1171
40	210
41	190
42	40
45	10
50	500
51	1171
52	530
53	881
54	2082
55	150
56	30
58	110
61	100
62	270
63	751
64	410
65	470
66	100
67	40
68	10
69	10
71	40
73	50
74	20
75	190
76	360
77	1772
78	641
79	180
80	190
82	310
83	10
85	10
86	30
87	50
89	510
90	420
91	520
92	120
98	10
99	10
100	10
101	60
102	240
103	571
104	611
105	190
106	140
107	190
108	20
115	460
116	430
117	240
118	130
119	70
120	120
121	30
127	60
128	290
129	170
130	470
131	470
132	1401
133	140
134	10
142	30
143	60
144	170
145	100
146	100
147	20
154	160
155	40
156	70
158	2732
159	310
160	30
170	10
172	330
173	90
174	40
182	70
183	50
186	9999
187	1201
188	120
201	5315
202	701
203	70
