Mass Spectrum: Ethyl trans-4-decenoate
Formula: C12 H22 O2
CAS: 76649-16-6
Molecular weight: 198
Origin: Japan AIST/NIMC Database- Spectrum MS-NW-9455
m/z	RELATIVE INTENSITY
15	40
17	20
18	70
26	60
27	1259
28	239
29	4299
30	99
31	119
38	20
39	1409
40	309
41	5689
42	1239
43	3389
44	169
45	1139
46	60
47	40
48	20
50	30
51	139
52	109
53	1109
54	4199
55	8429
56	1529
57	2279
58	299
59	229
60	3329
61	3799
62	109
63	40
64	10
65	409
66	319
67	5379
68	4239
69	9659
70	5739
71	4809
72	299
73	1429
74	239
75	50
77	279
78	90
79	1019
80	439
81	4679
82	2759
83	2459
84	5449
85	1269
86	189
87	459
88	9999
89	899
90	70
91	199
92	70
93	539
94	339
95	2449
96	5039
97	2319
98	729
99	1649
100	329
101	2299
102	299
103	30
105	179
106	60
107	669
108	629
109	3189
110	9769
111	2379
112	219
113	889
114	289
115	479
116	169
117	20
119	159
120	20
121	40
122	20
123	1859
124	1319
125	219
126	40
127	629
128	509
129	229
130	129
131	20
133	329
134	569
135	2829
136	319
137	299
138	60
139	20
140	10
141	579
142	319
143	129
144	20
148	10
149	10
150	10
151	249
152	5339
153	1429
154	139
155	469
156	109
157	40
166	90
167	70
168	10
169	179
170	50
171	10
180	10
181	10
183	20
184	10
197	10
198	739
199	199
200	20
