Mass Spectrum: Octyl thioglycolate
Formula: C10 H20 O2 S
CAS: 7664-80-4
Molecular weight: 204
Origin: Japan AIST/NIMC Database- Spectrum MS-NW-3977
m/z	RELATIVE INTENSITY
14	70
15	70
17	10
18	30
26	60
27	979
28	499
29	1999
30	50
31	189
32	109
33	30
34	30
38	20
39	629
40	129
41	3959
42	1279
43	8259
44	269
45	289
46	389
47	2049
48	70
49	99
50	20
51	40
52	20
53	189
54	209
55	2769
56	2109
57	9999
58	459
59	20
60	40
61	109
63	20
64	30
65	30
66	20
67	199
68	349
69	1809
70	2119
71	6719
72	379
73	70
74	549
75	669
76	50
77	80
79	30
80	10
81	90
82	339
83	1339
84	1249
85	219
86	20
87	40
88	20
89	20
91	10
92	1539
93	849
94	109
95	50
96	10
97	179
98	50
99	20
100	10
101	40
102	40
103	20
105	60
106	10
109	10
110	30
111	119
112	1739
113	329
114	30
115	40
116	10
117	10
119	50
120	10
126	10
127	30
129	20
130	20
131	10
133	40
144	30
145	459
146	50
147	60
148	10
155	10
157	379
158	40
159	10
161	30
175	30
204	119
205	20
