Mass Spectrum: tert-Butyl glycidyl ether
Formula: C7 H14 O2
CAS: 7665-72-7
Molecular weight: 130
Origin: NIST Mass Spectrometry Data Center
m/z	RELATIVE INTENSITY
14	20
15	150
26	80
27	741
29	2873
30	80
31	1021
32	10
37	10
38	40
39	781
40	110
41	2452
42	330
43	1261
44	120
45	150
50	30
51	40
52	10
53	70
54	10
55	310
56	721
57	9999
58	460
59	2783
60	90
61	10
70	50
71	30
72	10
73	180
74	20
75	30
85	10
87	40
97	10
99	20
115	4514
116	300
117	20
