Mass Spectrum: Quinoline, decahydro-, trans-
Formula: C9 H17 N
CAS: 767-92-0
Molecular weight: 139
m/z	RELATIVE INTENSITY
39	500
41	901
53	400
54	500
55	500
56	601
67	500
68	601
81	300
82	901
83	801
96	9999
97	901
110	400
138	701
139	1702
140	200
