Mass Spectrum: 3-Cyclopentyl-1-propanol
Formula: C8 H16 O
CAS: 767-05-5
Molecular weight: 128
Origin: Japan AIST/NIMC Database- Spectrum MS-NW-7329
m/z	RELATIVE INTENSITY
15	20
18	20
26	50
27	719
28	149
29	599
30	40
31	969
32	20
37	10
38	70
39	1269
40	329
41	4139
42	1609
43	589
44	339
45	139
46	10
50	50
51	139
52	80
53	629
54	2089
55	2479
56	589
57	819
58	169
59	50
60	109
61	10
62	10
63	40
64	10
65	199
66	849
67	9999
68	4229
69	2809
70	239
71	859
72	129
73	10
75	10
77	129
78	30
79	279
80	119
81	1969
82	7979
83	699
84	50
85	259
86	30
91	40
93	40
94	20
95	809
96	70
97	70
98	20
99	20
100	10
107	10
108	10
109	129
110	509
111	60
112	10
