Mass Spectrum: Benzonitrile, 4-hydroxy-
Formula: C7 H5 N O
CAS: 767-00-0
Molecular weight: 119
Origin: Japan AIST/NIMC Database- Spectrum MS-NW-3215
m/z	RELATIVE INTENSITY
14	10
25	20
26	90
27	139
28	90
29	119
31	30
36	40
37	429
38	409
39	529
40	99
41	179
42	60
43	20
44	60
45	90
46	10
48	10
49	70
50	269
51	179
52	239
53	219
54	20
55	90
59	149
60	40
61	159
62	299
63	889
64	1679
65	389
66	50
67	30
68	60
73	30
74	90
75	149
76	119
77	20
78	10
79	30
80	60
86	10
87	30
88	60
89	30
90	459
91	1479
92	409
93	50
99	30
100	20
101	20
102	20
104	10
118	109
119	9999
120	799
121	40
