Mass Spectrum: 3-Trimethylsiloxysebacic acid, bis(trimethylsilyl)- ester
Formula: C19 H42 O5 Si3
CAS: 76735-13-2
Molecular weight: 434
Origin: O A MAMER, MCGILL UNIVERSITY, MONTRE
m/z	RELATIVE INTENSITY
41	67
45	268
46	55
54	55
55	385
56	72
57	60
58	21
59	145
61	92
67	227
68	36
69	176
71	19
72	285
73	9999
74	850
75	1402
76	70
77	79
81	329
82	53
85	38
86	55
87	65
89	89
91	55
93	157
94	41
95	1293
96	99
99	72
101	525
102	79
103	142
105	94
107	62
108	48
109	87
113	7
115	55
116	33
117	637
118	82
119	523
120	75
121	111
122	55
123	203
127	50
129	1087
130	683
131	421
132	109
133	673
134	135
135	130
136	201
137	709
141	205
142	53
143	472
144	58
145	65
146	60
147	4100
148	644
149	779
150	176
151	111
153	55
155	29
157	67
158	55
159	67
161	99
163	92
164	406
165	632
166	79
169	1152
170	167
171	116
172	41
173	77
175	104
177	75
183	70
185	26
186	67
189	1288
190	278
191	566
192	121
193	79
195	53
197	547
198	135
199	43
202	50
203	99
204	624
205	135
206	84
211	142
212	55
213	600
214	121
215	145
216	60
217	2148
218	564
219	247
220	65
221	33
226	87
227	138
231	184
233	4246
234	872
235	394
236	94
239	89
246	55
254	121
255	215
257	55
259	375
260	118
261	60
272	48
273	82
274	997
275	273
276	109
285	111
287	1283
288	334
289	230
290	53
301	109
303	2514
304	634
305	375
306	109
313	58
316	428
317	142
318	65
329	394
330	121
331	75
339	70
343	75
344	94
345	67
375	196
377	881
378	300
379	145
419	4556
420	1632
421	796
422	218
423	70
