Mass Spectrum: Ethyl-3-trifluoromethyl benzoate
Formula: C10 H9 F3 O2
CAS: 76783-59-0
Molecular weight: 218
Origin: NIST Mass Spectrometry Data Center
m/z	RELATIVE INTENSITY
12	10
13	20
14	110
15	360
16	20
18	20
19	10
20	10
26	360
27	1581
28	571
29	1661
30	250
32	50
37	30
38	100
39	110
42	60
43	230
45	1391
46	40
50	871
51	330
52	10
53	40
56	20
57	210
61	20
62	80
63	160
64	10
65	20
68	50
69	380
70	20
73	60
74	380
75	1181
76	350
77	200
79	10
80	30
81	70
85	10
87	20
88	20
92	10
93	50
95	1261
96	140
97	10
99	230
100	80
101	30
103	10
104	10
105	70
106	20
107	70
108	10
109	10
112	10
113	50
114	20
115	10
119	150
120	10
121	10
123	40
125	941
126	420
127	180
128	10
131	20
133	20
141	10
143	140
145	5645
146	450
147	20
149	110
150	10
153	10
154	30
155	20
159	40
161	10
162	20
169	10
171	190
173	9999
174	1121
175	100
190	3443
191	390
192	40
199	761
200	140
201	40
203	90
217	350
218	1561
219	180
220	10
