Mass Spectrum: Benzene, 3-butenyl-
Formula: C10 H12
CAS: 768-56-9
Molecular weight: 132
Origin: Japan AIST/NIMC Database- Spectrum MS-NW-4034
m/z	RELATIVE INTENSITY
15	10
26	20
27	169
28	30
29	10
37	20
38	50
39	519
40	30
41	159
50	139
51	349
52	90
53	70
54	30
57	20
61	10
62	60
63	199
64	60
65	899
66	50
73	10
74	50
75	40
76	40
77	239
78	179
79	60
86	10
87	10
89	129
90	50
91	9999
92	789
93	30
102	50
103	99
104	689
105	90
106	10
107	10
108	10
115	159
116	60
117	149
118	10
127	40
128	80
129	70
130	20
131	50
132	1799
133	199
134	10
