Mass Spectrum: 2-Propanone, 1-(1-cyclohexen-1-yl)-
Formula: C9 H14 O
CAS: 768-50-3
Molecular weight: 138
m/z	RELATIVE INTENSITY
39	5099
40	700
41	5699
43	6799
44	700
45	1500
51	1200
52	700
53	2200
55	2700
65	1100
66	700
67	6299
68	700
73	800
77	1500
79	2700
80	5899
81	2700
91	700
93	1000
94	1400
95	9999
96	1500
123	600
138	1800
