Mass Spectrum: Benzene, 1-ethynyl-4-methoxy-
Formula: C9 H8 O
CAS: 768-60-5
Molecular weight: 132
Origin: ASES Database, Dalian Institute, P.R. China
m/z	RELATIVE INTENSITY
61	3252
62	5875
63	6956
64	1821
76	420
77	970
78	550
79	310
89	9208
90	1201
117	4894
118	1070
132	9999
133	1521
