Mass Spectrum: 1-Fluoroadamantane
Formula: C10 H15 F
CAS: 768-92-3
Molecular weight: 154
Origin: B. Derendyaev, Novosibirsk Institute of Organic Chemistry
m/z	RELATIVE INTENSITY
40	1109
41	4409
42	529
43	669
46	249
47	359
50	539
51	1769
52	589
53	1719
54	829
55	1159
56	589
57	1019
58	1209
63	419
65	969
66	559
67	1899
68	509
69	219
70	259
73	259
77	1569
78	659
79	2409
80	489
81	579
82	469
83	299
84	319
91	1009
92	749
93	2069
94	1549
95	1049
96	3219
97	9999
98	4959
99	939
105	289
107	269
109	529
110	679
111	2999
112	509
153	459
154	4879
155	629
