Mass Spectrum: Piperidine, 2,2,6,6-tetramethyl-
Formula: C9 H19 N
CAS: 768-66-1
Molecular weight: 141
Origin: Japan AIST/NIMC Database- Spectrum MS-NW-5590
m/z	RELATIVE INTENSITY
15	209
17	10
26	30
27	439
28	119
29	379
30	269
31	40
38	20
39	579
40	119
41	2079
42	1599
43	499
44	179
45	10
46	40
47	20
50	20
51	50
52	30
53	199
54	129
55	589
56	879
57	579
58	6149
59	239
63	10
65	40
66	20
67	259
68	80
69	3379
70	4259
71	359
72	109
77	30
78	10
79	30
80	60
81	129
82	189
83	50
84	279
85	319
86	20
91	10
92	10
93	20
94	90
95	40
96	119
97	60
98	659
99	169
100	10
106	10
107	20
108	40
109	949
110	259
111	40
112	119
113	20
122	10
123	10
124	40
125	40
126	9999
127	949
128	40
140	10
141	119
142	20
