Mass Spectrum: E-2-Hexenyl benzoate
Formula: C13 H16 O2
CAS: 76841-70-8
Molecular weight: 204
Origin: NIST Mass Spectrometry Data Center
m/z	RELATIVE INTENSITY
27	220
29	230
39	470
41	861
42	90
50	220
51	711
52	70
53	200
54	340
55	991
57	280
65	80
67	1201
68	150
74	60
75	60
76	90
77	2192
78	190
79	160
81	170
82	601
83	130
104	50
105	9999
106	801
110	130
117	110
151	150
162	50
175	100
180	60
204	80
