Mass Spectrum: dl-c-Allylglycine
Formula: C5 H9 N O2
CAS: 7685-44-1
Molecular weight: 115
Origin: Japan AIST/NIMC Database- Spectrum MS-NW-9528
m/z	RELATIVE INTENSITY
14	10
15	119
17	40
18	199
19	20
26	50
27	349
28	3089
29	209
30	369
31	10
32	10
33	10
35	10
37	40
38	90
39	549
40	90
41	719
42	359
43	1299
44	119
45	90
46	519
47	20
50	30
51	60
52	40
53	199
54	199
55	40
56	129
57	30
66	10
67	20
68	179
69	70
70	3899
71	189
74	9999
75	279
76	40
81	10
97	30
114	10
115	30
116	199
117	10
