Mass Spectrum: 1,4-Bis(diphenylphosphino)butane
Formula: C28 H28 P2
CAS: 7688-25-7
Molecular weight: 426
Origin: Japan AIST/NIMC Database- Spectrum MS-NW-8004
m/z	RELATIVE INTENSITY
17	60
18	239
26	10
27	80
28	30
29	229
39	209
40	10
41	80
43	10
45	20
50	40
51	249
52	30
53	60
55	569
56	30
57	229
58	20
59	10
63	50
64	10
65	239
66	20
68	10
69	40
70	10
71	20
74	10
75	20
76	30
77	429
78	179
79	109
80	30
81	80
82	30
83	189
84	20
85	60
89	40
91	799
92	70
93	10
95	99
96	10
102	40
103	50
104	10
105	40
106	10
107	759
108	2139
109	1329
110	99
115	289
116	80
117	70
118	10
119	10
120	40
121	1229
122	119
123	90
124	20
126	20
127	20
128	99
129	80
130	40
131	159
132	20
133	419
134	299
135	109
136	70
137	10
138	10
139	70
140	10
141	129
142	20
144	10
145	20
146	20
147	30
148	10
149	20
151	30
152	449
153	99
154	50
155	10
157	129
158	10
159	50
160	10
161	20
162	10
163	259
164	119
165	139
166	60
167	70
168	10
169	10
170	169
171	30
174	20
178	20
179	20
180	10
181	50
182	30
183	3729
184	569
185	1699
186	479
187	109
188	10
194	10
195	20
196	40
197	99
198	20
199	649
200	149
201	20
211	90
212	1139
213	699
214	70
215	10
218	10
225	30
226	10
227	10
237	10
238	30
239	1249
240	1349
241	8389
242	1449
243	139
244	10
257	10
259	10
260	10
261	30
262	1349
263	399
264	50
271	10
275	30
276	10
287	10
289	60
290	10
293	10
294	50
295	10
303	20
304	10
317	189
318	60
347	20
348	40
349	9999
350	2419
351	309
352	30
369	20
370	80
371	30
425	90
426	3399
427	1069
428	169
429	20
