Mass Spectrum: Benzene, (1,2-dimethyl-1-propenyl)-
Formula: C11 H14
CAS: 769-57-3
Molecular weight: 146
Origin: A.A.Kutin, Moscow, Russia
m/z	RELATIVE INTENSITY
38	129
39	1570
40	582
41	1072
42	105
43	97
44	105
45	44
50	445
51	1363
52	336
53	939
54	67
55	74
56	11
57	87
58	92
61	14
62	147
63	618
64	501
65	975
66	106
67	604
68	339
69	71
70	70
71	140
72	37
73	33
74	155
75	215
76	228
77	1651
78	652
79	422
80	45
81	14
83	8
86	24
87	67
88	11
89	300
90	102
91	4692
92	388
93	25
98	7
101	74
102	386
103	1045
104	323
105	1074
106	127
114	69
115	1795
116	1396
117	913
118	169
119	30
127	470
128	1092
129	1592
130	722
131	9999
132	1076
133	54
139	10
141	50
143	103
144	158
145	1351
146	7503
147	800
148	10
