Mass Spectrum: 2,3,5,6-Tetrafluorophenol
Formula: C6 H2 F4 O
CAS: 769-39-1
Molecular weight: 166
Origin: Japan AIST/NIMC Database- Spectrum MS-NW-7661
m/z	RELATIVE INTENSITY
20	40
28	119
29	20
31	589
32	20
37	169
38	70
44	30
45	10
47	10
49	30
50	60
51	209
53	30
55	80
56	229
57	90
59	30
60	10
61	70
62	30
63	30
67	20
68	1219
69	699
70	10
71	159
72	10
73	70
74	239
75	549
76	20
77	30
79	149
80	179
81	40
83	349
84	10
85	20
86	80
87	549
88	299
89	10
91	50
92	20
93	369
94	40
95	30
97	10
98	159
99	3239
100	189
105	30
106	109
107	10
109	10
110	10
112	10
113	10
115	40
117	489
118	6219
119	689
120	30
121	10
122	20
130	20
135	40
136	60
137	829
138	60
146	99
147	60
149	50
164	10
165	129
166	9999
167	669
168	40
