Mass Spectrum: 4-t-Butylbenzeneamine
Formula: C10 H15 N
CAS: 769-92-6
Molecular weight: 149
Origin: NIST Mass Spectrometry Data Center, 1994
m/z	RELATIVE INTENSITY
15	972
16	26
26	154
27	934
28	1149
29	518
30	163
37	48
38	261
39	1601
40	272
41	1251
42	324
43	66
44	12
45	15
46	32
47	30
50	269
51	610
52	498
53	369
54	274
55	121
56	101
57	74
58	12
59	368
61	46
62	176
63	490
64	260
65	1239
66	602
67	284
68	27
73	15
74	80
75	128
76	15
77	1065
78	375
79	354
80	166
81	21
86	19
87	31
89	289
90	208
91	965
92	277
93	1389
94	2209
95	162
98	10
100	10
101	54
102	86
103	131
104	148
105	10
106	3769
107	455
108	75
115	231
117	595
118	841
119	764
120	149
121	24
127	7
128	14
130	131
131	66
132	219
133	7
134	9999
135	1012
136	58
146	9
149	2190
150	259
151	12
