Mass Spectrum: Benzenamine, N,N,2,6-tetramethyl-
Formula: C10 H15 N
CAS: 769-06-2
Molecular weight: 149
Origin: RADIAN CORP
m/z	RELATIVE INTENSITY
15	420
26	40
27	630
29	110
30	70
37	30
38	160
39	1530
40	220
41	510
42	1270
43	170
44	1450
45	40
50	410
51	1300
52	530
53	620
54	120
55	90
56	70
59	180
60	160
61	30
62	240
63	910
64	330
65	1610
66	240
68	100
72	190
73	380
74	580
75	70
76	270
77	3630
78	1070
79	2050
80	210
81	30
82	10
86	50
87	70
88	40
89	510
90	290
91	2050
92	310
93	170
94	90
101	40
102	330
103	1590
104	550
105	3290
106	670
107	300
108	110
115	190
116	280
117	2340
118	4180
119	990
120	250
121	60
122	50
128	30
130	550
131	430
132	2830
133	1240
134	9630
135	990
136	60
144	60
146	450
147	50
148	7440
149	9999
150	1140
151	70
