Mass Spectrum: 2,3,5,6-Tetrafluorothiophenol
Formula: C6 H2 F4 S
CAS: 769-40-4
Molecular weight: 182
Origin: Chuck Anderson, Aldrich Chemical Co.
m/z	RELATIVE INTENSITY
31	511
36	292
37	117
38	71
45	328
51	124
56	131
61	140
63	1122
68	298
69	1441
74	163
75	873
79	287
80	347
81	582
86	117
87	1455
88	511
89	33
91	653
92	165
93	1455
94	133
98	173
99	1761
100	191
106	209
107	161
111	461
112	321
113	582
117	292
118	268
119	781
130	31
131	809
132	887
133	35
137	1818
138	1065
149	353
150	2357
151	170
162	1178
163	241
181	1789
182	9999
183	809
184	490
