Mass Spectrum: sec-Butyl ethyl sulfoxide
Formula: C6 H14 O S
CAS: 7694-18-0
Molecular weight: 134
Origin: NIST Mass Spectrometry Data Center, 1994
m/z	RELATIVE INTENSITY
12	31
13	26
14	49
15	319
17	55
18	113
24	33
25	161
26	1159
27	5660
28	1557
29	9187
30	157
32	93
33	140
34	110
35	354
36	36
37	180
38	322
39	2987
40	412
41	9966
42	366
43	31
44	53
45	497
46	269
47	420
48	694
49	414
50	2553
51	522
52	184
53	432
54	118
55	1441
56	1441
57	3384
58	417
59	417
60	275
61	868
62	303
63	3429
64	215
65	156
66	43
71	39
75	72
76	259
77	811
78	9999
79	467
80	443
81	28
88	27
89	330
90	33
91	37
94	32
95	36
105	21
106	105
118	65
122	32
134	592
135	47
136	36
