Mass Spectrum: (.+/-.)-.alpha.-Tocopherol acetate
Formula: C31 H52 O3
CAS: 7695-91-2
Molecular weight: 472
Origin: NIST Mass Spectrometry Data Center, 2010
m/z	RELATIVE INTENSITY
14	20
17	40
27	60
28	150
29	180
39	60
41	731
42	90
43	2212
45	30
50	20
51	20
53	90
54	50
55	821
56	190
57	1141
67	180
69	550
70	70
71	290
72	40
75	40
77	70
79	80
80	30
81	180
82	30
83	170
84	20
85	90
91	220
92	60
93	110
94	40
95	110
97	100
105	160
107	180
108	40
109	120
111	30
115	40
119	80
120	30
121	450
122	110
123	50
124	10
125	80
129	50
131	70
133	100
135	380
136	480
137	210
143	30
144	30
145	90
146	50
147	230
148	50
149	320
150	40
151	110
153	40
158	30
159	120
161	100
162	90
163	280
164	2242
165	6636
166	721
167	40
173	60
175	200
176	130
177	330
178	110
179	80
187	90
189	180
190	70
191	250
203	190
204	120
205	851
206	150
207	2012
208	300
209	40
219	40
220	30
221	50
245	50
246	50
247	440
248	80
274	80
288	80
302	80
316	50
330	30
344	80
358	30
414	60
415	30
428	80
430	9999
431	3783
432	741
433	90
472	1171
473	340
474	80
