Mass Spectrum: 3-Methyl-3-hexen-2-ol
Formula: C7 H14 O
CAS: 76966-27-3
Molecular weight: 114
Origin: NIST Mass Spectrometry Data Center, 1990.
m/z	RELATIVE INTENSITY
14	199
15	613
26	268
27	2056
28	1442
29	1540
31	275
32	246
39	3170
40	530
41	3898
43	9999
44	424
45	2001
50	429
51	679
52	312
53	1587
54	499
55	2722
57	2441
63	211
65	569
66	262
67	2029
68	278
69	746
70	317
71	752
72	648
77	411
79	1626
81	3515
82	252
83	199
85	7521
86	558
96	808
97	237
99	1282
114	1244
