Mass Spectrum: Aprobarbital
Formula: C10 H14 N2 O3
CAS: 77-02-1
Molecular weight: 210
Origin: R RYHAGE MS-LAB KAROLINSKA INSTITUTET STOCKHOLM SWEDEN
m/z	RELATIVE INTENSITY
14	49
15	84
16	7
18	98
19	28
25	49
26	202
27	1331
28	648
29	328
30	70
31	63
32	49
37	42
38	111
39	1505
40	209
41	4014
42	418
43	1889
44	613
45	49
49	14
50	125
51	348
52	348
53	1122
54	383
55	585
56	125
57	21
58	28
59	49
61	28
62	21
63	56
64	42
65	125
66	167
67	411
68	237
69	265
70	397
71	35
72	21
73	70
74	21
75	21
76	35
77	195
78	181
79	411
80	328
81	516
82	111
83	244
84	84
85	35
88	14
91	35
92	35
93	70
94	49
95	139
96	711
97	2035
98	293
99	42
101	21
104	14
106	488
107	160
108	53
109	53
110	42
111	56
112	209
113	21
115	14
117	14
119	21
120	21
121	42
122	77
123	77
124	2878
125	258
126	167
127	21
128	77
129	28
135	21
136	35
138	42
139	146
140	146
141	153
142	28
145	14
147	21
149	77
150	84
151	188
152	77
153	613
154	153
155	258
156	28
162	14
163	21
164	14
165	42
167	9999
168	3895
169	1840
170	174
171	21
177	21
181	35
182	91
191	21
192	49
193	49
194	14
195	1045
196	105
197	14
207	28
210	300
211	28
