Mass Spectrum: Pyrithyldione
Formula: C9 H13 N O2
CAS: 77-04-3
Molecular weight: 167
Origin: Tox21 Consortium/NIST Mass Spectrometry Data Center, 2012
m/z	RELATIVE INTENSITY
14	10
15	60
18	10
25	10
26	170
27	881
28	771
29	921
30	40
31	10
37	40
38	150
39	1471
40	751
41	2332
42	1111
43	330
44	90
45	20
49	10
50	110
51	240
52	200
53	1011
54	420
55	5265
56	310
57	20
61	10
62	40
63	80
64	30
65	270
66	140
67	500
68	561
69	1101
70	4654
71	190
72	20
74	10
75	10
76	10
77	60
78	70
79	70
80	210
81	120
83	9879
84	550
85	30
90	10
91	20
92	100
93	40
94	160
95	100
96	651
97	470
98	6536
99	440
100	30
102	10
104	10
105	10
106	30
107	10
108	40
109	110
110	100
111	130
112	20
118	20
120	140
121	20
122	100
123	10
124	1812
125	140
126	10
135	10
136	180
137	20
138	1531
139	9999
140	801
141	70
142	10
150	10
152	2672
153	250
154	20
166	20
167	330
168	30
