Mass Spectrum: Phenolphthalein
Formula: C20 H14 O4
CAS: 77-09-8
Molecular weight: 318
Origin: NIST Mass Spectrometry Data Center, 1994
m/z	RELATIVE INTENSITY
14	142
16	67
18	115
28	198
29	226
39	1592
40	141
44	50
50	546
51	494
53	298
63	812
64	363
65	1791
73	191
74	226
75	494
76	1463
77	667
87	338
88	331
91	234
93	1237
94	574
100	390
101	422
104	1487
105	849
106	459
107	376
113	1012
114	378
115	1562
119	347
121	2957
122	450
126	264
127	522
128	498
136	279
139	1187
140	584
141	1275
142	301
150	705
151	932
152	2302
153	547
159	382
163	384
168	741
169	375
176	351
180	1049
181	4970
182	902
186	501
187	393
189	1194
190	279
197	3568
198	508
200	402
201	276
202	969
203	269
213	671
214	269
215	1265
216	266
217	266
218	340
225	8942
226	2885
227	929
228	464
231	418
239	295
242	292
243	308
244	515
245	379
255	846
257	4329
258	999
273	7828
274	9999
275	1881
318	2631
319	582
320	60
