Mass Spectrum: Phencyclidine
Formula: C17 H25 N
CAS: 77-10-1
Molecular weight: 243
Origin: NIST Mass Spectrometry Data Center
m/z	RELATIVE INTENSITY
15	10
26	10
27	150
28	180
29	250
30	120
38	10
39	320
40	50
41	941
42	510
43	120
44	110
50	50
51	260
52	80
53	290
54	200
55	901
56	510
57	120
58	10
62	10
63	90
64	30
65	300
66	60
67	320
68	100
69	150
70	70
71	20
72	10
74	20
75	40
76	90
77	841
78	270
79	350
80	130
81	651
82	160
83	160
84	2412
85	340
86	320
87	30
88	10
89	140
90	90
91	5255
92	430
93	40
94	30
95	10
96	50
97	10
98	80
99	10
100	10
101	20
102	190
103	801
104	1031
105	300
106	60
107	10
108	20
109	10
110	60
111	20
113	10
115	1281
116	320
117	1762
118	280
119	40
120	70
121	10
122	20
123	10
124	130
125	20
126	20
127	160
128	460
129	701
130	771
131	180
132	100
133	10
134	10
136	20
137	10
138	10
139	20
140	10
141	90
142	70
143	390
144	250
145	80
146	60
147	10
150	30
151	10
152	30
153	20
154	30
155	20
156	70
157	100
158	550
159	370
160	110
161	20
162	40
163	10
164	50
166	2142
167	270
168	20
169	10
170	60
171	100
172	210
173	50
174	110
175	10
184	50
186	2362
187	400
188	40
198	60
200	9999
201	1571
202	120
203	10
212	20
214	220
215	40
228	10
240	10
242	2742
243	2322
244	390
245	30
