Mass Spectrum: Thiamylal
Formula: C12 H18 N2 O2 S
CAS: 77-27-0
Molecular weight: 254
Origin: Tox21 Consortium/NIST Mass Spectrometry Data Center, 2012
m/z	RELATIVE INTENSITY
15	20
18	30
26	70
27	1071
28	270
29	1131
30	100
33	10
34	20
35	10
37	20
38	80
39	1772
40	340
41	5435
42	550
43	5355
44	651
45	140
46	30
47	40
48	10
50	110
51	370
52	490
53	2352
54	500
55	1742
56	280
57	100
58	100
59	320
60	500
61	80
62	50
63	80
64	40
65	340
66	240
67	751
68	550
69	1161
70	300
71	811
72	140
73	50
74	20
75	60
76	90
77	671
78	280
79	981
80	500
81	1251
82	340
83	420
84	120
85	110
86	420
87	60
88	50
89	40
90	10
91	190
92	40
93	140
94	200
95	460
96	801
97	2602
98	621
99	100
100	90
101	80
102	20
103	110
104	20
105	40
106	270
107	180
108	1531
109	1321
110	290
111	130
112	500
113	120
114	170
115	60
116	30
117	50
118	30
119	20
120	20
121	100
122	100
123	270
124	1331
125	300
126	470
127	140
128	280
129	230
130	40
131	20
132	10
133	20
134	30
135	80
136	90
137	130
138	110
139	110
140	70
141	150
142	90
143	180
144	60
145	60
149	50
150	60
151	150
152	250
153	70
154	30
155	150
156	400
157	631
158	90
159	70
160	10
161	10
164	10
165	30
166	410
167	410
168	150
169	2803
170	330
171	791
172	70
173	50
178	30
179	60
180	20
181	70
182	40
183	4294
184	9999
185	4074
186	811
187	200
188	20
193	50
194	20
195	60
196	30
197	260
198	30
199	20
207	10
209	10
210	20
211	1181
212	1491
213	330
214	90
215	20
221	130
222	20
225	70
226	20
227	10
236	10
237	30
239	50
240	10
253	10
254	280
255	60
256	20
