Mass Spectrum: Butalbital
Formula: C11 H16 N2 O3
CAS: 77-26-9
Molecular weight: 224
Origin: Virginia Division of Forensic Science
m/z	RELATIVE INTENSITY
15	90
26	110
27	770
28	110
29	410
30	40
37	20
39	1491
40	310
41	3903
42	390
43	1070
44	540
45	30
50	80
51	220
52	250
53	750
54	440
55	600
56	280
57	410
58	40
59	20
61	30
62	20
63	50
65	350
66	280
67	820
68	270
69	320
70	390
71	50
73	40
77	220
78	170
79	270
80	620
81	300
82	190
83	100
84	70
85	30
91	90
92	60
93	140
94	210
95	490
96	1000
97	1631
98	1211
99	100
106	420
107	110
108	470
109	200
110	210
111	120
112	150
113	40
120	50
121	110
122	220
123	320
124	2252
125	270
126	70
128	30
129	40
135	30
136	80
137	60
138	310
139	100
141	1711
142	200
143	20
148	20
149	70
150	110
151	330
153	1391
154	110
155	60
156	30
163	20
164	50
165	150
167	8257
168	9999
169	1131
170	100
179	20
181	1941
182	440
183	250
184	50
195	30
209	160
