Mass Spectrum: Glutethimide
Formula: C13 H15 N O2
CAS: 77-21-4
Molecular weight: 217
Origin: NIST Mass Spectrometry Data Center
m/z	RELATIVE INTENSITY
15	10
26	40
27	340
28	160
29	160
30	50
37	10
38	50
39	721
40	90
41	330
42	290
43	90
44	220
45	20
46	10
49	10
50	320
51	1041
52	270
53	330
54	370
55	510
56	60
58	190
59	280
60	10
61	20
62	150
63	611
64	220
65	701
66	80
67	130
68	40
69	50
70	110
71	60
72	40
73	70
74	130
75	190
76	270
77	1591
78	891
79	230
80	60
82	330
83	20
84	20
85	10
86	40
87	100
88	60
89	801
90	170
91	3043
92	270
93	30
94	20
95	20
96	10
97	10
98	40
99	10
100	20
101	70
102	591
103	1852
104	581
105	510
106	80
107	20
110	10
111	10
112	50
113	80
114	80
115	4504
116	1211
117	9999
118	1411
119	170
120	70
121	10
126	60
127	220
128	641
129	871
130	470
131	1201
132	5915
133	681
134	60
135	20
139	20
140	50
141	50
142	50
143	180
144	230
145	320
146	681
147	250
148	30
153	10
154	10
155	10
156	30
157	721
158	120
159	290
160	4184
161	1101
162	120
163	10
170	10
171	40
172	220
173	70
174	200
175	50
176	10
184	10
185	60
186	10
187	20
188	330
189	9529
190	1181
191	100
192	10
200	10
202	440
203	60
216	10
217	651
218	100
219	10
