Mass Spectrum: Alphaprodine
Formula: C16 H23 N O2
CAS: 77-20-3
Molecular weight: 261
Origin: AAFS Toxicology Section MS DB Committee, U. Alberta, Canada
m/z	RELATIVE INTENSITY
29	210
30	20
39	50
40	10
41	150
42	830
43	400
44	550
45	20
50	20
51	120
52	20
53	40
54	10
55	80
56	120
57	1381
58	170
63	40
64	20
65	140
66	20
67	100
68	70
69	30
70	560
71	210
72	50
73	60
74	50
75	30
76	70
77	1311
78	200
79	130
80	30
81	20
82	240
83	70
84	3843
85	330
87	10
88	10
89	80
90	10
91	1271
92	130
94	300
95	40
96	240
97	20
98	20
100	20
101	10
102	130
103	630
104	140
105	1271
106	110
107	10
108	70
109	30
110	830
111	60
112	10
113	10
114	10
115	820
116	210
117	680
118	100
119	10
120	60
121	10
126	50
127	150
128	670
129	1381
130	540
131	210
132	60
133	80
134	20
139	10
140	10
141	120
142	50
143	290
144	1691
145	700
146	130
147	20
152	10
153	10
154	20
155	30
156	50
157	100
158	190
159	70
160	50
161	10
162	10
167	10
168	20
169	10
170	240
172	9999
173	1241
174	90
175	20
176	10
184	70
185	10
186	810
187	3753
188	1331
189	150
190	10
204	160
205	20
207	10
215	10
237	10
260	20
261	950
262	170
263	10
