Mass Spectrum: Cyclopentanecarboxylic acid, 1-phenyl-, 2-(diethylamino)ethyl ester
Formula: C18 H27 N O2
CAS: 77-22-5
Molecular weight: 289
Origin: Tox21 Consortium/NIST Mass Spectrometry Data Center, 2012
m/z	RELATIVE INTENSITY
18	10
26	10
27	50
28	90
29	150
30	220
39	70
40	10
41	160
42	260
43	60
44	300
45	30
50	10
51	60
52	20
53	20
54	30
55	30
56	310
57	160
58	420
59	20
62	10
63	30
64	10
65	70
66	20
67	160
68	20
69	10
70	130
71	240
72	110
73	100
74	10
75	10
76	10
77	140
78	50
79	20
84	210
86	9999
87	601
88	20
89	50
91	1251
92	100
93	10
95	10
96	10
97	10
99	1371
100	290
101	20
102	60
103	200
104	40
105	50
106	10
114	20
115	340
116	120
117	90
118	10
126	10
127	40
128	150
129	100
130	30
131	10
139	10
141	30
142	20
143	60
144	40
145	480
146	60
149	20
175	10
217	100
218	10
274	40
275	10
288	10
289	10
