Mass Spectrum: Hexachlorocyclopentadiene
Formula: C5 Cl6
CAS: 77-47-4
Molecular weight: 270
Origin: Japan AIST/NIMC Database- Spectrum MS-NW- 880
m/z	RELATIVE INTENSITY
12	90
24	60
35	399
36	20
37	109
38	10
39	10
47	499
48	129
49	159
50	10
60	859
61	119
63	10
71	429
72	20
73	119
74	10
76	10
77	10
78	10
82	139
83	329
84	70
85	119
86	10
87	10
94	209
95	1499
96	229
97	489
98	50
100	299
101	429
102	189
103	50
106	369
107	80
108	239
109	50
110	40
111	20
117	879
118	969
119	919
120	239
121	289
122	40
123	30
129	10
130	1319
131	149
132	869
133	99
134	149
135	40
136	50
137	40
138	20
139	20
141	1259
142	40
143	1189
144	40
145	419
146	10
147	40
153	119
155	119
156	10
157	30
165	959
166	60
167	969
168	60
169	349
170	20
171	50
188	159
190	199
191	10
192	90
194	20
200	70
202	90
203	10
204	40
206	10
223	80
225	125
227	90
234	10
235	6309
236	469
237	9999
238	789
239	6469
240	509
241	2089
242	169
243	349
244	30
245	20
270	919
271	50
272	1789
273	109
274	1419
275	80
276	629
277	30
278	149
279	10
