Mass Spectrum: .beta.-Santalol
Formula: C15 H24 O
CAS: 77-42-9
Molecular weight: 220
Origin: R. RYHAGE KAROLINSKA INSTITUTET, STOCKHOLM
m/z	RELATIVE INTENSITY
14	130
15	130
16	130
17	500
18	3380
26	130
27	190
29	560
30	130
31	130
39	190
40	380
41	1250
42	130
43	2500
44	810
45	130
53	190
55	3440
56	250
57	380
58	130
65	130
66	250
67	1440
68	560
69	1300
70	190
71	500
72	190
73	190
77	1000
78	250
79	3310
80	690
81	1380
82	500
83	380
84	750
85	190
91	2740
92	1190
93	9999
94	6250
95	2310
96	440
97	380
98	190
100	500
103	190
104	130
105	2000
106	940
107	2500
108	1000
109	1000
110	380
111	250
112	130
113	160
117	500
118	380
119	2130
120	940
121	6880
122	2190
123	880
124	250
125	250
128	130
129	130
130	190
131	750
132	630
133	750
134	810
135	750
136	250
137	380
138	130
143	130
145	560
146	440
147	500
148	250
149	250
150	130
151	250
152	130
153	130
157	130
159	630
160	190
161	380
162	250
163	250
164	130
173	190
174	250
175	130
177	130
187	440
188	130
189	250
202	630
203	190
205	130
207	380
208	130
209	130
218	130
220	190
