Mass Spectrum: Acetylcarbromal
Formula: C9 H15 Br N2 O3
CAS: 77-66-7
Molecular weight: 278
Origin: Drug Lab
m/z	RELATIVE INTENSITY
42	881
43	7917
44	1351
45	70
46	20
50	50
51	110
52	80
53	490
54	240
55	1401
56	190
57	60
59	671
60	260
61	100
63	20
65	70
66	50
67	340
68	170
69	5935
70	2292
71	460
72	40
74	20
79	30
80	50
81	90
82	100
83	691
84	160
85	90
86	3003
87	1972
88	70
89	30
93	20
95	60
96	611
97	2002
98	651
99	70
100	30
101	20
102	320
103	270
105	30
107	230
109	200
110	20
111	20
112	200
113	140
114	460
115	30
119	40
121	60
122	20
123	30
124	50
126	30
127	50
129	9999
130	591
131	100
133	70
134	20
135	70
139	40
140	510
141	100
144	40
147	40
148	701
149	1391
150	981
151	1331
152	300
155	30
156	120
157	240
158	20
164	130
165	711
166	160
167	711
168	30
171	90
172	20
176	120
177	180
178	130
179	160
180	20
191	280
192	30
193	300
194	80
195	30
196	50
199	80
208	661
209	50
210	671
211	40
237	120
239	120
250	2192
251	180
252	2112
253	180
263	190
264	20
265	180
266	20
278	40
280	40
