Mass Spectrum: Tigogenin
Formula: C27 H44 O3
CAS: 77-60-1
Molecular weight: 416
Origin: LAC, NIDDK, NIH, Bethesda, MD 20892
m/z	RELATIVE INTENSITY
41	834
42	682
43	845
44	110
45	47
53	201
54	21
55	1817
57	1084
58	111
59	79
65	88
67	872
68	40
69	2017
70	259
71	155
73	165
74	34
77	282
79	909
81	1167
83	568
84	54
85	116
87	21
88	12
91	882
93	1407
94	276
95	1150
97	875
98	10
99	197
100	22
101	25
103	55
105	983
106	251
107	1426
108	519
109	924
110	206
111	247
112	119
113	133
114	495
115	2442
117	393
119	841
120	334
121	1071
122	1439
123	409
124	131
125	443
126	616
127	163
128	109
129	157
130	68
131	437
133	902
134	249
135	671
136	17
137	296
139	9999
140	111
141	155
142	94
143	223
144	94
145	544
146	167
147	825
149	524
150	85
151	153
152	40
153	58
155	90
157	240
158	115
159	514
160	18
161	1172
162	189
163	289
164	96
165	210
166	52
167	138
168	300
169	89
171	172
172	64
173	304
174	96
175	289
176	690
177	359
178	96
179	113
181	139
182	37
183	57
184	19
185	110
187	200
188	48
189	132
190	100
191	58
192	17
193	28
195	40
197	54
198	19
199	153
200	37
201	138
202	145
203	82
204	18
205	34
206	13
207	22
209	18
211	34
212	20
213	94
214	79
215	256
216	132
217	102
218	46
219	44
220	12
221	46
223	6
225	29
226	10
227	85
229	220
230	69
232	344
233	124
234	113
235	45
237	12
239	34
241	86
242	19
243	35
245	220
246	55
247	110
248	32
249	11
251	9
253	102
255	392
256	71
257	54
258	43
259	49
260	23
261	14
263	16
267	112
269	277
271	277
273	3973
274	692
275	85
276	18
277	9
282	407
283	132
284	217
285	175
287	1600
288	296
289	48
290	8
291	19
299	13
300	179
302	2500
303	594
311	24
313	17
317	73
318	18
326	14
327	18
328	27
329	117
330	21
331	10
342	63
344	905
345	236
346	178
347	413
348	91
349	11
355	21
357	288
358	69
359	11
383	20
384	7
385	10
386	63
387	26
388	15
397	31
398	13
399	108
400	31
401	70
402	16
413	15
414	41
415	237
416	633
417	204
418	71
419	10
