Mass Spectrum: Ethosuximide
Formula: C7 H11 N O2
CAS: 77-67-8
Molecular weight: 141
Origin: NIST Mass Spectrometry Data Center
m/z	RELATIVE INTENSITY
14	10
15	40
16	10
26	90
27	701
28	210
29	641
30	30
31	10
33	10
34	10
37	60
38	170
39	1952
40	450
41	2002
42	2532
43	290
44	270
45	20
48	10
49	20
50	150
51	230
52	140
53	641
54	360
55	9358
56	480
57	30
58	10
59	20
61	10
62	20
63	30
64	10
65	50
66	50
67	180
68	160
69	771
70	5185
71	290
72	20
73	10
78	10
80	30
81	20
82	20
83	50
84	50
85	731
86	40
94	30
95	20
96	30
97	20
98	370
99	20
108	10
109	20
110	10
111	10
113	9999
114	591
115	60
126	110
127	10
141	100
142	10
