Mass Spectrum: Carbromal
Formula: C7 H13 Br N2 O2
CAS: 77-65-6
Molecular weight: 236
Origin: Virginia Division of Forensic Science
m/z	RELATIVE INTENSITY
15	160
16	70
18	100
26	200
27	1311
28	730
29	1501
30	130
31	30
32	20
37	70
38	210
39	1911
40	340
41	4654
42	1040
43	2902
44	9999
45	200
46	260
50	110
51	240
52	240
53	860
54	460
55	2872
56	310
57	140
58	60
59	60
60	390
61	540
62	50
63	50
65	140
66	120
67	610
68	440
69	6886
70	1111
71	1931
72	270
79	90
80	190
81	180
82	240
83	940
84	110
85	70
86	140
87	1661
88	640
89	70
95	100
96	390
97	1751
98	560
99	90
100	60
102	130
105	60
107	290
109	250
113	250
114	1541
115	220
119	110
121	120
122	50
123	60
128	50
129	740
130	360
133	110
135	120
140	60
141	40
143	100
147	50
148	440
149	730
150	920
151	660
152	430
156	160
157	840
158	70
165	1851
166	120
167	1941
168	80
193	120
195	80
208	5204
209	360
210	5244
211	370
