Mass Spectrum: Sulfuric acid, dimethyl ester
Formula: C2 H6 O4 S
CAS: 77-78-1
Molecular weight: 126
Origin: NIST Mass Spectrometry Data Center, 1990.
m/z	RELATIVE INTENSITY
12	51
13	79
14	496
15	3583
16	94
17	1
18	58
19	48
28	235
29	5161
30	1241
31	6632
32	4885
33	524
45	2861
46	95
48	1029
49	196
50	289
61	204
64	645
65	1208
66	2750
67	89
68	149
78	647
79	1380
80	132
81	202
95	9999
96	5514
97	733
98	265
125	604
126	407
127	85
128	45
