Mass Spectrum: 2,4-Imidazolidinedione, 5,5-dimethyl-
Formula: C5 H8 N2 O2
CAS: 77-71-4
Molecular weight: 128
Origin: NIST Mass Spectrometry Data Center, 2011
m/z	RELATIVE INTENSITY
14	30
15	290
16	30
25	10
26	100
27	280
28	390
29	150
30	40
31	10
36	10
37	70
38	150
39	871
40	450
41	1221
42	9999
43	791
44	290
51	40
52	80
53	40
54	120
55	70
56	220
57	2212
58	100
59	10
68	40
69	50
70	410
71	20
78	10
83	10
84	80
98	10
100	1091
101	50
113	7116
114	350
115	40
128	2502
129	180
130	20
