Mass Spectrum: Divinyl sulphone
Formula: C4 H6 O2 S
CAS: 77-77-0
Molecular weight: 118
Origin: NIST Mass Spectrometry Data Center
m/z	RELATIVE INTENSITY
14	20
15	70
24	10
25	120
26	1531
27	7267
28	300
29	691
30	10
31	40
32	50
33	40
34	20
37	10
38	30
39	230
41	901
42	440
43	1341
44	280
45	1031
46	500
47	2232
48	1481
49	480
50	300
51	130
52	60
53	160
54	140
55	40
56	60
57	460
58	811
59	1942
60	1531
61	240
62	70
63	280
64	240
65	751
66	3123
67	50
68	160
69	1501
70	250
71	40
72	90
73	530
74	80
75	9999
76	1321
77	540
78	60
85	50
87	10
89	200
90	10
91	430
92	20
93	20
119	20
