Mass Spectrum: 2-Ethyl-2-methyl-1,3-propanediol
Formula: C6 H14 O2
CAS: 77-84-9
Molecular weight: 118
Origin: NIST Mass Spectrometry Data Center, 1994
m/z	RELATIVE INTENSITY
15	452
17	8
19	115
26	424
27	2819
28	507
29	4093
30	29
31	5220
32	61
33	91
37	81
39	2348
41	6303
42	1292
43	2992
44	29
45	9999
46	242
47	82
50	167
51	212
52	100
53	570
54	81
55	2711
56	198
57	1165
58	234
59	297
60	22
61	58
63	26
65	83
67	278
69	2568
70	6990
71	1934
72	123
82	66
83	45
85	143
86	272
87	1116
88	109
89	23
100	38
