Mass Spectrum: 1,3-Propanediol, 2-(hydroxymethyl)-2-methyl-
Formula: C5 H12 O3
CAS: 77-85-0
Molecular weight: 120
Origin: Japan AIST/NIMC Database- Spectrum MS-NW-1452
m/z	RELATIVE INTENSITY
14	30
15	289
16	20
17	99
18	459
19	589
26	139
27	1859
28	409
29	1619
30	219
31	4719
32	109
33	70
36	10
37	50
38	99
39	1899
40	289
41	6499
42	769
43	3619
44	559
45	539
46	20
47	379
49	60
50	40
51	50
52	20
53	379
54	889
55	699
56	1519
57	9999
58	539
59	1229
60	50
61	60
65	30
66	10
67	30
68	20
69	849
70	279
71	2139
72	9239
73	559
74	40
75	60
76	10
77	60
82	10
83	189
84	299
85	50
86	10
87	40
88	10
89	109
90	20
91	10
101	20
102	10
103	10
115	10
117	10
119	20
