Mass Spectrum: Tributyl acetylcitrate
Formula: C20 H34 O8
CAS: 77-90-7
Molecular weight: 402
Origin: N.W. Davies, Centr. Sci. Lab., Univ. Tasmania, Hobart, Australia
m/z	RELATIVE INTENSITY
27	370
29	2710
39	290
41	2390
42	200
43	5440
44	200
45	100
55	440
56	850
57	3780
58	160
60	140
61	320
84	310
87	270
102	550
103	260
111	620
112	1300
113	470
129	5700
130	380
138	130
139	1170
140	200
147	580
156	580
157	2170
158	780
168	170
185	9999
186	1050
187	140
203	270
212	210
213	790
214	110
217	540
231	130
259	5410
260	850
261	160
269	320
273	570
329	640
330	140
