Mass Spectrum: 1,3-Propanediol, 2-ethyl-2-(hydroxymethyl)-
Formula: C6 H14 O3
CAS: 77-99-6
Molecular weight: 134
Origin: Japan AIST/NIMC Database- Spectrum MS-NW- 219
m/z	RELATIVE INTENSITY
3	20
14	10
15	209
18	30
19	629
26	99
27	1719
28	339
29	4249
30	109
31	3349
32	80
33	40
37	20
38	60
39	1549
40	319
41	4299
42	569
43	2369
44	1459
45	639
46	20
47	239
49	30
50	50
51	99
52	50
53	709
54	209
55	3379
56	499
57	9999
58	869
59	139
60	20
61	229
65	129
66	30
67	939
68	1449
69	849
70	1119
71	2219
72	169
73	229
74	20
75	20
79	30
80	70
81	109
83	549
84	119
85	739
86	5119
87	329
88	20
97	60
98	139
99	119
100	10
101	20
103	50
104	20
115	10
116	20
117	129
135	269
136	20
