Mass Spectrum: 1-Phenoxypropan-2-ol
Formula: C9 H12 O2
CAS: 770-35-4
Molecular weight: 152
Origin: NIST Mass Spectrometry Data Center
m/z	RELATIVE INTENSITY
13	30
14	60
15	470
16	10
17	10
18	30
19	190
25	20
26	110
27	631
28	110
29	621
31	1281
33	10
37	100
38	410
39	1962
40	330
41	601
42	170
43	881
45	1812
46	40
50	661
51	1852
52	220
53	100
54	20
55	160
57	110
58	150
59	741
60	30
61	50
62	120
63	380
64	150
65	1241
66	1301
67	100
68	30
69	10
73	20
74	120
75	90
77	2702
78	2012
79	851
80	80
91	200
94	9999
95	1101
96	70
105	40
107	561
108	1601
109	110
119	270
120	20
121	50
133	20
137	30
150	20
152	1732
153	200
154	10
