Mass Spectrum: Crotoxyphos
Formula: C14 H19 O6 P
CAS: 7700-17-6
Molecular weight: 314
Origin: ACCUSTANDARD Chemicals / NIST MS Data Center.
m/z	RELATIVE INTENSITY
14	25
15	532
16	7
17	11
18	12
26	40
27	306
28	236
29	105
30	18
31	120
32	38
33	62
37	24
38	77
39	533
40	101
41	63
42	70
43	630
44	18
45	31
47	113
48	16
49	32
50	151
51	494
52	132
53	75
54	121
55	58
56	20
57	12
59	8
61	14
62	36
63	141
64	29
65	138
66	162
67	1177
68	241
69	126
70	10
71	22
72	6
73	14
74	52
75	43
76	6
77	1239
78	731
79	1190
80	69
81	31
82	8
83	14
84	24
85	70
86	11
87	7
89	41
90	17
91	83
93	149
95	193
96	133
97	24
98	10
99	11
102	115
103	810
104	1649
105	5014
106	436
107	47
108	10
109	1123
110	200
111	13
113	269
114	7
115	21
116	10
117	10
118	12
119	18
120	22
121	120
122	20
123	5
127	9999
128	238
129	203
130	24
131	9
133	5
135	9
137	10
141	8
142	18
143	58
144	55
145	98
146	17
147	9
149	15
150	13
151	15
159	5
160	9
164	98
166	2042
167	160
168	25
169	5
170	18
173	31
181	5
182	5
188	90
189	13
193	3772
194	715
195	84
196	11
209	6
210	23
211	15
229	11
230	7
296	9
314	26
315	4
