Mass Spectrum: Phenol, pentafluoro-
Formula: C6 H F5 O
CAS: 771-61-9
Molecular weight: 184
Origin: NIST Mass Spectrometry Data Center, 1998.
m/z	RELATIVE INTENSITY
19	10
24	10
25	10
28	60
29	140
31	1340
32	60
36	50
37	100
40	10
41	10
43	60
44	30
47	30
48	60
49	20
50	30
51	160
52	20
53	10
54	10
55	520
56	190
57	30
60	70
61	20
62	110
63	50
67	140
68	180
69	1160
70	20
71	360
72	20
73	20
74	620
75	360
76	20
77	30
78	20
79	490
80	60
81	20
82	130
83	20
84	10
85	10
86	1440
87	380
88	20
90	10
91	90
92	430
93	1200
94	50
95	150
96	10
97	10
98	620
99	190
100	10
102	10
105	1210
106	560
107	30
109	60
110	50
112	10
113	30
114	10
115	30
117	5569
118	340
119	10
121	10
122	10
124	240
125	10
126	10
129	10
131	10
133	40
134	10
136	7769
137	1410
138	60
145	40
146	10
148	40
153	30
155	1410
156	90
164	250
165	250
166	50
167	70
168	10
183	250
184	9999
185	560
186	30
