Mass Spectrum: Benzenamine, 2,3,4,5,6-pentafluoro-
Formula: C6 H2 F5 N
CAS: 771-60-8
Molecular weight: 183
Origin: Japan AIST/NIMC Database- Spectrum MS-NW-6811
m/z	RELATIVE INTENSITY
27	10
28	20
31	849
36	40
37	40
38	10
43	10
44	30
46	329
47	10
48	10
49	10
50	20
51	179
52	40
55	159
56	90
57	20
58	20
59	30
60	20
61	20
62	50
63	40
64	30
66	30
67	30
68	70
69	759
70	359
71	30
72	20
74	239
75	329
76	60
79	129
80	30
81	99
82	199
83	40
85	10
86	279
87	149
88	50
89	10
90	70
91	589
92	50
93	519
94	279
95	30
98	159
99	139
100	80
101	30
102	20
105	289
106	779
107	40
108	30
110	10
112	80
113	759
114	149
115	10
117	969
118	159
119	20
121	50
124	259
125	70
126	10
131	90
132	159
133	60
136	1779
137	879
138	90
139	20
143	219
144	299
145	40
146	10
148	10
151	10
152	549
153	40
155	1289
156	749
157	40
162	229
163	909
164	279
165	50
167	20
168	20
181	40
182	539
183	9999
184	709
185	30
