Mass Spectrum: Benzenethiol, pentafluoro-
Formula: C6 H F5 S
CAS: 771-62-0
Molecular weight: 200
m/z	RELATIVE INTENSITY
31	1501
45	200
55	200
63	2302
69	801
74	500
75	300
79	601
86	300
87	1702
90	300
92	200
93	1301
98	701
99	400
100	701
105	400
106	500
111	1501
117	2002
118	300
124	300
125	300
130	500
131	701
137	1001
149	1001
150	1101
155	2502
156	1501
167	300
168	1802
169	300
180	1001
181	701
199	2803
200	9999
201	1001
202	500
