Mass Spectrum: 2,3-Naphthalenediamine
Formula: C10 H10 N2
CAS: 771-97-1
Molecular weight: 158
Origin: Japan AIST/NIMC Database- Spectrum MS-NW-2772
m/z	RELATIVE INTENSITY
27	50
28	129
30	10
37	20
38	40
39	119
40	20
41	30
42	20
43	40
49	10
50	90
51	189
52	119
53	40
54	30
57	20
61	20
62	90
63	159
64	90
65	229
66	40
67	10
70	70
74	60
75	99
76	99
77	419
78	139
79	549
80	10
86	20
87	40
88	90
89	90
90	40
91	30
98	10
99	20
100	20
101	70
102	269
103	599
104	149
105	10
113	169
114	479
115	269
116	99
117	60
118	20
127	20
128	109
129	80
130	3569
131	709
132	50
139	10
140	479
141	309
142	50
143	70
155	80
156	50
157	389
158	9999
159	1239
160	70
