Mass Spectrum: 1,4-Benzenediol, 2,3,5,6-tetrafluoro-
Formula: C6 H2 F4 O2
CAS: 771-63-1
Molecular weight: 182
Origin: NIST Mass Spectrometry Data Center
m/z	RELATIVE INTENSITY
24	10
25	20
28	20
29	180
31	861
32	20
36	50
37	150
38	30
40	10
41	10
43	110
44	90
45	40
47	70
48	50
49	30
50	20
51	110
52	90
53	270
54	10
55	510
56	1291
57	320
58	10
59	10
60	60
61	20
62	510
63	210
64	20
65	10
67	140
68	130
69	380
71	2262
72	140
73	40
74	430
75	2002
76	110
79	250
80	40
81	100
82	20
83	40
84	70
85	30
86	791
87	881
88	70
89	10
90	190
91	871
93	520
94	40
95	310
96	20
98	320
99	130
100	10
102	30
103	150
105	2983
106	9509
107	470
108	10
109	40
110	10
113	10
114	60
115	390
116	20
117	550
118	50
121	30
122	60
124	470
125	60
126	30
133	791
134	3763
135	320
136	80
137	190
138	10
143	120
144	10
145	10
151	10
152	20
153	430
154	20
161	410
162	330
163	30
164	20
165	20
179	10
181	851
182	9999
183	651
184	60
