Mass Spectrum: 1H-Indole-3-acetonitrile
Formula: C10 H8 N2
CAS: 771-51-7
Molecular weight: 156
Origin: RADIAN CORP
m/z	RELATIVE INTENSITY
26	80
27	110
29	20
37	80
38	150
39	200
40	70
41	40
49	40
50	360
51	430
52	270
53	40
54	10
61	130
62	260
63	380
64	230
65	90
66	20
73	60
74	430
75	620
76	430
77	860
78	520
85	40
86	80
87	120
88	120
89	190
90	70
91	20
97	10
98	90
99	160
100	290
101	1080
102	740
103	360
104	60
113	10
114	40
115	20
116	50
117	40
123	20
126	70
127	370
128	1350
129	740
130	3620
131	380
132	20
153	110
154	10
155	9999
156	6990
157	740
158	40
