Mass Spectrum: Benzene, pentafluoromethyl-
Formula: C7 H3 F5
CAS: 771-56-2
Molecular weight: 182
m/z	RELATIVE INTENSITY
14	170
15	250
26	250
27	250
31	5835
36	170
37	751
38	420
39	250
49	250
50	581
51	1081
55	581
56	921
57	831
60	170
61	1331
62	831
63	1081
68	1001
69	1672
73	170
74	1001
75	1922
79	1001
80	1171
81	250
82	170
86	500
87	250
88	250
91	250
92	671
93	2082
94	250
98	500
99	1752
100	170
104	170
105	250
106	250
110	170
111	500
112	1081
113	500
117	1001
119	250
123	330
124	170
130	671
131	581
132	5675
133	330
137	500
141	250
143	1251
150	581
155	500
161	2082
162	420
163	5005
164	330
180	831
181	9999
182	8758
183	660
184	21
