Mass Spectrum: 2-Butanamine, N-methyl-
Formula: C5 H13 N
CAS: 7713-69-1
Molecular weight: 87
m/z	RELATIVE INTENSITY
15	200
17	10
18	50
27	400
28	600
29	500
30	1500
31	70
41	600
42	500
43	300
44	600
45	40
55	200
56	700
57	700
58	9999
59	400
60	10
69	10
70	200
71	200
72	2000
73	100
84	40
85	10
86	300
87	500
