Mass Spectrum: 4-Bromo-2,6-dimethylphenyl isothiocyanate
Formula: C9 H8 Br N S
CAS: 77159-76-3
Molecular weight: 241
Origin: NIST Mass Spectrometry Data Center, 1994
m/z	RELATIVE INTENSITY
14	87
15	461
26	508
27	1701
28	464
29	57
32	651
33	127
34	60
37	739
38	1607
39	4646
40	347
41	243
44	765
45	2120
46	125
47	131
49	256
50	2441
51	4717
52	1454
53	751
54	185
57	132
58	680
59	651
60	268
61	842
62	2041
63	3963
64	1173
65	1154
66	353
67	713
68	132
69	481
70	991
71	222
72	335
73	237
74	1318
75	1763
76	1683
77	5176
78	1870
79	340
80	222
81	1494
82	293
83	158
84	323
85	279
86	520
87	680
88	489
89	1489
90	728
91	1821
92	247
93	231
94	189
95	261
96	292
97	117
98	262
99	195
100	171
101	664
102	2312
103	2914
104	1555
105	213
106	124
107	184
108	198
109	131
110	87
114	150
115	192
116	765
117	1663
118	4632
119	651
120	584
121	517
123	66
125	49
127	143
128	1205
129	1560
130	2309
131	341
132	80
133	247
134	1195
135	1253
136	223
137	80
143	76
145	81
146	227
147	181
159	93
160	559
162	9999
163	1242
164	576
165	59
169	63
182	56
183	356
184	79
185	275
196	68
198	47
208	321
209	207
210	354
211	177
213	133
215	121
226	107
228	132
241	7198
242	1263
243	7046
244	784
245	340
