Mass Spectrum: (-)-Spathulenol
Formula: C15 H24 O
CAS: 77171-55-2
Molecular weight: 220
Origin: H. SURBURG, C/O HAARMANN U. REIMER GMBH, HOLZMINDEN, W.
m/z	RELATIVE INTENSITY
26	47
27	1757
29	1593
30	31
31	182
37	25
38	66
39	1966
40	352
41	6886
42	320
43	9999
44	175
45	379
46	15
50	92
51	553
52	288
53	1530
54	189
55	2741
56	145
57	528
58	380
59	317
60	19
61	16
62	36
63	149
64	103
65	960
66	315
67	2443
68	272
69	3498
70	246
71	2019
72	242
73	60
74	43
75	37
76	45
77	1958
78	628
79	3166
80	716
81	2284
82	1599
83	839
84	129
85	390
86	61
87	21
89	69
90	14
91	4227
92	1091
93	3974
94	1062
95	1960
96	375
97	509
98	44
99	220
100	20
101	8
102	53
103	291
104	476
105	3410
106	2000
107	2913
108	626
109	1060
110	271
111	150
112	25
113	21
115	344
116	156
117	1409
118	480
119	4217
120	1427
121	1757
122	477
123	632
124	118
125	246
126	33
127	74
128	235
129	275
130	183
131	2088
132	591
133	1673
134	1039
135	1128
136	277
137	241
138	72
139	38
140	9
141	62
142	67
143	175
144	185
145	1727
146	1521
147	2174
148	351
149	1276
150	456
151	165
152	45
153	23
155	36
156	6
157	80
158	96
159	3357
160	945
161	383
162	2359
163	502
164	142
165	46
166	17
170	5
171	23
172	28
173	291
174	243
175	87
176	41
177	869
178	119
179	18
183	9
187	1716
188	259
189	72
190	7
191	51
192	98
193	9
198	9
200	13
201	22
202	1618
203	317
204	27
205	3327
206	554
207	50
219	10
220	560
221	102
