Mass Spectrum: Thionyl chloride
Formula: Cl2 O S
CAS: 7719-09-7
Molecular weight: 118
Origin: NIST Mass Spectrometry Data Center, 1994
m/z	RELATIVE INTENSITY
32	3933
34	12
35	5944
37	1860
48	5510
49	71
50	268
51	19
53	7
64	79
67	932
69	352
70	38
71	17
72	23
80	34
83	9999
85	4014
87	172
102	40
104	29
118	1434
119	11
120	1000
121	8
122	194
123	1
124	9
