Mass Spectrum: Phosphorus trichloride
Formula: Cl3 P
CAS: 7719-12-2
Molecular weight: 136
Origin: Eric Wils, TNO Prins Maurits Laboratory, The Netherlands.
m/z	RELATIVE INTENSITY
31	310
35	510
36	190
37	140
50	140
66	641
68	260
101	9999
103	6706
105	1011
136	4024
138	3843
140	1141
