Mass Spectrum: 1,3-Dioxane, 2-phenyl-
Formula: C10 H12 O2
CAS: 772-01-0
Molecular weight: 164
Origin: R.T.HOLMAN,UNIVERSITY OF MINNESOTA
m/z	RELATIVE INTENSITY
25	20
26	220
27	940
28	500
29	1160
30	100
31	1000
32	30
33	20
35	20
36	20
37	60
38	170
39	750
40	170
41	880
42	1380
43	140
44	30
45	50
47	20
48	10
49	50
50	1000
51	2550
52	630
53	170
54	20
55	70
56	50
57	260
58	130
59	580
60	40
61	50
62	150
63	380
64	130
65	210
66	40
67	30
68	30
69	20
70	20
71	20
72	10
73	100
74	230
75	220
76	370
77	5000
78	1770
79	1660
80	110
81	20
82	20
83	20
84	20
85	20
86	210
87	2330
88	140
89	430
90	250
91	750
92	160
93	20
94	20
95	20
96	10
97	20
98	10
99	10
101	20
102	20
103	30
104	210
105	9999
106	3110
107	1050
108	150
109	20
110	10
111	10
112	10
115	20
116	20
117	20
118	20
119	30
120	40
121	20
122	50
123	30
131	20
132	20
133	60
134	170
135	30
136	20
149	20
150	10
162	210
163	7500
164	3724
165	400
166	40
167	10
