Mass Spectrum: N,N-Diethylbenzylamine
Formula: C11 H17 N
CAS: 772-54-3
Molecular weight: 163
Origin: Japan AIST/NIMC Database- Spectrum MS-NW-5156
m/z	RELATIVE INTENSITY
15	70
26	30
27	279
28	389
29	399
30	379
38	30
39	329
40	30
41	149
42	349
43	30
44	90
45	10
50	90
51	229
52	50
53	20
54	40
55	20
56	309
57	50
58	219
59	10
61	10
62	30
63	169
64	50
65	799
66	50
70	90
71	10
72	119
73	10
74	70
75	20
76	30
77	189
78	50
79	139
80	10
81	30
84	10
86	959
87	60
89	159
90	109
91	9999
92	839
93	30
103	20
104	70
105	70
106	40
107	20
108	20
115	10
117	30
118	60
119	10
120	20
130	10
132	60
133	20
134	50
135	10
146	60
147	20
148	4219
149	499
150	30
160	40
161	30
162	179
163	929
164	129
165	10
