Mass Spectrum: 4-Chlorophenyl dichlorophosphate
Formula: C6 H4 Cl3 O2 P
CAS: 772-79-2
Molecular weight: 244
Origin: NIST Mass Spectrometry Data Center
m/z	RELATIVE INTENSITY
12	30
13	40
14	40
15	30
16	30
25	150
26	671
27	220
28	150
29	130
30	40
31	540
32	130
33	10
35	1031
36	460
37	2362
38	3873
39	2272
40	90
41	110
42	50
43	10
44	40
47	7977
48	240
49	1351
50	2863
51	1041
52	160
53	440
54	50
55	60
56	50
57	40
60	420
61	1722
62	3433
63	6966
64	1732
65	150
66	581
67	50
68	200
69	30
73	5815
74	2272
75	5155
76	591
77	50
79	130
80	60
82	731
83	200
84	450
85	340
86	90
87	180
88	30
89	60
90	40
91	20
92	250
93	40
94	10
95	30
96	70
99	9999
100	821
101	3473
102	200
103	100
104	30
105	40
107	60
108	30
110	841
111	891
112	310
113	280
114	40
115	170
117	2022
119	1281
121	220
127	7357
128	681
129	2302
130	150
131	10
133	60
134	40
135	60
136	20
137	20
139	180
143	40
146	290
147	40
148	210
149	10
150	30
152	20
153	10
154	10
161	40
162	30
163	30
164	30
165	10
173	941
174	340
175	330
176	90
177	10
180	30
181	60
182	30
183	30
193	10
205	20
208	4784
209	1171
210	3103
211	601
212	510
213	120
216	30
218	30
240	10
244	7026
246	6836
247	701
248	2232
249	170
250	290
251	20
