Mass Spectrum: 2-Hydroxy-5-nitrobenzyl bromide
Formula: C7 H6 Br N O3
CAS: 772-33-8
Molecular weight: 231
Origin: Japan AIST/NIMC Database- Spectrum MS-IW-1189
m/z	RELATIVE INTENSITY
26	50
27	90
28	70
29	20
30	279
37	60
38	159
39	399
40	40
41	20
42	30
43	20
44	10
49	30
50	449
51	1229
52	579
53	179
54	60
55	70
57	10
61	30
62	80
63	149
64	40
65	389
66	129
67	60
68	20
69	10
73	30
74	159
75	119
76	169
77	659
78	1069
79	559
80	1309
81	479
82	1329
83	10
85	10
86	10
87	10
89	20
90	10
91	20
92	40
93	139
94	209
95	20
96	20
104	40
105	509
106	2419
107	189
108	10
121	189
122	40
123	10
135	60
136	99
137	10
151	699
152	9999
153	849
154	90
164	40
167	20
169	10
184	10
186	10
194	70
215	10
217	10
231	629
232	60
233	629
234	60
