Mass Spectrum: 3,3-Dimethyl-3-silathietane
Formula: C4 H10 S Si
CAS: 77205-52-8
Molecular weight: 118
Origin: V.G.Zaikin, TIPS, Russian Acad. Sci.
m/z	RELATIVE INTENSITY
43	2962
44	8487
45	8487
46	3523
47	1761
48	240
53	1921
54	480
55	1761
56	480
57	1201
58	560
59	800
60	560
61	1361
62	160
63	160
65	120
66	160
67	160
70	1361
71	1241
72	9999
73	2001
74	720
75	4163
76	480
77	480
85	160
87	200
89	160
90	7126
91	720
92	640
103	480
118	3282
119	340
120	261
121	20
