Mass Spectrum: Methylmaleic acid, 2TMS derivative
Formula: C11 H22 O4 Si2
CAS: 77220-12-3
Molecular weight: 274
Origin: NIST Mass Spectrometry Data Center
m/z	RELATIVE INTENSITY
15	10
27	20
28	20
29	60
31	20
38	20
39	270
40	170
41	40
42	40
43	410
44	210
45	1461
46	110
47	490
48	30
49	20
51	50
52	60
53	100
54	50
55	130
56	30
57	130
58	260
59	430
60	110
61	340
62	20
63	20
65	20
66	220
67	1171
68	290
69	150
70	60
71	90
72	270
73	9999
74	981
75	2903
76	200
77	120
78	10
79	10
81	50
82	100
83	350
84	60
85	90
86	10
87	40
88	10
89	50
90	10
91	10
93	10
94	10
95	70
96	80
97	1161
98	350
99	290
100	40
101	40
102	20
103	70
104	10
105	30
107	10
109	10
111	40
112	290
113	130
114	30
115	110
116	20
117	190
118	30
119	60
120	10
122	581
125	50
126	10
127	130
128	20
129	20
131	150
132	50
133	701
134	100
135	70
136	10
139	10
140	110
141	530
142	140
143	80
144	10
145	30
147	7627
148	1211
149	921
150	110
151	50
155	50
156	190
157	440
158	70
159	40
161	10
163	70
164	10
165	10
169	270
170	50
171	120
172	20
173	30
184	5185
185	851
186	260
187	40
199	40
200	10
201	10
213	10
215	50
216	10
217	10
229	40
230	10
231	200
232	40
233	20
256	10
257	10
259	4124
260	901
261	410
262	60
263	10
273	10
274	50
275	10
