Mass Spectrum: 3H-1,4-Benzodiazepine, 2-amino-7-chloro-5-phenyl-, 4-oxide
Formula: C15 H12 Cl N3 O
CAS: 7722-15-8
Molecular weight: 285
m/z	RELATIVE INTENSITY
40	150
41	601
42	2002
43	1802
44	1501
45	60
49	80
50	771
51	1601
52	360
53	100
54	60
55	160
56	70
57	130
58	901
60	50
61	100
62	601
63	1301
64	340
65	601
66	70
67	90
68	100
69	160
70	60
71	80
73	260
74	701
75	1601
76	1321
77	4004
78	621
79	150
80	60
81	300
82	601
83	160
84	110
85	70
86	250
87	601
88	601
89	1902
90	701
91	3103
92	550
93	160
94	100
95	120
96	300
97	180
98	270
99	450
100	561
101	350
102	1101
103	1752
104	981
105	1001
106	110
107	190
108	180
109	130
110	330
111	420
112	230
113	270
114	310
115	320
116	651
117	1651
118	330
119	70
120	500
121	210
122	90
123	200
124	601
125	601
126	601
127	360
128	220
129	180
130	70
131	350
132	80
134	200
135	150
136	270
137	230
138	500
139	350
140	230
141	110
142	90
143	60
144	50
147	50
149	140
150	601
151	1401
152	1301
153	320
154	110
155	50
156	60
157	270
158	40
161	90
162	180
163	1301
164	1051
165	1151
166	420
167	320
168	120
173	60
174	70
175	180
176	500
177	1451
178	1001
179	801
180	601
181	190
182	70
183	200
186	130
187	60
188	160
189	200
190	701
191	500
192	390
193	400
194	180
195	110
197	50
198	140
199	601
200	180
201	310
202	260
203	500
204	380
205	2602
206	2602
207	601
208	120
209	60
211	50
212	90
213	330
214	1001
215	500
216	801
217	240
218	280
219	500
220	340
221	240
222	220
223	270
224	150
225	110
226	180
227	460
228	701
229	330
230	601
231	240
232	901
233	3503
234	951
235	130
237	80
238	160
239	1101
240	821
241	1802
242	1001
243	801
244	370
245	110
246	40
248	230
249	200
250	490
251	310
252	561
253	390
254	510
255	400
256	500
257	340
258	170
259	90
264	50
265	50
266	190
267	601
268	9999
269	8307
270	5005
271	2702
272	470
273	80
282	50
283	130
284	3353
285	5905
286	2102
287	1952
288	290
