Mass Spectrum: Bromine
Formula: Br2
CAS: 7726-95-6
Molecular weight: 158
Origin: J. PASSMORE, DEP. CHEM., NEW BRUNSWICK UNIV., CANADA
m/z	RELATIVE INTENSITY
79	1100
80	100
81	1100
82	70
158	5125
160	9999
162	4900
