Mass Spectrum: 1-Naphthaleneethanol
Formula: C12 H12 O
CAS: 773-99-9
Molecular weight: 172
Origin: Japan AIST/NIMC Database- Spectrum MS-NW-6760
m/z	RELATIVE INTENSITY
18	10
26	10
27	40
28	80
29	70
30	10
31	189
32	10
37	10
38	30
39	189
40	10
41	40
42	60
43	30
44	50
50	129
51	199
52	40
53	10
55	10
57	90
58	10
61	30
62	119
63	349
64	50
65	109
69	50
70	40
71	30
72	10
73	10
74	119
75	159
76	179
77	109
78	20
84	10
85	20
86	60
87	99
88	50
89	189
90	20
91	99
98	40
99	30
100	20
101	50
102	80
103	10
110	10
111	10
113	90
114	80
115	1959
116	209
117	10
122	10
125	10
126	109
127	159
128	399
129	109
130	10
137	20
138	30
139	639
140	199
141	9999
142	2609
143	269
144	20
150	40
151	80
152	259
153	329
154	229
155	60
169	20
170	30
171	10
172	3479
173	489
174	40
