Mass Spectrum: Benzonitrile, pentafluoro-
Formula: C7 F5 N
CAS: 773-82-0
Molecular weight: 193
Origin: Japan AIST/NIMC Database- Spectrum MS-NW-7079
m/z	RELATIVE INTENSITY
12	10
14	10
20	10
26	10
28	40
31	2639
32	20
36	50
38	20
48	20
50	20
55	189
60	40
62	119
67	20
69	429
72	10
73	10
74	359
75	10
76	20
79	299
80	20
81	119
85	30
86	259
87	20
91	10
93	1359
94	50
96	379
97	40
98	249
99	10
100	329
101	10
103	10
105	279
106	20
110	40
112	70
117	549
118	30
124	2569
125	169
129	30
131	80
136	10
141	20
143	389
144	20
148	519
149	30
155	30
162	1029
163	90
167	50
174	249
175	30
193	9999
194	819
195	30
