Mass Spectrum: Benzenesulfonyl chloride, 2,4,6-trimethyl-
Formula: C9 H11 Cl O2 S
CAS: 773-64-8
Molecular weight: 218
Origin: MASS SPECTROMETRY CENTER, UNIV. OF UTAH; ALDRICH M00770-7
m/z	RELATIVE INTENSITY
14	145
15	1126
16	87
26	800
27	2379
28	733
29	690
31	66
32	262
34	76
35	571
36	365
37	513
38	1180
39	6351
40	834
41	3046
42	170
43	279
44	124
45	1888
46	157
47	201
48	2023
49	681
50	1586
51	4244
52	1279
53	1617
54	178
55	201
57	145
58	762
59	558
61	509
62	956
63	2710
64	1078
65	6046
66	573
67	486
69	676
70	225
71	197
73	204
74	950
75	637
76	434
77	4337
78	2188
79	1358
80	185
81	82
82	171
83	428
84	84
85	376
86	289
87	338
88	118
89	733
90	342
91	8006
92	974
93	1049
95	84
97	506
98	175
99	244
100	83
101	305
102	675
103	3192
104	1490
105	987
106	458
107	150
109	105
111	55
113	58
114	67
115	2249
116	942
117	3193
118	3222
119	9999
120	1680
121	356
122	146
125	56
127	38
134	1562
135	461
136	156
137	313
138	52
139	284
141	60
149	144
150	44
151	66
152	73
153	543
154	448
155	209
156	140
164	91
165	713
166	98
167	76
182	87
183	3048
184	384
185	198
217	100
218	2853
219	405
220	1139
221	161
222	50
