Mass Spectrum: Cyclohexanol, 4-methyl-, trans-
Formula: C7 H14 O
CAS: 7731-29-5
Molecular weight: 114
Origin: Japan AIST/NIMC Database- Spectrum MS-NW-2222
m/z	RELATIVE INTENSITY
14	10
15	139
17	50
18	209
19	10
26	119
27	1399
28	309
29	1969
30	169
31	559
32	20
37	30
38	90
39	1379
40	289
41	3589
42	959
43	789
44	1689
45	329
46	10
49	10
50	90
51	169
52	80
53	619
54	999
55	3269
56	1269
57	9999
58	5279
59	289
60	20
62	20
63	40
65	99
66	109
67	1209
68	1329
69	359
70	3099
71	1089
72	70
73	149
74	10
77	109
78	30
79	239
80	70
81	5439
82	419
83	219
84	99
85	369
86	239
87	10
91	40
92	10
93	40
94	20
95	709
96	3999
97	339
98	20
99	20
110	30
112	40
113	149
114	70
