Mass Spectrum: Cyclohexanol, 4-methyl-, cis-
Formula: C7 H14 O
CAS: 7731-28-4
Molecular weight: 114
Origin: Japan AIST/NIMC Database- Spectrum MS-NW-2217
m/z	RELATIVE INTENSITY
14	10
15	159
17	50
18	209
19	10
26	129
27	1399
28	359
29	1969
30	179
31	549
32	30
37	20
38	99
39	1439
40	259
41	3609
42	949
43	829
44	1619
45	329
46	10
47	10
49	10
50	90
51	189
52	80
53	639
54	1059
55	3269
56	1239
57	9999
58	5599
59	309
60	20
61	10
62	20
63	30
65	119
66	99
67	1139
68	1229
69	309
70	3689
71	1389
72	90
73	229
74	10
77	139
78	40
79	279
80	70
81	4159
82	309
83	219
84	60
85	469
86	409
87	20
91	40
92	10
93	40
94	20
95	539
96	2839
97	269
98	10
99	20
112	50
113	159
114	769
115	50
