Mass Spectrum: 2-Amino-6-fluorobenzonitrile
Formula: C7 H5 F N2
CAS: 77326-36-4
Molecular weight: 136
Origin: NIST Mass Spectrometry Data Center, 1994
m/z	RELATIVE INTENSITY
12	39
14	1
15	3
16	10
17	24
25	38
26	160
27	81
28	860
31	725
32	22
33	131
36	79
37	502
38	732
39	564
40	220
41	288
42	42
44	93
46	52
48	37
49	120
50	326
51	312
52	641
53	105
55	117
56	348
57	702
58	119
60	82
61	405
62	641
63	708
64	332
65	320
66	136
67	55
68	336
69	179
70	358
71	41
72	46
73	48
74	70
75	264
76	297
77	147
78	74
79	43
80	148
81	800
82	1957
83	290
84	93
85	77
86	98
87	170
88	290
89	931
90	249
91	35
92	30
93	59
94	103
95	27
96	77
97	28
99	56
100	68
105	35
106	121
107	165
108	1318
109	5192
110	395
115	26
116	208
117	66
134	63
136	9999
137	912
138	33
