Mass Spectrum: Pyridine, 2-(2-(2-nitrophenyl)ethenyl)-, trans
Formula: C13 H10 N2 O2
CAS: 77340-84-2
Molecular weight: 226
Origin: V.A.KOPTYUG, ATLAS OF MASS SPECTRA OF ORGANIC COMPOUNDS
m/z	RELATIVE INTENSITY
62	240
63	820
65	840
75	520
76	980
77	1900
78	2970
79	2040
80	210
84	740
87	140
88	120
89	900
90	330
91	800
92	3080
93	300
97	100
98	100
99	120
101	350
102	490
103	150
104	420
105	660
106	200
108	160
114	1150
115	290
119	4220
120	590
121	110
125	120
126	300
127	680
128	370
129	120
130	100
139	410
140	320
141	290
142	100
149	100
150	290
151	690
152	1480
153	520
154	620
155	230
156	1120
165	110
166	680
167	1970
168	440
169	230
177	290
178	1280
179	1650
180	9999
181	2590
182	350
192	110
193	140
194	250
195	170
196	110
197	560
198	100
209	260
223	320
224	260
225	1030
226	1430
227	300
