Mass Spectrum: 1-Butene, 4-cyclopropyl-
Formula: C7 H12
CAS: 7736-35-8
Molecular weight: 96
Origin: D.HENNEBERG, MAX-PLANCK INSTITUTE, MULHEIM, WEST GERMANY
m/z	RELATIVE INTENSITY
26	209
27	3036
28	4015
29	4015
37	109
38	289
39	5104
40	669
41	2467
42	399
43	19
44	29
50	179
51	349
52	169
53	2197
54	4315
55	9999
56	469
63	69
65	159
66	369
67	4935
68	2737
69	139
70	39
77	79
79	159
81	2687
82	159
95	59
