Mass Spectrum: 1,5-Heptadiene, (Z)-
Formula: C7 H12
CAS: 7736-34-7
Molecular weight: 96
Origin: D.HENNEBERG, MAX-PLANCK INSTITUTE, MULHEIM, WEST GERMANY
m/z	RELATIVE INTENSITY
23	3
25	14
26	111
27	1532
28	216
29	2674
30	53
35	34
36	5
37	67
38	156
39	2454
40	255
41	1285
42	128
43	24
44	32
45	10
46	12
47	6
48	5
49	17
50	131
51	276
52	130
53	1023
54	1348
55	9999
56	452
57	8
61	19
62	31
63	76
64	12
65	166
66	244
67	1869
68	593
69	38
73	5
74	8
75	10
76	3
77	161
78	35
79	211
80	42
81	2853
82	199
83	4
85	2
86	1
89	3
91	52
92	5
93	17
94	8
95	88
96	158
97	14
