Mass Spectrum: Benzoic acid 1,1-dimethylethyl ester
Formula: C11 H14 O2
CAS: 774-65-2
Molecular weight: 178
Origin: Japan AIST/NIMC Database- Spectrum MS-NW-3823
m/z	RELATIVE INTENSITY
14	20
15	189
17	10
18	20
26	50
27	609
28	129
29	1999
30	40
31	30
32	10
37	50
38	109
39	799
40	129
41	3289
42	219
43	389
44	50
45	30
49	20
50	549
51	1579
52	129
53	50
54	30
55	229
56	4979
57	9999
58	479
59	30
61	20
62	20
63	20
64	10
65	50
66	10
73	10
74	119
75	129
76	229
77	3409
78	639
79	559
80	50
81	30
85	10
87	20
91	20
93	10
94	10
95	10
104	50
105	9179
106	829
107	40
108	10
109	10
111	10
119	30
121	30
122	899
123	8949
124	769
125	70
126	10
127	10
139	20
140	10
141	10
143	20
155	10
157	10
159	10
163	70
178	30
