Mass Spectrum: Ethyl mandelate
Formula: C10 H12 O3
CAS: 774-40-3
Molecular weight: 180
Origin: Chuck Anderson, Aldrich Chemical Co.
m/z	RELATIVE INTENSITY
14	9
15	37
17	1
18	11
19	3
26	64
27	436
28	109
29	900
30	36
31	46
36	26
38	43
39	180
43	38
44	62
45	28
50	148
51	583
52	148
53	109
62	46
63	112
64	4
73	3
74	38
75	26
76	18
77	2610
78	165
79	4576
80	209
89	110
90	90
91	63
105	997
106	14
107	9999
108	367
109	24
118	58
180	395
181	30
