Mass Spectrum: 1-Carboxycyclopropane-2-acetic acid (Z), dimethyl ester
Formula: C8 H12 O4
CAS: 77462-53-4
Molecular weight: 172
Origin: S.Bauer ET AL, J.Chromatogr.,309,243 (1984)
m/z	RELATIVE INTENSITY
14	170
15	9999
16	100
18	140
26	681
27	3944
28	1041
29	981
30	290
31	310
33	140
35	40
37	170
38	190
39	2512
40	380
41	3433
42	591
43	981
44	140
45	781
50	190
51	440
52	190
53	4074
54	1591
55	2963
56	250
57	170
58	270
59	6186
60	270
61	60
65	60
66	40
67	190
68	460
69	460
70	120
71	3133
72	190
73	210
74	270
75	761
76	80
79	60
80	1001
81	5035
82	1231
83	781
84	210
85	460
87	230
95	190
97	811
98	6336
99	5475
100	340
101	230
102	60
108	4924
109	5745
110	360
111	611
112	1171
113	1491
114	170
115	140
117	140
125	100
127	190
130	100
140	2232
141	1852
157	40
171	60
