Mass Spectrum: 1-Carboxycyclopropane-2-acetic acid (E), dimethyl ester
Formula: C8 H12 O4
CAS: 77462-54-5
Molecular weight: 172
Origin: S.Bauer ET AL, J.Chromatogr.,309,243 (1984)
m/z	RELATIVE INTENSITY
15	9999
16	140
18	190
26	460
27	4084
28	851
29	1271
30	120
31	480
33	40
35	60
36	80
37	60
38	230
39	2783
40	360
41	781
42	761
43	1041
44	270
45	681
47	80
50	290
51	611
52	571
53	3213
54	1591
55	3423
56	230
57	140
58	290
59	7917
60	210
63	40
67	290
68	340
69	360
70	80
71	4784
72	190
73	140
74	250
75	821
79	80
80	741
81	4124
82	911
83	550
84	210
85	530
86	40
87	210
90	40
91	40
95	40
97	851
98	5825
99	6786
100	290
101	230
108	3613
109	2532
110	170
111	380
112	1651
113	3043
114	290
115	40
117	60
127	60
130	60
140	1932
141	1311
142	120
157	40
171	60
