Mass Spectrum: 9,12,15-Octadecatrienoic acid, phenylmethyl ester, (Z,Z,Z)-
Formula: C25 H36 O2
CAS: 77509-02-5
Molecular weight: 368
Origin: G.GERCKEN UNIV. HAMBURG, 2 HAMBURG 13, GERMANY, F.R.G.
m/z	RELATIVE INTENSITY
26	220
27	560
29	450
31	110
36	390
37	110
38	170
39	1110
40	170
41	2110
42	330
43	890
44	390
45	220
50	220
51	330
52	220
53	330
54	330
55	1670
56	220
57	670
58	110
60	110
61	110
62	110
63	560
64	170
65	950
66	220
67	1780
68	330
69	830
70	170
71	170
73	220
74	110
77	610
78	450
79	2110
80	890
81	1000
82	220
83	450
85	170
89	450
90	330
91	9999
92	1000
93	1220
94	220
95	1110
96	220
97	280
98	110
105	450
106	110
107	670
108	890
109	330
111	110
115	110
117	220
118	330
121	560
123	170
125	110
126	670
127	110
128	330
129	110
131	220
133	220
135	450
136	220
143	110
145	110
147	170
149	220
159	110
161	110
185	110
207	110
221	220
222	110
277	560
278	170
