Mass Spectrum: 5-Fluoro-2-methylbenzonitrile
Formula: C8 H6 F N
CAS: 77532-79-7
Molecular weight: 135
Origin: NIST Mass Spectrometry Data Center, 1994
m/z	RELATIVE INTENSITY
12	28
13	19
14	59
15	33
17	25
18	20
20	26
25	56
26	298
27	198
28	85
31	332
33	396
36	67
37	722
38	916
39	1336
40	132
44	133
46	27
48	53
49	353
50	1485
51	1018
52	425
53	49
54	45
55	143
56	618
57	2445
60	105
61	820
62	975
63	1221
64	463
65	103
67	99
68	365
69	234
70	181
71	30
72	22
73	74
74	22
75	674
76	425
77	65
78	29
79	68
80	331
81	1372
82	817
83	563
84	173
85	249
86	293
87	483
88	470
89	349
90	68
92	50
93	156
94	177
95	89
96	52
98	34
99	142
100	188
101	38
102	56
104	38
105	264
106	472
107	4958
108	6696
109	889
110	79
111	48
112	40
113	40
114	217
115	820
116	207
120	22
132	297
134	8073
135	9999
136	931
137	39
