Mass Spectrum: 1-Piperazinecarboxaldehyde
Formula: C5 H10 N2 O
CAS: 7755-92-2
Molecular weight: 114
Origin: Japan AIST/NIMC Database- Spectrum MS-NW-5684
m/z	RELATIVE INTENSITY
13	10
14	60
15	599
16	10
18	20
25	20
26	319
27	1039
28	3679
29	3229
30	2629
31	70
32	10
37	10
38	30
39	80
40	209
41	769
42	3419
43	1259
44	6829
45	199
46	20
51	50
52	109
53	99
54	659
55	2339
56	9999
57	3489
58	929
59	229
60	319
61	10
65	10
66	10
67	40
68	179
69	5909
70	359
71	239
72	3239
73	199
74	40
77	10
78	10
79	10
80	90
81	80
82	60
83	309
84	229
85	3209
86	649
87	339
88	20
91	20
92	10
94	20
95	30
96	10
97	309
98	30
99	50
100	10
110	10
111	10
112	159
113	159
114	2899
115	209
116	10
