Mass Spectrum: 1,5-Pentanediol, 2TBDMS derivative
Formula: C17 H40 O2 Si2
CAS: 77572-86-2
Molecular weight: 332
Origin: D.J.HARVEY UNIV. DEPT. OF PHARMACOLOGY, OXFORD, UK
m/z	RELATIVE INTENSITY
41	646
68	136
69	9999
70	484
73	634
75	118
147	5125
148	832
149	861
150	112
163	377
189	1846
190	395
191	354
219	375
275	492
276	142
