Mass Spectrum: Silane, methyldiphenyl-
Formula: C13 H14 Si
CAS: 776-76-1
Molecular weight: 198
Origin: Japan AIST/NIMC Database- Spectrum MS-NW-8529
m/z	RELATIVE INTENSITY
27	30
28	40
29	40
38	10
39	99
41	10
42	20
43	679
44	50
45	50
50	80
51	219
52	50
53	959
54	109
55	139
56	10
62	10
63	50
64	10
65	90
66	109
67	189
68	20
69	119
70	10
74	30
75	20
76	40
77	239
78	139
79	599
80	80
81	80
84	10
89	30
90	30
91	229
92	40
93	319
94	70
95	139
96	10
97	30
98	209
99	60
101	30
102	20
103	289
104	90
105	5139
106	639
107	229
108	10
115	50
116	10
117	80
118	20
119	289
120	9999
121	1789
122	459
123	50
126	10
127	20
128	40
129	149
130	30
131	80
132	10
135	10
139	10
141	20
142	20
143	40
145	30
151	20
152	129
153	139
154	229
155	269
156	40
157	40
165	219
166	40
167	60
168	20
169	30
171	10
178	10
179	99
180	299
181	1019
182	239
183	3329
184	609
185	159
186	10
193	70
194	20
195	229
196	50
197	1059
198	2519
199	509
200	119
201	10
