Mass Spectrum: 1-Naphthalenamine, 4-nitro-
Formula: C10 H8 N2 O2
CAS: 776-34-1
Molecular weight: 188
Origin: Japan AIST/NIMC Database- Spectrum MS-NW-4238
m/z	RELATIVE INTENSITY
26	30
27	99
28	20
29	10
30	359
31	10
32	20
37	70
38	139
39	629
40	40
41	70
42	20
43	20
44	10
46	20
49	30
50	269
51	379
52	349
53	70
54	50
55	40
56	30
57	199
58	30
60	10
61	109
62	329
63	619
64	179
65	419
66	70
67	10
69	20
70	539
71	209
72	10
73	40
74	269
75	359
76	339
77	639
78	139
79	60
80	459
81	30
84	10
85	70
86	179
87	249
88	369
89	769
90	169
91	70
92	20
93	20
94	40
95	10
97	10
98	60
99	70
100	60
101	129
102	409
103	949
104	329
105	99
106	30
109	20
110	30
111	30
112	30
113	509
114	869
115	5709
116	2029
117	249
118	50
119	20
120	10
121	10
122	10
123	10
125	20
126	60
127	119
128	239
129	389
130	1719
131	479
132	169
133	40
134	20
138	20
139	40
140	1509
141	709
142	3669
143	619
144	70
145	30
146	10
153	10
154	10
155	209
156	239
157	109
158	4479
159	609
160	80
161	10
170	50
171	70
172	269
173	70
174	10
186	10
187	50
188	9999
189	1169
190	109
