Mass Spectrum: 3,4-Dimethoxyphenylacetone
Formula: C11 H14 O3
CAS: 776-99-8
Molecular weight: 194
Origin: Chuck Anderson, Aldrich Chemical Co.
m/z	RELATIVE INTENSITY
14	13
15	159
26	28
27	83
28	50
29	58
31	24
32	20
37	3
38	60
39	401
40	33
41	32
42	42
43	956
44	27
45	28
50	103
51	312
52	104
53	94
54	3
55	45
61	8
62	65
63	201
64	124
65	634
66	110
67	44
69	14
74	34
75	37
76	58
77	471
78	438
79	235
80	117
81	20
89	201
90	312
91	447
92	113
93	52
94	63
95	9
103	23
105	433
106	485
107	1081
108	359
109	52
118	92
119	48
120	31
121	46
122	54
133	21
135	382
136	134
137	193
138	9
151	9999
152	998
153	87
194	1548
195	179
196	21
