Mass Spectrum: Phenanthrene, 9,10-dihydro-
Formula: C14 H12
CAS: 776-35-2
Molecular weight: 180
Origin: NIST Mass Spectrometry Data Center, 1990.
m/z	RELATIVE INTENSITY
13	20
14	21
15	156
25	33
26	148
27	512
28	43
37	73
38	283
39	918
40	67
41	33
44	13
50	888
51	1086
52	230
53	64
59	21
61	150
62	662
63	1559
64	196
65	189
69	146
73	115
74	730
75	1208
76	2639
77	515
78	109
82	570
85	100
86	381
87	716
88	1418
89	3234
97	75
98	350
99	215
100	132
101	198
102	226
103	44
109	39
110	130
111	175
112	31
113	212
114	91
115	395
116	54
122	87
123	63
124	45
125	130
126	368
127	233
128	176
129	27
134	28
137	79
138	103
139	443
140	75
141	41
148	27
149	161
150	748
151	1188
152	1860
153	379
154	53
162	61
163	251
165	4243
166	592
167	37
174	149
175	313
176	1655
177	1489
178	6211
179	8921
180	9999
181	1399
182	125
