Mass Spectrum: 2,4-Undecadien-1-ol
Formula: C11 H20 O
CAS: 77657-78-4
Molecular weight: 168
Origin: NIST Mass Spectrometry Data Center, 1994
m/z	RELATIVE INTENSITY
15	146
18	41
26	163
27	3753
28	599
29	4527
30	130
31	1161
38	190
39	4108
40	774
41	9999
42	1294
43	3921
44	282
50	198
51	762
52	416
53	1652
54	1503
55	5765
56	1792
57	1626
58	94
62	55
63	194
64	73
65	1000
66	770
67	3807
68	1226
69	2313
70	2606
71	307
77	1595
78	516
79	3133
80	1158
81	1877
82	1344
83	4899
84	4176
85	447
86	55
91	618
92	99
93	541
94	199
95	1064
96	739
97	1161
98	880
99	59
105	56
107	143
108	72
109	179
110	46
111	214
112	88
113	196
121	102
124	377
125	99
139	33
150	304
151	72
168	579
169	75
