Mass Spectrum: 1-Benzyl-2,3,3-trimethyldiaziridine
Formula: C11 H16 N2
CAS: 77671-19-3
Molecular weight: 176
Origin: A.Pleshkova, Nesmeyanov Inst.Org.Elem.Cpds, Moscow
m/z	RELATIVE INTENSITY
51	1001
52	60
56	8708
57	871
58	601
59	90
65	1601
66	200
70	901
71	2202
72	130
77	1101
78	601
79	20
85	9999
86	1031
87	80
91	4404
92	500
93	70
99	1301
100	150
104	601
105	400
106	1601
107	200
119	801
120	200
146	400
147	300
161	400
162	40
175	400
176	601
177	10
