Mass Spectrum: Benzene, 1-chloro-4-nitro-2-(trifluoromethyl)-
Formula: C7 H3 Cl F3 N O2
CAS: 777-37-7
Molecular weight: 225
Origin: RADIAN CORP
m/z	RELATIVE INTENSITY
16	30
26	30
29	20
30	2950
31	210
35	110
36	40
37	290
38	240
39	70
44	30
46	1090
47	70
48	40
49	240
50	880
51	260
52	40
53	20
55	40
56	110
57	220
60	120
61	470
62	480
63	560
64	70
67	90
68	260
69	1930
70	30
71	40
72	190
73	960
74	3210
75	4030
76	250
77	20
79	90
80	180
81	310
82	50
83	20
84	450
85	570
86	280
87	370
88	190
89	50
90	30
91	450
92	270
93	1080
94	960
95	250
96	40
97	170
98	110
99	1270
100	130
101	30
102	10
103	120
104	170
105	130
106	80
107	50
108	170
109	1080
110	260
111	420
112	160
113	130
114	10
115	110
117	450
118	220
119	470
120	30
122	50
123	520
124	260
125	2660
126	270
127	20
128	90
129	1520
130	150
131	830
132	3620
133	330
134	10
135	60
138	40
139	10
141	80
142	10
143	3060
144	5150
145	410
146	20
147	630
148	190
149	220
150	60
153	170
155	50
157	30
158	70
159	990
160	570
161	360
162	180
166	20
167	3310
168	250
169	1050
170	70
173	20
175	20
177	30
179	9999
180	920
181	3510
182	270
193	20
195	4300
196	360
197	1390
198	110
206	1340
207	120
208	430
209	310
210	20
211	90
225	6630
226	550
227	2150
228	180
