Mass Spectrum: Benzene, (1-methylheptyl)-
Formula: C14 H22
CAS: 777-22-0
Molecular weight: 190
Origin: C.E.A., C.E.N., GRENOBLE, FRANCE
m/z	RELATIVE INTENSITY
27	250
28	60
29	210
39	160
40	20
41	350
42	40
43	200
44	10
50	30
51	120
52	30
53	50
54	10
55	100
56	20
57	30
63	30
64	10
65	90
66	10
67	10
69	20
70	10
71	10
75	10
76	20
77	440
78	160
79	430
80	30
83	10
89	20
90	10
91	1150
92	100
93	10
95	10
101	10
102	30
103	280
104	390
105	9999
106	1220
107	20
115	80
116	30
117	80
118	50
119	120
120	30
127	10
128	20
129	10
130	10
131	20
132	10
133	40
134	10
147	20
148	10
161	10
175	60
176	10
190	1000
191	150
192	10
