Mass Spectrum: Ammonium sulfamate
Formula: H6 N2 O3 S
CAS: 7773-06-0
Molecular weight: 114
Origin: Japan AIST/NIMC Database- Spectrum MS-NW- 338
m/z	RELATIVE INTENSITY
14	70
15	259
16	6439
17	9479
18	709
32	819
34	40
36	60
41	70
43	60
44	289
46	149
47	50
48	6229
49	80
50	309
55	70
56	30
57	60
63	90
64	9829
65	219
66	479
69	40
71	50
79	50
80	9999
81	139
82	499
83	40
96	429
97	99
98	40
