Mass Spectrum: Propanoic acid, 2-methyl-, 1-methyl-1-(4-methyl-3-cyclohexen-1-yl)ethyl ester
Formula: C14 H24 O2
CAS: 7774-65-4
Molecular weight: 224
Origin: Insect Chem. Ecol. Lab., USDA, Beltsville, MD 20705
m/z	RELATIVE INTENSITY
41	3321
43	9999
44	463
45	71
47	64
48	14
52	85
53	739
54	122
55	1405
56	173
57	380
58	24
59	1877
60	61
61	16
62	4
63	37
65	292
66	155
67	1213
68	606
69	1648
71	5551
72	198
73	61
74	6
75	55
77	843
79	2430
80	573
81	3495
82	496
83	477
87	30
88	56
89	263
91	1108
92	1569
93	7139
94	3738
95	3038
96	271
97	614
98	83
99	47
100	13
101	12
102	4
103	53
104	19
105	374
106	70
107	1690
108	681
109	4543
110	1623
111	603
112	95
113	31
114	4
115	64
116	10
117	56
118	13
119	998
121	7119
122	391
123	922
124	182
125	132
126	129
127	70
129	359
130	21
131	23
132	43
133	124
134	967
135	3043
136	7884
137	4786
138	486
139	138
140	36
141	24
142	9
143	10
145	9
147	74
148	55
149	63
150	481
151	406
152	2098
153	712
154	93
155	48
157	85
159	14
161	9
163	18
164	32
165	33
166	60
167	69
168	110
169	126
170	44
171	33
173	20
175	6
177	17
178	15
179	25
180	16
181	14
182	19
183	10
184	25
185	33
187	4
193	8
194	4
195	4
207	5
208	4
209	107
210	13
221	8
222	10
223	26
224	93
225	40
226	20
