Mass Spectrum: 3-Thiophenethiol
Formula: C4 H4 S2
CAS: 7774-73-4
Molecular weight: 116
Origin: G.A.M.S., PARIS, FRANCE.
m/z	RELATIVE INTENSITY
24	13
25	42
26	117
27	111
28	76
29	25
30	2
31	3
32	264
33	117
34	82
35	10
36	61
37	300
38	425
39	1238
40	265
41	71
42	22
43	50
44	525
45	3238
46	230
47	178
48	42
49	122
50	235
51	204
52	194
53	26
54	10
55	49
56	175
57	693
58	1217
59	222
60	66
61	30
62	24
63	48
64	244
65	98
66	84
67	23
68	200
69	1328
70	486
71	8095
72	1259
73	401
74	64
75	11
76	543
77	113
78	68
79	13
80	61
81	339
82	375
83	270
84	433
85	43
86	25
87	8
88	878
89	386
90	230
91	555
92	359
93	32
94	4
95	11
96	5
97	72
98	16
99	8
100	24
101	59
102	8
103	8
104	2
105	6
106	6
107	2
108	10
109	36
110	148
111	17
112	29
113	4
114	32
115	894
116	9999
117	671
118	905
119	50
120	35
