Mass Spectrum: 1-Tetradecanol, TBDMS derivative
Formula: C20 H44 O Si
CAS: 77774-34-6
Molecular weight: 328
Origin: NIST Mass Spectrometry Data Center
m/z	RELATIVE INTENSITY
27	90
28	20
29	310
30	10
31	10
39	110
41	931
42	170
43	1261
44	50
45	170
46	10
47	170
48	10
53	60
54	90
55	1021
56	180
57	1371
58	220
59	611
60	80
61	500
62	30
63	20
65	10
66	10
67	240
68	90
69	1211
70	100
71	500
72	70
73	1591
74	220
75	6646
76	500
77	340
78	20
79	50
80	10
81	220
82	90
83	1641
84	120
85	380
86	50
87	220
88	110
89	1782
90	150
91	70
93	20
94	10
95	170
96	50
97	1541
98	130
99	360
100	80
101	871
102	100
103	70
104	10
107	10
109	80
110	20
111	631
112	60
113	180
114	30
115	701
116	80
117	80
118	10
119	10
121	10
123	30
124	10
125	170
126	20
127	80
128	10
129	280
130	40
131	80
132	20
133	20
137	10
139	50
140	10
141	40
142	10
143	120
144	20
145	50
146	10
151	10
153	20
155	20
157	120
158	20
159	20
167	10
169	10
171	100
172	20
173	10
185	120
186	20
187	10
199	100
200	20
201	10
213	70
214	10
215	10
227	10
229	10
255	60
256	10
268	10
269	40
271	9999
272	2492
273	641
274	90
275	10
313	100
314	30
315	10
327	10
