Mass Spectrum: Propane, 1,2-dimethoxy-
Formula: C5 H12 O2
CAS: 7778-85-0
Molecular weight: 104
Origin: Chuck Anderson, Aldrich Chemical Co.
m/z	RELATIVE INTENSITY
14	37
15	649
16	18
17	8
26	61
27	335
28	179
29	2231
30	93
31	2048
32	27
33	107
37	16
38	46
39	411
40	86
41	1097
42	432
43	1012
44	75
45	2048
46	50
47	55
53	13
55	36
56	46
57	127
58	914
59	9999
60	338
61	28
71	148
72	73
73	216
74	30
75	1
87	3
89	61
103	7
104	112
105	5
