Mass Spectrum: Decanal dimethyl acetal
Formula: C12 H26 O2
CAS: 7779-41-1
Molecular weight: 202
Origin: W.Jennings, T.Shibamoto
m/z	RELATIVE INTENSITY
23	190
26	70
27	70
29	1291
30	190
31	1992
33	70
36	280
39	70
40	280
41	1411
42	190
43	2312
45	3994
46	190
47	4444
48	70
49	490
53	70
54	591
55	4724
56	280
57	3533
58	5095
59	1992
60	70
65	470
67	1291
68	1912
69	4714
70	480
71	4884
72	591
73	70
74	190
75	9999
76	3393
77	1111
80	70
81	1291
82	1782
83	4914
84	991
85	1111
95	1031
96	911
97	3213
98	390
99	70
109	390
110	490
111	70
113	280
127	190
138	591
139	190
170	190
171	2622
172	721
174	10
201	190
202	20
