Mass Spectrum: Benzoic acid, 2-amino-, 2-methylpropyl ester
Formula: C11 H15 N O2
CAS: 7779-77-3
Molecular weight: 193
Origin: NIST Mass Spectrometry Data Center, 2010
m/z	RELATIVE INTENSITY
15	20
26	30
27	300
28	160
29	530
30	30
31	30
33	10
37	30
38	120
39	921
40	100
41	931
42	120
43	250
44	40
45	20
46	20
50	70
51	80
52	280
53	110
54	40
55	90
56	60
57	280
58	20
59	10
60	20
61	20
62	80
63	340
64	420
65	2092
66	290
67	20
68	10
72	10
73	10
74	30
75	30
76	50
77	40
78	20
79	10
80	30
81	10
88	10
89	20
90	110
91	430
92	2893
93	500
94	30
103	10
104	10
105	10
106	10
108	10
117	10
118	20
119	9999
120	3873
121	310
122	20
130	10
132	20
136	80
137	3843
138	300
139	20
146	50
147	10
150	10
160	20
178	10
192	10
193	1902
194	230
195	20
