Mass Spectrum: Benzeneethanol, .alpha.-(2-methylpropyl)-
Formula: C12 H18 O
CAS: 7779-78-4
Molecular weight: 178
Origin: W.Jennings, T.Shibamoto
m/z	RELATIVE INTENSITY
31	80
41	1712
43	5935
44	210
45	5725
46	210
57	1141
58	80
65	190
68	80
69	6556
70	751
71	410
77	80
79	310
85	210
86	80
87	1832
88	80
90	921
91	5655
92	9999
93	3573
94	80
103	1251
104	190
117	330
121	2122
122	80
145	190
