Mass Spectrum: Hexanoic acid, 1-ethenyl-1,5-dimethyl-4-hexenyl ester
Formula: C16 H28 O2
CAS: 7779-23-9
Molecular weight: 252
Origin: W.Jennings, T.Shibamoto
m/z	RELATIVE INTENSITY
41	480
43	2392
55	591
60	390
67	280
68	1091
69	2392
70	70
71	1792
72	70
73	70
77	70
79	791
80	7397
81	2392
82	280
83	390
91	480
92	3113
93	9999
94	2192
95	390
99	2392
100	70
105	190
107	1091
108	190
109	190
121	4114
122	280
136	1391
137	480
139	70
154	70
161	70
189	70
