Mass Spectrum: Benzoic acid, 2-amino-, cyclohexyl ester
Formula: C13 H17 N O2
CAS: 7779-16-0
Molecular weight: 219
Origin: RADIAN CORP
m/z	RELATIVE INTENSITY
26	10
27	300
28	120
29	310
38	80
39	860
40	100
41	1210
42	150
43	120
44	30
50	50
51	80
52	210
53	230
54	190
55	950
56	60
57	30
62	40
63	230
64	330
65	1770
66	250
67	190
75	10
76	40
77	80
78	10
79	100
80	40
81	80
82	20
83	60
90	80
91	310
92	2280
93	360
94	30
119	9999
120	2420
121	220
132	20
137	6730
138	560
139	50
158	40
219	1090
220	160
