Mass Spectrum: 1-Penten-3-one, 1-(2,6,6-trimethyl-2-cyclohexen-1-yl)-
Formula: C14 H22 O
CAS: 7779-30-8
Molecular weight: 206
Origin: NIST Mass Spectrometry Data Center, 1998.
m/z	RELATIVE INTENSITY
15	20
26	40
27	570
29	1280
30	30
31	10
38	30
39	930
40	150
41	1820
42	100
43	470
44	20
45	10
50	80
51	420
52	210
53	900
54	100
55	1480
56	310
57	2860
58	120
59	100
60	10
62	30
63	160
64	70
65	860
66	190
67	500
68	60
69	670
70	40
71	30
72	20
73	10
74	20
75	20
76	20
77	3200
78	680
79	1100
80	210
81	590
82	60
83	100
84	10
85	140
86	20
87	10
89	70
91	3630
92	1560
93	7529
94	730
95	370
96	80
97	40
98	20
99	10
100	10
101	10
102	40
103	260
104	80
105	720
106	150
107	1100
108	230
109	660
110	100
111	50
112	10
113	30
115	240
116	80
117	250
118	50
119	550
120	10
121	9999
122	1010
123	1410
124	130
125	80
126	250
127	50
128	70
129	60
130	40
131	120
132	50
133	290
134	340
135	4740
136	540
137	110
138	40
139	10
141	10
143	20
144	30
145	130
146	30
147	70
148	40
149	680
150	3900
151	780
152	70
158	10
159	100
160	20
161	30
162	10
163	120
164	40
165	10
173	90
174	10
175	20
176	20
177	300
178	50
188	10
189	10
191	820
192	110
193	10
206	1530
207	240
208	20
