Mass Spectrum: 2-Furanpropanoic acid, 3-methylbutyl ester
Formula: C12 H18 O3
CAS: 7779-67-1
Molecular weight: 210
Origin: W.Jennings, T.Shibamoto
m/z	RELATIVE INTENSITY
26	90
29	220
41	651
42	210
43	9999
44	490
47	80
53	180
54	180
55	1832
63	180
65	70
66	70
67	831
68	831
69	721
70	721
71	6316
72	490
81	6095
82	1211
83	70
94	6496
95	2382
96	390
97	3093
98	190
123	2112
124	520
139	2092
140	4614
141	1031
142	591
153	90
210	2492
211	591
