Mass Spectrum: Dimethyl diphenylsilane
Formula: C14 H16 Si
CAS: 778-24-5
Molecular weight: 212
Origin: Japan AIST/NIMC Database- Spectrum MS-NW-8533
m/z	RELATIVE INTENSITY
27	10
28	30
29	60
31	20
39	60
42	10
43	499
44	30
45	30
50	30
51	99
52	10
53	439
54	50
55	70
57	50
58	40
59	40
63	20
65	70
66	50
67	129
68	10
69	80
75	10
76	10
77	99
78	40
79	219
80	20
81	50
83	30
84	10
89	20
90	20
91	239
92	30
93	349
94	40
95	70
96	10
97	80
98	119
101	10
102	10
103	109
104	40
105	969
106	199
107	219
108	20
109	30
115	30
117	70
118	20
119	419
120	99
121	70
122	10
128	20
129	70
130	10
131	50
133	40
134	20
135	609
136	80
137	20
139	10
141	10
142	10
143	40
145	50
151	10
152	60
153	50
154	60
155	99
156	10
157	10
165	339
166	60
167	80
168	10
169	40
171	10
179	40
180	149
181	349
182	80
183	60
184	10
191	10
192	10
193	119
194	30
195	489
196	119
197	9999
198	1939
199	489
200	50
211	10
212	1339
213	269
214	70
