Mass Spectrum: .alpha.,.alpha.,.alpha.,2,3,5,6-Heptafluoro-p-xylene
Formula: C8 H3 F7
CAS: 778-35-8
Molecular weight: 232
Origin: Chuck Anderson, Aldrich Chemical Co.
m/z	RELATIVE INTENSITY
14	34
17	7
18	12
20	3
27	51
31	622
32	25
37	43
38	44
39	44
44	10
50	97
51	250
55	50
56	112
57	197
61	179
62	174
63	161
68	156
69	1194
70	37
73	37
74	303
75	779
76	42
79	197
80	235
81	531
85	93
86	134
87	95
88	79
91	33
92	316
93	1194
94	199
95	59
96	44
97	34
98	237
99	667
100	60
101	48
103	102
104	132
105	166
106	278
110	98
111	306
112	518
113	538
116	38
117	597
118	76
119	146
122	67
123	414
124	122
125	164
129	66
130	143
131	159
132	602
133	40
136	36
137	336
141	184
142	97
143	1750
144	204
148	74
150	75
155	285
156	31
161	1184
162	678
163	9999
164	728
167	37
168	100
174	38
179	94
180	387
181	3724
182	2216
183	153
186	57
187	59
192	79
193	75
199	105
205	97
211	64
212	399
213	4048
214	331
217	184
230	364
231	3440
232	7732
233	624
