Mass Spectrum: 4-Cyano-3-nitrobenzotrifluoride
Formula: C8 H3 F3 N2 O2
CAS: 778-94-9
Molecular weight: 216
Origin: Chuck Anderson, Aldrich Chemical Co.
m/z	RELATIVE INTENSITY
17	14
18	61
26	73
27	67
28	109
30	9999
31	412
32	43
33	27
36	53
37	351
38	360
39	98
44	49
46	677
48	28
49	147
50	1145
51	373
52	101
56	92
57	451
60	26
61	219
62	260
63	338
64	256
65	9
68	84
69	1362
70	46
72	26
73	197
74	555
75	2152
76	316
77	35
79	32
80	54
81	175
82	190
83	11
85	56
86	118
87	253
88	503
89	92
90	39
92	57
93	466
94	199
95	175
98	43
99	1102
100	1805
101	377
102	39
104	17
105	74
106	195
107	66
108	642
109	55
111	20
112	89
113	88
117	83
118	38
119	271
120	1892
121	135
123	127
124	373
125	288
126	72
131	262
132	145
136	64
138	1032
139	243
140	56
143	1709
144	694
145	54
150	1058
151	572
152	47
157	41
158	772
159	76
167	83
168	11
169	4
170	5034
171	418
172	227
186	405
187	40
197	1067
198	93
200	122
215	33
216	4305
217	394
218	29
