Mass Spectrum: Hexamethylcyclohexane-1,3,5-trione
Formula: C12 H18 O3
CAS: 778-18-7
Molecular weight: 210
Origin: NIST Mass Spectrometry Data Center, 1990.
m/z	RELATIVE INTENSITY
27	296
28	29
29	73
39	879
40	364
41	2438
42	1968
43	434
51	54
52	28
53	191
54	55
55	295
56	57
65	53
66	36
67	200
68	28
69	1472
70	9999
71	522
77	97
79	95
81	789
82	71
83	168
84	1663
85	128
93	40
94	39
95	227
96	349
97	209
98	50
99	112
111	63
112	144
113	49
125	42
139	85
140	126
167	257
168	31
182	1192
183	135
210	711
211	97
