Mass Spectrum: 4-Bromo-2-methyl-6-nitroaniline
Formula: C7 H7 Br N2 O2
CAS: 77811-44-0
Molecular weight: 230
Origin: NIST Mass Spectrometry Data Center, 1994
m/z	RELATIVE INTENSITY
14	74
15	202
16	112
17	96
18	180
19	64
26	263
27	1011
28	2074
29	243
30	2730
32	68
37	530
38	1112
39	1689
40	228
41	358
42	422
43	66
44	138
45	66
46	428
49	272
50	2133
51	3980
52	3239
53	1168
54	859
55	179
61	391
62	863
63	1312
64	645
65	1463
66	1200
67	156
73	236
74	804
75	1139
76	1813
77	4984
78	5524
79	868
80	196
81	163
82	93
85	78
86	143
87	184
88	164
89	280
90	483
91	158
92	369
93	1036
94	147
99	88
100	129
101	58
102	469
103	674
104	4329
105	5524
106	654
107	95
115	306
116	320
117	364
118	106
119	167
120	78
121	223
122	47
131	82
132	97
133	533
134	155
143	82
155	121
156	70
157	831
158	176
159	739
160	99
169	82
171	116
172	672
173	144
174	781
175	62
181	73
182	452
183	619
184	3649
185	813
186	3110
187	302
200	382
202	401
212	121
213	355
214	246
215	365
216	140
230	9999
231	902
232	8590
233	917
234	77
