Mass Spectrum: Hydrogen azide
Formula: H N3
CAS: 7782-79-8
Molecular weight: 43
m/z	RELATIVE INTENSITY
14	2532
15	4774
16	150
28	2823
29	1702
30	40
42	821
43	9999
44	310
45	10
