Mass Spectrum: Chlorine
Formula: Cl2
CAS: 7782-50-5
Molecular weight: 70
Origin: Crystal Harrison, SCOTT SPECIALTY GASES Inc., NJ
m/z	RELATIVE INTENSITY
35	8287
37	2642
70	9999
72	6385
74	1020
