Mass Spectrum: Benzeneacetic acid, .alpha.-methyl-, (R)-
Formula: C9 H10 O2
CAS: 7782-26-5
Molecular weight: 150
Origin: NIST Mass Spectrometry Data Center, 1994
m/z	RELATIVE INTENSITY
13	26
14	49
15	49
17	31
18	48
26	75
27	671
28	64
37	97
38	215
39	814
40	54
43	113
44	59
45	728
50	828
51	1686
52	366
53	250
55	53
61	99
62	257
63	585
64	98
65	251
66	42
73	76
74	156
75	207
76	214
77	2754
78	1063
79	2418
80	160
86	41
87	36
89	257
90	108
91	1092
92	99
98	31
102	197
103	1476
105	9999
106	1063
107	137
150	2630
151	262
