Mass Spectrum: Uranium hexafluoride
Formula: F6 U
CAS: 7783-81-5
Molecular weight: 352
Origin: GOODYEAR ATOMIC CORPORATION, PORTSMOUTH, OHIO
m/z	RELATIVE INTENSITY
138	345
157	279
235	4
238	768
254	11
257	1610
273	20
276	3060
292	18
295	2680
311	18
314	2610
330	73
333	9999
352	38
