Mass Spectrum: Nitrogen trifluoride
Formula: F3 N
CAS: 7783-54-2
Molecular weight: 71
m/z	RELATIVE INTENSITY
14	881
15	10
19	611
26	10
33	3803
34	10
52	9999
53	40
71	3283
72	10
