Mass Spectrum: Trisilane
Formula: H8 Si3
CAS: 7783-26-8
Molecular weight: 92
Origin: J.W.PINSON UNIV. S. MISSISSIPPI, HATTIESBURG, MISS., USA
m/z	RELATIVE INTENSITY
27	720
28	880
29	180
30	300
56	1390
57	2290
58	5660
59	2050
60	9999
61	1810
62	600
63	60
84	1070
85	1270
86	460
87	360
88	490
89	430
90	590
91	540
92	480
93	110
94	50
