Mass Spectrum: Oxygen difluoride
Formula: F2 O
CAS: 7783-41-7
Molecular weight: 54
m/z	RELATIVE INTENSITY
16	4414
19	971
35	9999
36	10
54	6206
55	10
