Mass Spectrum: Molybdenum hexafluoride
Formula: F6 Mo
CAS: 7783-77-9
Molecular weight: 212
Origin: GOODYEAR ATOMIC CORPORATION, PORTSMOUTH, OHIO
m/z	RELATIVE INTENSITY
46	136
47	104
48	161
49	238
50	84
57	248
58	131
65	322
66	208
67	347
68	496
69	248
76	459
77	236
84	402
85	385
86	447
87	657
88	248
92	1140
94	719
95	1240
96	1310
97	744
98	1880
100	769
111	1250
113	777
114	1360
115	1400
116	816
117	2010
119	820
130	1180
132	1050
133	1820
134	1880
135	1100
136	2720
138	1100
149	1550
151	980
152	1660
153	1750
154	1020
155	2510
157	1020
168	2180
170	1340
171	2310
172	2410
173	1390
174	3500
176	1400
187	5910
189	3700
190	6350
191	6670
192	3870
193	9999
195	3920
