Mass Spectrum: Thionyl fluoride
Formula: F2 O S
CAS: 7783-42-8
Molecular weight: 86
m/z	RELATIVE INTENSITY
16	330
19	390
24	390
25	10
32	761
34	40
35	70
36	10
48	2332
49	30
50	120
51	360
53	10
67	9999
68	90
69	460
70	170
86	5565
87	50
88	250
