Mass Spectrum: Sulfur tetrafluoride
Formula: F4 S
CAS: 7783-60-0
Molecular weight: 108
m/z	RELATIVE INTENSITY
19	751
32	671
51	851
53	40
70	4554
71	40
72	200
89	9999
90	70
91	430
108	90
