Mass Spectrum: Silicon tetrafluoride
Formula: F4 Si
CAS: 7783-61-1
Molecular weight: 104
m/z	RELATIVE INTENSITY
14	60
15	10
19	190
28	400
29	20
30	10
33	370
34	10
43	10
47	320
48	20
49	20
66	50
67	10
68	10
85	9999
86	520
87	340
104	150
105	10
106	10
