Mass Spectrum: Tungsten hexafluoride
Formula: F6 W
CAS: 7783-82-6
Molecular weight: 298
Origin: GOODYEAR ATOMIC CORPORATION, PORTSMOUTH, OHIO
m/z	RELATIVE INTENSITY
110	68
111	79
112	73
120	86
129	274
130	314
131	298
139	276
182	297
183	160
184	346
186	409
201	448
202	265
203	536
205	503
220	1060
221	586
222	1220
224	1150
239	1100
240	617
241	1290
243	1200
258	1220
259	667
260	1430
262	1330
275	800
277	8640
278	4640
279	9999
281	9330
