Mass Spectrum: Phosphorus trifluoride
Formula: F3 P
CAS: 7783-55-3
Molecular weight: 88
Origin: CBDCOM/ERDEC, Edgewood, MD
m/z	RELATIVE INTENSITY
19	390
31	490
50	890
69	9999
88	4293
