Mass Spectrum: Arsenic trichloride
Formula: As Cl3
CAS: 7784-34-1
Molecular weight: 180
Origin: Eric Wils, TNO Prins Maurits Laboratory, The Netherlands.
m/z	RELATIVE INTENSITY
35	1651
37	540
75	711
110	991
112	320
145	9999
147	6616
149	1041
180	4464
182	4224
184	1351
