Mass Spectrum: Arsine
Formula: As H3
CAS: 7784-42-1
Molecular weight: 78
Origin: LRL 0008
m/z	RELATIVE INTENSITY
2	120
35	10
36	60
37	10
38	180
39	10
75	3533
76	9999
77	2382
78	7227
