Mass Spectrum: (1R)-2,6,6-Trimethylbicyclo[3.1.1]hept-2-ene
Formula: C10 H16
CAS: 7785-70-8
Molecular weight: 136
Origin: Japan AIST/NIMC Database- Spectrum MS-NW-9493
m/z	RELATIVE INTENSITY
14	20
15	20
26	20
27	609
28	169
29	449
30	10
38	40
39	939
40	159
41	1299
42	80
43	779
44	20
50	80
51	349
52	149
53	629
54	80
55	579
56	40
57	30
58	40
59	20
62	30
63	109
64	30
65	409
66	119
67	799
68	469
69	159
70	20
74	10
75	20
76	10
77	2229
78	329
79	1889
80	909
81	389
82	70
83	40
84	10
89	40
90	10
91	2669
92	3219
93	9999
94	989
95	199
96	20
97	10
102	10
103	129
104	40
105	929
106	259
107	569
108	139
109	90
110	10
115	40
116	10
117	40
119	199
120	30
121	1399
122	149
123	10
134	10
135	20
136	659
137	90
