Mass Spectrum: 2,6-Nonadien-1-ol
Formula: C9 H16 O
CAS: 7786-44-9
Molecular weight: 140
Origin: FOOD RESEARCH REPORT 119, K.E. MURRAY & COLLEAGUES, DIV. OF FOOD RESEARCH, CSIRO, AUSTRALIA
m/z	RELATIVE INTENSITY
26	300
27	3400
29	2400
30	200
31	1200
38	200
39	3400
40	600
41	9999
42	900
43	2100
45	500
46	300
50	200
51	600
52	300
53	1500
54	2800
55	2000
56	300
57	700
58	100
63	200
65	500
66	600
67	2300
68	3000
69	4000
70	1000
71	300
73	100
77	1000
78	600
79	2500
80	1000
81	800
82	400
83	200
85	100
91	700
92	200
93	1200
94	400
95	400
96	200
97	100
105	100
107	400
109	300
122	400
