Mass Spectrum: Mevinphos
Formula: C7 H13 O6 P
CAS: 7786-34-7
Molecular weight: 224
Origin: NIST Mass Spectrometry Data Center, 1990.
m/z	RELATIVE INTENSITY
12	13
13	19
14	122
15	2093
16	32
17	8
18	30
24	5
26	79
27	306
28	262
29	497
30	82
31	324
32	29
33	154
34	7
36	6
37	46
38	215
39	798
40	210
41	164
42	261
43	1172
44	30
45	112
46	6
47	402
48	45
49	44
50	18
51	11
52	14
53	78
54	41
55	112
56	34
57	15
58	11
59	474
60	18
61	9
62	10
63	64
64	26
65	110
66	453
67	1655
68	318
69	630
70	41
71	33
74	10
77	29
79	831
80	57
81	81
82	23
83	111
84	63
85	27
86	8
87	22
88	9
89	14
93	204
95	363
96	231
97	45
98	47
99	78
100	25
101	11
104	6
105	2
106	12
109	2925
110	136
111	18
112	34
113	156
115	9
116	11
119	30
120	13
121	8
122	6
123	7
124	21
127	9999
128	229
129	84
130	7
133	7
134	12
135	7
136	9
141	285
142	4
143	5
147	14
149	31
150	16
151	22
160	38
161	9
164	1031
165	124
166	12
167	7
177	11
179	9
192	2978
193	711
194	53
195	11
209	17
224	141
225	11
