Mass Spectrum: Butanoic acid, 3-methyl-, octyl ester
Formula: C13 H26 O2
CAS: 7786-58-5
Molecular weight: 214
Origin: V.G. Zaikin, R.S.Borisov, TIPS RAS, Moscow, Russia
m/z	RELATIVE INTENSITY
26	120
27	721
29	961
31	40
35	20
36	430
38	40
39	591
40	160
41	3083
42	1571
43	3773
44	1051
45	60
48	20
53	120
54	280
55	2642
56	2793
57	6846
58	300
59	260
60	1121
61	1521
63	10
64	50
66	10
67	350
68	781
69	2262
70	4114
71	2612
72	100
77	10
81	100
82	1201
83	3773
84	3964
85	7186
86	460
87	1161
88	70
93	80
95	20
97	400
100	110
101	110
102	641
103	9999
104	561
105	30
110	40
111	80
112	4084
113	360
115	50
116	60
119	10
127	50
128	10
129	100
143	70
157	160
158	110
