Mass Spectrum: .alpha.-Chloroethyltrimethylsilane
Formula: C5 H13 Cl Si
CAS: 7787-87-3
Molecular weight: 136
Origin: NIST Mass Spectrometry Data Center, 1994
m/z	RELATIVE INTENSITY
14	49
15	337
16	6
25	11
26	167
27	865
28	375
29	565
30	78
33	13
35	17
36	25
37	17
38	25
39	109
40	13
41	90
42	417
43	1829
44	401
45	1845
46	136
47	59
49	8
51	7
53	313
54	83
55	303
56	55
57	149
58	364
59	292
60	34
61	35
62	7
63	682
64	98
65	829
66	115
67	264
68	21
69	31
70	38
71	48
73	9999
74	686
75	308
76	23
77	57
78	132
79	350
80	64
81	125
82	9
83	13
85	91
86	20
90	9
91	18
93	3638
94	300
95	1262
96	85
97	38
105	35
107	15
108	124
109	12
110	48
119	15
121	29
136	23
138	11
