Mass Spectrum: Chloromethyl pentanoate
Formula: C6 H11 Cl O2
CAS: 77877-94-2
Molecular weight: 150
Origin: ASES Database, Dalian Institute, P.R. China
m/z	RELATIVE INTENSITY
39	1451
40	130
41	5294
42	3292
43	3343
44	1060
45	330
49	2302
50	60
51	800
52	130
53	330
55	3242
56	1681
57	5645
58	600
59	330
72	6896
73	330
83	330
84	670
85	9999
86	660
93	320
108	7616
109	400
110	2522
111	60
121	720
123	130
