Mass Spectrum: Methyl 2-chloroheptadecanoate
Formula: C18 H35 Cl O2
CAS: 77877-99-7
Molecular weight: 318
Origin: E.Stenhagen,Z.Anal.Chem, 8,109(1964)
m/z	RELATIVE INTENSITY
17	170
18	761
19	40
27	100
28	170
29	310
39	100
41	1051
42	210
43	1682
44	230
53	90
54	90
55	1391
56	350
57	1391
58	20
59	641
67	340
68	170
69	791
70	210
71	761
73	20
74	470
75	130
79	50
81	530
82	170
83	581
84	360
85	510
87	2222
88	150
89	80
91	50
93	40
94	20
95	711
96	500
97	771
98	721
99	190
100	80
101	430
102	20
103	90
105	60
107	80
108	9999
109	841
110	4234
111	561
112	230
113	681
114	130
115	230
116	50
117	60
121	3603
122	100
123	1541
124	240
125	250
126	80
127	530
128	210
129	390
130	340
131	120
133	50
135	160
137	340
138	200
139	150
140	50
141	460
142	50
143	921
144	80
145	60
147	80
148	20
149	280
150	561
151	280
152	450
153	120
155	190
157	340
158	20
159	40
161	50
163	5055
164	470
165	1842
166	561
167	100
169	100
171	190
172	40
175	40
177	4724
178	340
179	1591
180	80
183	40
185	1141
186	190
191	100
193	40
199	1061
200	130
205	300
206	170
207	160
208	490
209	60
213	420
214	50
219	611
220	20
221	200
222	40
227	80
228	40
232	40
233	540
234	20
235	160
239	50
241	2993
242	470
247	40
250	1461
251	270
255	1772
256	270
261	130
275	160
282	60
283	1551
284	220
289	80
318	2672
319	561
320	861
321	130
