Mass Spectrum: Digermane, 1,1,1-triethyl-2,2,2-trimethyl-
Formula: C9 H24 Ge2
CAS: 7788-37-6
Molecular weight: 280
m/z	RELATIVE INTENSITY
74	290
75	721
77	430
89	3093
91	1732
103	1802
104	581
105	4894
119	5405
133	4604
147	941
148	140
149	140
161	2012
163	651
165	220
177	581
179	941
181	1221
193	941
195	9999
196	721
209	3453
223	8998
224	721
237	1802
251	9649
252	651
265	861
280	1942
