Mass Spectrum: Chromyl fluoride
Formula: Cr F2 O2
CAS: 7788-96-7
Molecular weight: 122
Origin: GOODYEAR ATOMIC CORPORATION, PORTSMOUTH, OHIO
m/z	RELATIVE INTENSITY
26	349
27	3
33	3
34	132
35	10
36	5
42	10
44	16
45	5
50	1320
52	3860
53	458
54	95
66	34
68	820
69	225
70	29
71	2635
72	9
73	61
84	79
85	222
87	2310
88	778
89	58
90	9999
91	1130
92	272
101	87
103	1920
104	415
105	48
106	201
107	434
108	101
120	219
122	4670
123	501
124	132
