Mass Spectrum: Propane, 1,1,3-triethoxy-
Formula: C9 H20 O3
CAS: 7789-92-6
Molecular weight: 176
Origin: Chuck Anderson, Aldrich Chemical Co.
m/z	RELATIVE INTENSITY
14	13
15	107
16	9
19	285
25	6
26	101
27	1011
28	407
29	3094
30	190
31	3333
32	42
33	13
38	10
39	124
40	59
41	675
42	161
43	1011
44	833
45	3142
47	8475
48	101
49	35
53	10
54	11
55	285
56	116
57	2130
58	1345
59	9999
60	366
61	72
69	16
70	8
71	226
72	202
73	1011
75	5570
76	171
77	26
83	32
84	5
85	964
86	952
87	6380
88	318
89	37
101	729
103	8094
104	401
105	41
129	135
130	279
131	1130
132	86
133	6
147	377
148	29
175	22
