Mass Spectrum: (Z)6,(Z)9-Pentadecadien-1-ol
Formula: C15 H28 O
CAS: 77899-11-7
Molecular weight: 224
Origin: B.V. BURGER, DEP. CHEM., UNIV. STELLENBOSCH, SOUTH AFRIC
m/z	RELATIVE INTENSITY
41	7000
42	650
43	2820
45	210
53	1260
54	5380
55	6820
56	760
57	1180
58	220
65	510
66	900
67	9999
68	4230
69	3140
70	730
71	770
72	110
77	1260
78	620
79	5460
80	4150
81	6630
82	3790
83	1330
84	650
85	500
91	1180
92	280
93	3190
94	1440
95	3640
96	2440
97	950
98	1120
99	200
105	290
106	120
107	1200
108	720
109	1180
110	1260
111	690
112	280
119	100
121	1010
122	410
123	350
124	510
125	200
135	660
136	210
137	200
138	120
149	200
150	110
206	50
224	320
