Mass Spectrum: Salicylidene aniline
Formula: C13 H11 N O
CAS: 779-84-0
Molecular weight: 197
Origin: NIST Mass Spectrometry Data Center
m/z	RELATIVE INTENSITY
26	50
27	270
29	20
37	90
38	350
39	1381
40	140
41	70
42	20
43	10
49	30
50	931
51	4074
52	701
53	220
54	30
55	80
57	40
58	90
61	60
62	230
63	751
64	490
65	981
66	370
67	40
68	10
70	180
71	120
73	20
74	270
75	310
76	450
77	6996
78	1461
79	100
82	50
83	931
86	20
87	50
88	60
89	200
90	190
91	510
92	290
93	100
94	470
95	30
98	290
100	10
101	40
102	550
103	150
104	1151
105	200
106	10
113	60
114	90
115	671
116	120
117	120
118	30
119	510
120	2432
121	190
122	10
125	10
126	40
127	70
128	100
129	30
130	70
131	10
132	20
137	10
138	10
139	310
140	200
141	520
142	170
143	70
144	10
150	30
151	260
152	290
153	100
154	100
155	10
156	10
164	10
165	10
166	260
167	1281
168	1692
169	280
170	40
176	10
177	90
178	130
179	70
180	981
181	400
182	50
194	20
196	9709
197	9999
198	1381
199	110
