Mass Spectrum: Antimony triiodide
Formula: I3 Sb
CAS: 7790-44-5
Molecular weight: 502
Origin: K. MATSUMOTO, DEP. SYNTH. CHEM., NAGOYA UNIV., CHIKUSA-KU,JP+
m/z	RELATIVE INTENSITY
121	2860
123	2200
127	9999
248	2420
250	1890
254	660
375	4290
377	3190
502	3630
504	2640
