Mass Spectrum: Dichlorine monoxide
Formula: Cl2 O
CAS: 7791-21-1
Molecular weight: 86
Origin: I.P.FISHER ROCKET PROPULSION ESTAB., WESTCOTT, BUCKS., UK
m/z	RELATIVE INTENSITY
35	70
37	70
51	9999
53	3340
70	540
72	360
74	50
86	4350
88	2830
90	470
