Mass Spectrum: (4R,5S)-(+)-4-Methyl-5-phenyl-2-oxazolidinone
Formula: C10 H11 N O2
CAS: 77943-39-6
Molecular weight: 177
Origin: NIST Mass Spectrometry Data Center, 1994
m/z	RELATIVE INTENSITY
12	21
15	466
18	80
26	156
27	692
28	2288
29	273
30	59
37	56
38	217
39	918
40	222
41	239
42	1468
43	1200
44	557
49	42
50	770
51	1756
52	467
53	128
54	52
55	87
56	127
57	44
59	222
61	64
62	262
63	725
64	256
65	511
66	49
70	153
71	26
73	32
74	147
75	152
76	207
77	2484
78	642
79	5786
80	407
81	43
86	39
87	38
89	951
90	588
91	936
92	79
102	50
103	141
104	154
105	1468
106	50
107	9999
108	795
109	64
115	139
116	72
117	431
118	326
119	44
130	79
131	34
132	121
133	53
177	1090
178	137
