Mass Spectrum: 2-Methyl-2,3-pentanediol
Formula: C6 H14 O2
CAS: 7795-80-4
Molecular weight: 118
Origin: R.ERRA BALSELLS,DEP. QUIM. ORG.,CITY UNIV. BUENOS AIRES,ARGENT
m/z	RELATIVE INTENSITY
41	1900
43	3700
44	800
45	1500
55	700
57	1100
58	1500
59	9999
70	700
71	1100
85	300
89	400
