Mass Spectrum: Tetraethoxymethane
Formula: C9 H20 O4
CAS: 78-09-1
Molecular weight: 192
Origin: Japan AIST/NIMC Database- Spectrum MS-NW-8990
m/z	RELATIVE INTENSITY
15	50
26	60
27	559
28	229
29	2349
30	80
31	879
32	10
39	10
41	90
42	30
43	219
44	80
45	1669
46	129
47	969
48	20
55	40
56	30
57	80
59	80
63	9189
64	119
65	50
67	10
69	60
70	20
71	40
72	10
73	40
74	40
75	219
76	10
77	10
81	10
82	10
83	20
84	10
85	20
87	10
89	10
90	20
91	7029
92	249
93	40
95	10
96	10
97	20
99	10
102	179
103	60
108	10
110	10
111	20
112	10
119	3939
120	229
121	30
125	10
127	30
146	20
147	9999
148	799
149	90
