Mass Spectrum: Silane, triethoxyethyl-
Formula: C8 H20 O3 Si
CAS: 78-07-9
Molecular weight: 192
Origin: Japan AIST/NIMC Database- Spectrum MS-NW-4280
m/z	RELATIVE INTENSITY
14	10
15	70
17	10
18	20
26	60
27	309
28	179
29	299
30	20
31	459
32	50
41	10
42	20
43	99
44	10
45	699
46	80
47	179
48	10
55	10
58	10
59	40
60	10
61	50
62	229
63	1039
64	60
65	40
67	20
71	20
72	10
73	289
74	50
75	339
76	40
77	129
78	10
79	1139
80	60
81	70
87	30
88	60
89	169
90	80
91	979
92	80
93	80
101	20
102	30
103	789
104	90
105	159
106	10
107	939
108	70
109	40
117	119
118	99
119	3079
120	299
121	149
122	10
131	30
132	10
133	879
134	99
135	919
136	90
137	40
145	10
146	20
147	2059
148	239
149	189
150	10
151	10
161	20
163	9999
164	1169
165	459
166	40
169	10
177	319
178	40
179	20
191	90
192	20
193	20
