Mass Spectrum: Tetraethyl silicate
Formula: C8 H20 O4 Si
CAS: 78-10-4
Molecular weight: 208
m/z	RELATIVE INTENSITY
12	30
13	30
14	120
15	651
16	40
17	20
18	70
24	10
25	40
26	440
27	1912
28	671
29	2973
30	110
31	400
32	20
33	10
35	10
36	10
37	10
38	10
39	30
40	10
41	60
42	90
43	611
44	80
45	2482
46	190
47	190
48	10
49	10
50	10
51	10
52	10
53	10
54	10
55	60
56	10
57	30
58	30
59	100
60	40
61	380
62	1451
63	3133
64	210
65	120
66	10
67	20
68	150
69	20
70	10
71	30
72	30
73	390
74	150
75	410
76	140
77	520
78	70
79	5585
80	290
81	260
82	390
83	20
84	10
85	10
86	10
87	60
88	80
89	701
90	360
91	1491
92	130
93	470
94	30
95	20
96	60
97	70
98	10
99	10
100	10
101	30
102	10
103	330
104	110
105	911
106	90
107	1621
108	120
109	120
110	10
111	10
112	10
113	10
114	10
115	10
116	10
117	150
118	230
119	3623
120	350
121	671
122	50
123	400
124	30
125	30
126	10
127	10
129	10
130	10
131	30
132	20
133	320
134	50
135	2092
136	200
137	320
138	20
139	10
145	10
146	10
147	210
148	80
149	8528
150	921
151	751
152	60
153	30
154	10
155	10
157	10
159	10
161	40
163	6946
164	821
165	921
166	80
167	30
168	10
175	10
176	10
177	130
179	2652
180	390
181	170
182	20
183	10
191	90
193	9999
194	1291
195	480
196	30
197	10
204	10
205	10
207	651
208	1311
209	210
210	60
