Mass Spectrum: Pentaerythritol Tetranitrate
Formula: C5 H8 N4 O12
CAS: 78-11-5
Molecular weight: 316
Origin: C. BRUNNEE, KRUPP, BREMEN, GERMANY
m/z	RELATIVE INTENSITY
41	73
42	97
43	487
44	48
46	8853
47	487
48	243
53	97
54	219
55	1365
56	902
57	1390
58	292
60	780
61	195
68	97
69	195
70	97
71	341
72	97
73	195
76	9999
77	121
78	48
83	73
84	48
85	268
88	73
97	439
99	243
149	121
194	97
240	73
