Mass Spectrum: Phosphoric acid, tris(2-methylphenyl) ester
Formula: C21 H21 O4 P
CAS: 78-30-8
Molecular weight: 368
Origin: RADIAN CORP
m/z	RELATIVE INTENSITY
39	270
47	90
50	120
51	70
62	30
63	460
64	100
65	3190
66	20
76	20
77	3330
78	1460
79	960
80	140
89	2350
90	2860
91	6210
92	620
104	460
105	460
106	130
107	3390
108	1240
115	110
121	200
128	60
136	130
141	80
152	440
153	540
154	230
155	40
164	80
165	9999
166	1620
167	10
169	500
170	420
171	130
176	70
177	40
178	2990
179	5430
180	3280
181	4750
182	930
183	280
185	170
187	340
189	1920
190	120
195	480
196	150
197	690
198	110
243	80
255	40
259	180
261	780
262	100
275	190
277	3270
278	480
353	330
367	270
368	3680
369	800
370	70
