Mass Spectrum: Ethane, 1,1,1-triethoxy-
Formula: C8 H18 O3
CAS: 78-39-7
Molecular weight: 162
Origin: E.Tabei ET AL.Org.Mass.Spectrom., 28,412(1993)
m/z	RELATIVE INTENSITY
14	651
15	1161
16	150
26	751
27	3453
28	200
29	5585
30	450
31	1862
41	160
42	2362
43	9999
44	350
45	1672
46	160
47	260
59	70
60	1571
61	9669
62	180
63	581
70	70
73	160
75	70
87	70
89	2803
90	70
91	280
116	390
117	5625
118	390
119	70
147	480
