Mass Spectrum: Phosphoric acid, tris(4-methylphenyl) ester
Formula: C21 H21 O4 P
CAS: 78-32-0
Molecular weight: 368
Origin: NIST Mass Spectrometry Data Center, 1994
m/z	RELATIVE INTENSITY
27	465
29	27
39	980
40	63
41	249
47	349
50	218
51	710
52	372
53	501
54	32
55	59
62	129
63	557
65	2443
66	176
67	39
74	40
75	67
77	3351
78	1019
79	2051
80	229
81	32
87	33
89	778
90	1520
91	3209
92	307
93	24
95	44
105	114
107	3488
108	2080
109	189
113	38
115	77
123	27
124	23
125	138
126	44
127	40
128	102
129	79
137	30
139	45
141	90
142	57
143	37
151	36
152	180
153	680
154	567
155	264
156	34
165	2842
166	605
167	156
168	74
169	443
170	425
171	102
178	270
179	737
180	905
181	1011
182	1147
183	628
184	253
187	48
189	25
193	34
195	504
196	729
197	1121
198	2268
199	374
200	45
213	60
214	42
215	89
227	37
229	54
231	21
239	73
240	69
241	73
242	21
243	1798
244	331
245	185
246	52
253	46
254	71
255	335
256	237
257	75
259	283
260	1503
261	1901
262	322
263	37
269	106
270	216
271	184
272	136
273	82
275	22
277	549
278	109
286	49
287	53
288	76
331	42
349	29
353	34
367	6309
368	9999
369	2236
370	298
371	37
