Mass Spectrum: Phenol, 4-(1,1-dimethylethyl)-, phosphate (3:1)
Formula: C30 H39 O4 P
CAS: 78-33-1
Molecular weight: 494
Origin: Japan AIST/NIMC Database- Spectrum MS-NW-8249
m/z	RELATIVE INTENSITY
17	60
18	269
27	30
28	109
29	159
32	20
39	90
40	10
41	539
42	20
43	40
47	10
50	10
51	30
52	10
53	30
55	119
56	30
57	1699
58	109
63	20
65	70
66	20
67	10
69	10
76	10
77	219
78	50
79	90
81	10
89	30
90	40
91	449
92	40
93	40
94	40
95	80
101	10
102	20
103	80
104	20
105	179
106	50
107	319
108	30
109	169
110	10
115	319
116	109
117	249
118	109
119	109
120	20
121	119
122	20
125	10
127	10
128	20
129	30
130	10
131	70
132	20
133	119
134	70
135	539
136	50
138	10
141	30
145	10
147	10
149	90
150	70
151	10
152	30
153	139
154	10
155	20
159	10
163	30
165	50
166	10
167	10
168	10
169	109
170	10
171	10
173	10
175	10
177	10
178	139
179	70
180	30
181	299
182	30
183	179
184	10
189	20
190	30
191	30
192	20
193	30
194	10
195	20
196	20
197	279
198	20
202	10
203	30
204	129
205	20
207	10
208	10
209	20
210	30
211	169
212	30
215	30
216	10
217	40
218	169
219	10
223	10
224	80
225	40
229	10
232	1759
233	10
234	10
239	30
240	20
241	10
245	10
249	20
251	80
252	20
253	10
254	10
255	30
265	10
266	10
267	50
268	10
271	10
273	40
289	30
290	10
291	50
301	10
303	10
305	30
317	10
327	30
329	20
331	30
339	20
345	10
347	40
348	10
353	10
361	99
362	20
365	10
367	519
368	129
369	20
376	20
379	20
381	90
382	20
393	10
395	10
407	189
408	50
409	10
421	20
423	80
424	20
435	10
437	40
438	20
449	119
450	30
451	50
452	10
463	149
464	50
465	179
466	10
477	40
479	9999
480	3229
481	589
482	80
493	139
494	3429
495	1139
496	209
497	30
