Mass Spectrum: 1-Propanol, 2,3-dichloro-, phosphate (3:1)
Formula: C9 H15 Cl6 O4 P
CAS: 78-43-3
Molecular weight: 428
m/z	RELATIVE INTENSITY
40	500
41	2700
42	300
43	900
44	100
47	200
49	3800
50	100
51	1200
55	200
57	1300
61	200
62	100
63	200
65	200
69	100
75	9999
76	700
77	3500
78	200
79	500
81	900
83	400
85	200
91	100
93	200
99	6800
110	200
111	1100
112	100
113	700
114	50
115	100
117	400
119	200
123	200
124	30
125	50
135	200
137	600
155	1800
157	700
159	900
161	400
171	50
173	300
175	100
191	4100
192	100
193	2700
194	50
195	500
209	2700
210	30
211	1800
212	30
213	300
247	100
269	250
271	250
273	80
283	30
285	30
301	380
302	20
303	450
304	30
305	230
306	15
307	40
319	470
320	20
321	550
322	30
323	280
324	10
325	70
379	400
380	30
381	620
382	60
383	400
384	30
385	140
387	20
393	10
395	10
