Mass Spectrum: Triethyl phosphate
Formula: C6 H15 O4 P
CAS: 78-40-0
Molecular weight: 182
Origin: NIST Mass Spectrometry Data Center, 1990.
m/z	RELATIVE INTENSITY
14	98
15	457
16	17
17	10
19	160
25	42
26	458
27	2347
28	1097
29	3479
30	194
31	489
39	24
41	63
42	163
43	890
44	314
45	1718
46	67
47	392
48	43
49	26
57	100
58	32
59	40
63	127
64	75
65	705
66	25
77	55
79	69
81	5038
82	3249
83	1313
84	32
91	1476
92	94
93	285
94	77
95	70
96	28
97	103
98	28
99	9999
100	28
101	98
107	69
109	3543
110	742
111	1440
112	60
113	53
123	49
125	1843
126	636
127	5362
128	133
129	56
137	848
138	886
139	958
140	52
153	398
155	7362
156	360
157	66
167	191
168	21
181	188
182	389
183	37
