Mass Spectrum: Phosphoric acid, tris(2-ethylhexyl) ester
Formula: C24 H51 O4 P
CAS: 78-42-2
Molecular weight: 434
Origin: NIST Mass Spectrometry Data Center
m/z	RELATIVE INTENSITY
27	80
29	250
39	90
40	20
41	851
42	150
43	931
44	30
45	30
53	70
54	100
55	1051
56	340
57	2062
58	90
65	20
67	140
68	90
69	791
70	601
71	1601
72	90
77	10
79	30
81	110
82	180
83	430
84	140
85	20
95	50
96	20
97	70
99	9999
100	20
101	110
109	10
110	20
111	200
112	1141
113	3453
114	270
115	10
125	40
126	10
137	20
138	10
139	40
151	20
152	30
153	140
167	20
181	120
193	10
195	20
209	20
211	871
212	70
213	10
225	20
323	330
324	60
