Mass Spectrum: Carbamic acid, (1-methylethyl)-, 2-[[(aminocarbonyl)oxy]methyl]-2-methylpentyl ester
Formula: C12 H24 N2 O4
CAS: 78-44-4
Molecular weight: 260
Origin: NIST Mass Spectrometry Data Center
m/z	RELATIVE INTENSITY
14	10
15	60
16	10
18	60
19	10
26	50
27	751
28	310
29	951
30	120
31	661
33	10
37	10
38	30
39	921
40	250
41	3783
42	1441
43	6256
44	4274
45	1121
46	120
47	10
50	10
51	50
52	40
53	520
54	270
55	9999
56	4954
57	1531
58	6776
59	1371
60	200
62	3533
63	60
64	20
65	90
66	30
67	500
68	230
69	1992
70	1551
71	2562
72	751
73	300
74	240
75	300
76	50
77	50
78	10
79	110
80	20
81	771
82	170
83	2783
84	2452
85	571
86	1511
87	90
88	601
89	70
90	10
91	10
92	80
93	20
94	10
95	130
96	731
97	4784
98	821
99	210
100	120
101	500
102	1281
103	120
104	6796
105	320
106	30
112	30
113	60
114	831
115	681
116	70
117	100
118	50
119	10
123	40
124	10
126	30
128	10
129	10
131	20
132	20
133	20
134	40
140	30
141	10
142	20
143	20
144	120
145	10
147	40
156	10
157	110
158	4024
159	350
160	30
170	10
174	20
175	10
176	260
177	30
184	711
185	80
186	160
187	20
199	20
200	10
202	180
203	20
217	10
245	540
246	80
247	10
260	10
