Mass Spectrum: Ethanol, 2-butoxy-, phosphate (3:1)
Formula: C18 H39 O7 P
CAS: 78-51-3
Molecular weight: 398
Origin: NIST Mass Spectrometry Data Center, 2010
m/z	RELATIVE INTENSITY
15	10
19	10
26	30
27	250
28	180
29	1071
30	40
31	80
38	10
39	220
40	40
41	2642
42	210
43	520
44	621
45	5975
46	140
47	30
50	10
51	10
52	10
53	70
54	140
55	991
56	6546
57	9999
58	550
59	150
60	20
61	10
65	80
66	10
67	40
68	10
69	80
70	120
71	160
72	100
73	40
75	10
77	10
78	20
79	40
81	300
82	220
83	480
85	5605
86	320
87	170
88	10
89	20
91	70
92	10
93	10
95	60
96	50
97	10
99	2352
100	2953
101	2933
102	190
103	10
107	190
108	320
109	70
110	10
111	50
112	280
113	621
114	10
115	10
121	10
122	20
123	190
125	4974
126	320
127	631
128	20
129	10
136	10
137	30
138	120
139	661
140	110
141	270
143	550
144	10
145	10
151	420
152	280
153	2042
154	1001
155	1481
156	80
157	130
165	30
166	20
167	80
168	50
169	180
170	20
171	440
172	20
173	10
180	70
181	160
182	170
183	100
184	10
185	20
187	20
195	10
196	10
197	140
199	2112
200	140
201	30
209	80
210	10
211	20
212	30
213	160
214	10
215	20
225	480
226	230
227	1471
228	130
229	20
239	10
241	20
243	190
244	20
253	330
254	40
255	310
256	30
257	20
269	20
271	140
272	20
283	20
297	60
299	1161
300	160
301	20
313	20
325	10
343	30
355	170
356	30
397	10
399	20
