Mass Spectrum: Isophorone
Formula: C9 H14 O
CAS: 78-59-1
Molecular weight: 138
Origin: NIST Mass Spectrometry Data Center, 1998.
m/z	RELATIVE INTENSITY
15	30
26	30
27	370
28	10
29	210
37	20
38	100
39	1520
40	170
41	760
42	170
43	120
45	20
46	10
49	10
50	150
51	320
52	180
53	750
54	1650
55	620
56	100
57	60
61	10
62	30
63	90
64	20
65	180
66	70
67	610
68	50
69	130
70	10
74	20
75	10
76	10
77	370
78	80
79	350
80	80
81	190
82	9999
83	650
84	40
89	10
91	140
92	20
93	100
94	40
95	770
96	80
103	10
105	20
107	30
108	40
109	40
110	100
111	10
121	10
122	10
123	190
124	20
138	2310
139	240
140	20
