Mass Spectrum: Silane, diethoxydimethyl-
Formula: C6 H16 O2 Si
CAS: 78-62-6
Molecular weight: 148
Origin: NIST Mass Spectrometry Data Center, 1994
m/z	RELATIVE INTENSITY
14	73
15	449
16	24
18	20
26	143
27	662
28	286
29	835
30	63
31	202
32	17
39	37
41	45
42	131
43	743
44	258
45	2051
46	156
47	785
48	41
49	25
51	69
53	26
55	42
56	26
57	54
58	362
59	1739
60	264
61	1159
62	173
63	337
64	26
66	241
71	46
73	468
75	2168
77	4663
78	287
79	158
85	15
87	201
89	4030
90	361
91	213
101	190
103	2705
104	351
105	2410
106	199
107	93
117	95
119	22
131	66
133	9999
134	1001
135	383
136	21
147	101
148	58
