Mass Spectrum: Propanenitrile, 2,2'-azobis[2-methyl-
Formula: C8 H12 N4
CAS: 78-67-1
Molecular weight: 164
Origin: NIST Mass Spectrometry Data Center, 1990.
m/z	RELATIVE INTENSITY
14	56
15	482
18	16
26	262
27	1113
28	775
29	161
30	47
37	189
38	395
39	2095
40	663
41	4132
42	2787
43	257
44	57
50	150
51	536
52	1080
53	560
54	3427
55	239
63	114
64	237
65	167
66	369
67	590
68	4751
69	9999
70	507
75	29
76	47
77	128
78	152
79	125
80	323
81	103
82	55
92	45
93	145
94	471
95	88
105	66
121	372
