Mass Spectrum: Linalool
Formula: C10 H18 O
CAS: 78-70-6
Molecular weight: 154
Origin: NIST Mass Spectrometry Data Center
m/z	RELATIVE INTENSITY
15	60
19	10
26	70
27	991
28	160
29	631
30	20
31	120
37	20
38	80
39	1792
40	420
41	5645
42	581
43	5985
44	190
45	170
46	10
47	10
48	10
49	10
50	120
51	370
52	180
53	1531
54	270
55	6376
56	1051
57	450
58	270
59	410
60	20
61	10
62	40
63	90
64	20
65	360
66	140
67	2062
68	1251
69	4264
70	540
71	9999
72	731
73	70
74	10
75	10
77	611
78	100
79	1221
80	3213
81	1191
82	591
83	1772
84	490
85	160
86	190
87	20
89	10
91	1001
92	1511
93	7607
94	1021
95	320
96	841
97	260
98	90
99	30
103	50
104	10
105	530
106	130
107	741
108	200
109	681
110	80
111	360
112	30
115	10
117	10
119	110
121	2322
122	230
123	40
124	10
125	40
126	10
127	60
128	10
135	10
136	821
137	100
138	10
139	220
140	20
154	40
