Mass Spectrum: Ethane, 1,1,2-tribromo-
Formula: C2 H3 Br3
CAS: 78-74-0
Molecular weight: 264
Origin: D.HENNEBERG, MAX-PLANCK INSTITUTE, MULHEIM, WEST GERMANY
m/z	RELATIVE INTENSITY
27	9999
28	330
43	10
44	150
79	570
80	150
81	600
82	140
93	60
104	230
105	2280
106	6850
107	2300
108	6290
173	20
184	130
185	3330
186	530
187	7200
188	310
189	3110
264	71
266	210
268	190
270	61
