Mass Spectrum: Isobutyronitrile
Formula: C4 H7 N
CAS: 78-82-0
Molecular weight: 69
Origin: Japan AIST/NIMC Database- Spectrum MS-NW- 916
m/z	RELATIVE INTENSITY
13	10
14	50
15	289
24	10
25	60
26	799
27	1399
28	2259
29	119
30	10
32	20
36	50
37	389
38	449
39	1239
40	549
41	2529
42	9999
43	349
49	10
50	70
51	549
52	1129
53	1119
54	2869
55	109
58	10
62	20
63	60
64	149
65	20
66	119
67	99
68	6019
69	269
70	10
