Mass Spectrum: Isobutylamine
Formula: C4 H11 N
CAS: 78-81-9
Molecular weight: 73
Origin: NIST Mass Spectrometry Data Center, 1998.
m/z	RELATIVE INTENSITY
14	10
15	70
16	10
25	10
26	80
27	500
28	1010
29	340
30	9999
31	260
32	40
37	70
38	160
39	940
40	140
41	1390
42	380
43	350
44	80
49	10
50	40
51	60
52	90
53	90
54	180
55	610
56	660
57	250
58	330
59	10
70	40
71	10
72	190
73	1590
74	100
