Mass Spectrum: Methacrolein
Formula: C4 H6 O
CAS: 78-85-3
Molecular weight: 70
Origin: SHELL RESEARCH LIMITED THORNTON RESEARCH CENTRE
m/z	RELATIVE INTENSITY
25	112
26	428
27	948
28	304
29	1364
30	72
31	544
32	248
36	160
37	836
38	1348
39	6760
40	1304
41	9999
42	1576
43	280
44	128
49	128
50	224
51	136
52	108
53	216
55	188
69	788
70	8280
71	416
72	104
