Mass Spectrum: 1-Buten-3-yne, 2-methyl-
Formula: C5 H6
CAS: 78-80-8
Molecular weight: 66
m/z	RELATIVE INTENSITY
12	80
13	60
14	90
15	200
16	10
24	50
25	160
26	340
27	711
28	140
29	10
30	10
36	210
37	1051
38	1661
39	7176
40	5315
41	230
42	10
48	110
49	631
50	2042
51	3313
52	160
53	10
60	210
61	831
62	1091
63	1481
64	300
65	5935
66	9999
67	550
68	10
