Mass Spectrum: Methyl glyoxal
Formula: C3 H4 O2
CAS: 78-98-8
Molecular weight: 72
m/z	RELATIVE INTENSITY
13	140
14	360
15	2642
16	120
25	90
26	180
27	220
28	691
29	2032
30	190
31	350
32	90
36	470
37	100
38	200
39	80
41	250
42	781
43	9999
44	410
45	1511
46	80
72	510
