Mass Spectrum: 1,2-Propanediamine
Formula: C3 H10 N2
CAS: 78-90-0
Molecular weight: 74
Origin: NIST Mass Spectrometry Data Center, 1998.
m/z	RELATIVE INTENSITY
15	50
18	680
27	160
28	760
29	210
30	1650
31	40
32	50
39	120
40	180
41	290
42	790
43	300
44	9999
45	260
54	50
56	300
57	40
58	40
59	90
74	70
