Mass Spectrum: Methyl vinyl ketone
Formula: C4 H6 O
CAS: 78-94-4
Molecular weight: 70
Origin: Japan AIST/NIMC Database- Spectrum MS-IW-3441
m/z	RELATIVE INTENSITY
12	20
13	50
14	259
15	1019
16	10
17	10
24	20
25	159
26	849
27	4979
28	249
29	149
31	30
36	60
37	299
38	329
39	659
40	129
41	569
42	1239
43	8319
44	259
45	40
48	40
49	179
50	359
51	189
52	70
53	259
54	80
55	9999
56	459
57	40
67	30
69	119
70	5779
71	279
72	20
