Mass Spectrum: Silane, triethoxyphenyl-
Formula: C12 H20 O3 Si
CAS: 780-69-8
Molecular weight: 240
Origin: Japan AIST/NIMC Database- Spectrum MS-NW-4884
m/z	RELATIVE INTENSITY
14	20
15	90
18	10
25	10
26	109
27	489
28	159
29	549
30	30
31	189
32	40
38	20
39	129
40	20
41	20
42	20
43	189
44	50
45	1949
46	99
47	90
50	179
51	569
52	90
53	40
55	20
59	60
60	10
61	40
62	449
63	809
64	50
65	90
66	70
67	20
69	30
70	10
71	50
72	60
73	639
74	159
75	109
76	129
77	1089
78	769
79	1199
80	70
81	60
83	10
85	10
87	229
88	40
89	209
90	389
91	1299
92	129
93	109
94	399
95	149
96	10
97	20
98	30
99	10
100	10
101	30
102	20
103	739
104	669
105	899
106	159
107	1119
108	99
109	50
111	40
112	99
113	60
115	10
116	30
117	239
118	2439
119	3289
120	419
121	809
122	249
123	1899
124	239
125	80
126	10
127	30
131	30
132	99
133	199
134	90
135	3749
136	439
137	399
138	129
139	3159
140	409
141	159
142	20
143	10
144	10
145	20
146	30
147	9999
148	1129
149	589
150	309
151	2479
152	369
153	259
154	40
155	40
156	10
157	10
158	10
159	10
160	20
161	299
162	7419
163	1899
164	469
165	179
166	30
167	1069
168	159
169	70
176	10
177	20
178	10
179	90
180	20
181	1769
182	289
183	109
184	20
185	10
192	10
193	90
194	70
195	7939
196	1759
197	489
198	70
199	20
207	10
209	20
211	60
212	20
213	10
214	10
222	20
223	20
224	10
225	549
226	99
227	40
229	10
239	90
240	2099
241	409
242	119
243	20
