Mass Spectrum: Benzenemethanamine, N-(phenylmethylene)-
Formula: C14 H13 N
CAS: 780-25-6
Molecular weight: 195
Origin: Japan AIST/NIMC Database- Spectrum MS-NW-7492
m/z	RELATIVE INTENSITY
26	20
27	70
28	99
30	20
36	10
37	20
38	80
39	589
40	60
41	169
42	10
44	10
49	10
50	189
51	549
52	109
53	20
61	20
62	99
63	389
64	139
65	1409
66	80
69	10
70	10
73	10
74	40
75	60
76	99
77	419
78	109
79	30
81	10
82	40
83	40
86	20
87	20
88	20
89	669
90	639
91	9999
92	3349
93	239
94	10
95	20
96	30
97	99
98	20
102	10
103	70
104	379
105	119
106	80
107	20
115	30
116	229
117	929
118	499
119	30
121	10
128	10
139	20
151	10
152	80
153	20
163	10
164	20
165	179
166	119
167	139
168	30
178	20
179	10
180	10
190	10
191	10
192	30
193	90
194	1959
195	2359
196	379
197	30
