Mass Spectrum: Hydroxylamine
Formula: H3 N O
CAS: 7803-49-8
Molecular weight: 33
Origin: Japan AIST/NIMC Database- Spectrum MS-NW- 606
m/z	RELATIVE INTENSITY
14	40
15	144
16	2512
17	647
18	528
19	26
27	26
28	250
29	13
30	1097
31	634
32	1864
33	9999
34	53
