Mass Spectrum: Silane
Formula: H4 Si
CAS: 7803-62-5
Molecular weight: 32
m/z	RELATIVE INTENSITY
2	150
14	80
28	2752
29	2873
30	9999
31	7907
32	711
33	240
34	10
