Mass Spectrum: 4-Dimethylaminonaphthalene-1-carboxylic acid
Formula: C13 H13 N O2
CAS: 78062-03-0
Molecular weight: 215
Origin: NIST Mass Spectrometry Data Center, 1994
m/z	RELATIVE INTENSITY
15	947
16	16
17	143
18	307
28	6
38	90
39	388
40	82
41	28
42	2753
43	92
44	426
45	259
50	443
51	645
52	160
53	80
58	90
61	89
62	324
63	970
64	348
65	213
66	93
69	58
71	100
72	115
73	94
74	391
75	747
76	606
77	968
78	160
79	91
84	614
85	292
86	252
87	460
88	289
89	433
90	136
91	97
92	47
98	382
99	274
100	354
101	399
102	385
103	338
108	207
111	48
112	71
113	618
114	415
115	1323
116	249
117	73
122	51
125	274
126	1243
127	2210
128	1471
129	868
130	210
131	226
138	56
139	237
140	885
141	351
142	201
143	194
144	386
151	48
152	208
153	609
154	1867
155	1273
156	289
157	75
158	83
166	105
167	590
168	2558
169	1837
170	2760
171	529
172	1183
173	179
182	301
183	54
185	94
196	2954
197	499
198	931
199	214
200	231
212	211
214	2365
215	9999
216	1499
217	148
