Mass Spectrum: Phosphorothioic acid, S-2,3-diaminopropyl ester
Formula: C3 H11 N2 O3 P S
CAS: 78219-00-8
Molecular weight: 186
Origin: Div. of Experiment Therapeutics WRAIR, WRAMC, Washington DC 20307
m/z	RELATIVE INTENSITY
41	709
42	3055
43	8994
44	3910
45	999
46	250
47	632
48	151
49	41
50	18
51	32
52	83
53	39
54	208
55	64
56	693
57	176
58	712
59	8041
60	374
61	358
62	40
63	59
64	74
65	18
66	9
67	23
68	84
69	208
70	77
71	167
72	1769
73	1752
74	90
75	868
76	8446
77	339
78	492
79	27
80	150
81	234
82	142
83	136
84	31
85	39
86	68
87	48
88	236
89	111
90	1516
91	69
92	49
93	5
94	25
95	27
96	25
97	110
98	120
99	64
100	43
101	37
102	73
103	23
104	14
105	95
107	9999
109	286
110	10
111	20
112	6
113	20
114	48
115	29
116	75
117	101
118	17
119	39
120	25
121	32
122	43
123	21
124	26
125	7
126	3
155	10
156	25
157	13
185	3
186	11
187	3
