Mass Spectrum: 3'-Trifluoromethylmethacrylanilide
Formula: C11 H10 F3 N O
CAS: 783-05-1
Molecular weight: 229
Origin: NIST Mass Spectrometry Data Center, 1994
m/z	RELATIVE INTENSITY
14	13
15	145
18	26
20	19
25	3
26	51
27	58
28	147
32	2
37	136
38	491
39	3250
40	659
41	9999
42	379
44	21
46	10
49	12
50	199
51	165
52	127
53	106
54	43
55	25
56	23
57	180
58	11
61	37
62	145
63	560
64	306
65	183
66	29
67	31
68	11
69	9319
70	414
71	31
74	20
75	367
76	77
77	36
78	10
80	19
81	55
82	43
83	275
84	38
85	10
87	47
88	177
89	52
90	106
91	196
92	36
93	26
94	46
95	267
96	36
99	58
100	45
101	27
102	21
103	11
104	10
105	7
106	18
107	27
108	29
109	87
110	17
111	119
112	61
113	442
114	421
115	67
116	12
117	16
118	11
119	41
120	144
121	31
122	15
123	10
125	152
126	34
127	26
130	28
131	27
132	142
133	228
134	33
135	9
137	15
139	101
140	304
141	69
142	94
143	28
144	9
145	448
146	33
151	11
152	12
158	22
159	82
160	686
161	230
162	29
165	14
166	20
168	42
172	14
173	17
174	81
175	10
180	14
182	47
183	9
185	16
186	140
187	68
188	75
189	9
198	19
200	62
201	485
202	47
210	423
211	62
212	8
214	76
215	8
229	1539
230	202
231	13
