Mass Spectrum: 4-Hydroxybenzoic acid, 2TBDMS derivative
Formula: C19 H34 O3 Si2
CAS: 78324-14-8
Molecular weight: 366
Origin: NIST Mass Spectrometry Data Center
m/z	RELATIVE INTENSITY
27	10
29	110
31	10
39	50
40	10
41	290
42	20
43	50
44	10
45	110
46	10
47	30
50	20
51	10
53	20
55	40
56	160
57	550
58	70
59	270
60	30
61	30
63	20
64	20
65	40
66	10
67	10
69	20
70	10
71	20
73	2482
74	230
75	290
76	120
77	80
78	20
79	30
81	20
82	10
83	40
84	10
85	70
86	10
87	10
89	120
90	50
91	280
92	60
93	90
94	10
95	50
96	30
97	30
98	10
99	70
100	10
101	10
102	10
103	50
104	200
105	170
106	20
107	40
108	10
109	20
111	60
113	10
115	180
116	20
117	60
118	70
119	90
120	60
121	540
122	70
123	30
124	10
126	510
129	10
131	70
132	20
133	360
134	100
135	641
136	90
137	50
138	10
139	10
143	10
145	20
146	10
147	80
148	50
149	200
150	300
151	210
152	30
153	10
157	10
159	10
161	10
163	70
164	10
165	20
166	10
167	10
175	10
176	10
177	100
178	100
179	310
180	50
181	90
182	10
183	10
191	10
192	80
193	320
194	70
195	60
196	10
205	10
207	80
208	20
209	190
210	40
211	20
219	70
220	10
221	10
223	140
224	30
225	10
233	20
235	1832
236	370
237	550
238	110
239	40
240	10
249	40
250	10
251	150
252	130
253	170
254	40
255	10
263	20
265	2762
266	711
267	320
268	60
269	10
279	10
293	30
294	20
295	10
307	60
309	9999
310	3023
311	1181
312	220
313	40
335	10
351	260
352	80
353	30
354	10
365	10
