Mass Spectrum: 4-Hydroxybenzeneacetic acid, 2TBDMS derivative
Formula: C20 H36 O3 Si2
CAS: 78324-13-7
Molecular weight: 380
Origin: NIST Mass Spectrometry Data Center
m/z	RELATIVE INTENSITY
27	30
29	190
31	20
38	10
39	90
40	20
41	420
42	30
43	180
44	20
45	370
46	20
47	180
48	10
49	10
50	10
51	20
52	10
53	30
54	10
55	60
56	210
57	631
58	210
59	591
60	80
61	120
62	10
63	40
64	20
65	20
67	20
68	20
69	20
70	10
71	20
73	5655
74	550
75	4204
76	310
77	250
78	60
79	50
81	10
82	40
83	50
84	10
85	100
86	20
87	30
88	10
89	300
90	250
91	270
92	20
93	20
95	30
96	10
97	30
98	10
99	190
100	30
101	70
102	40
103	130
104	110
105	490
106	50
107	430
108	40
109	30
110	10
111	10
113	20
114	10
115	250
116	50
117	130
118	60
119	120
120	20
121	70
122	10
123	20
125	10
126	30
127	10
128	10
129	10
130	10
131	180
133	1491
135	330
136	50
137	70
138	10
143	20
145	80
147	1481
148	290
149	771
150	120
151	70
152	10
153	20
154	10
157	10
159	20
161	200
162	70
163	981
164	360
165	180
166	30
167	10
173	20
174	10
175	30
176	10
177	100
179	1441
180	240
181	90
182	10
189	40
191	971
192	200
193	120
194	20
195	140
196	20
197	10
203	10
205	2282
206	450
207	180
208	50
209	140
210	30
211	50
212	10
217	10
219	120
220	50
221	931
222	200
223	310
224	70
225	260
226	50
227	20
233	30
234	10
235	100
236	20
237	110
238	30
239	50
240	10
247	10
248	20
249	40
250	10
251	70
252	20
253	230
254	50
255	20
261	10
263	10
264	10
265	250
266	100
267	611
268	150
269	60
270	10
277	30
278	10
279	160
280	50
281	771
282	190
283	80
284	10
293	10
295	370
296	100
297	40
298	10
307	40
308	10
309	10
321	20
323	9999
324	3043
325	1211
326	230
327	40
351	10
365	230
366	70
367	20
368	10
379	10
380	40
381	10
382	10
