Mass Spectrum: Methanone, (2-amino-5-chlorophenyl)(2-fluorophenyl)-
Formula: C13 H9 Cl F N O
CAS: 784-38-3
Molecular weight: 249
Origin: HOME OFFICE, CENTRAL RES. EST., ALDERMASTON, BERKS., U.K.
m/z	RELATIVE INTENSITY
75	2000
95	3500
99	1200
107	1000
123	5800
126	2300
154	4300
229	1400
230	2600
231	1100
232	2200
248	9999
249	9800
250	4700
251	4600
