Mass Spectrum: Ethanone, 1-[4-(2-phenylethyl)phenyl]-
Formula: C16 H16 O
CAS: 785-78-4
Molecular weight: 224
Origin: NIST Mass Spectrometry Data Center, 1994
m/z	RELATIVE INTENSITY
14	54
15	258
27	259
29	17
38	151
39	891
40	104
41	167
42	17
43	1717
44	25
45	13
50	373
51	821
52	172
53	80
62	181
63	723
64	307
65	1593
66	90
74	108
75	151
76	251
77	681
78	262
79	234
82	11
83	12
86	36
87	52
89	1115
90	2065
91	9999
92	775
93	31
98	14
99	14
101	29
102	138
103	282
104	14
105	1129
106	96
113	18
115	123
116	22
118	539
119	60
126	29
127	32
128	44
131	54
133	647
134	72
139	39
141	31
150	29
151	54
152	115
153	31
163	17
165	181
166	85
167	21
176	60
177	51
178	146
179	81
180	17
181	422
182	188
183	17
207	16
209	372
210	62
224	1123
225	198
226	21
