Mass Spectrum: Benzenamine, N-[(4-nitrophenyl)methylene]-
Formula: C13 H10 N2 O2
CAS: 785-80-8
Molecular weight: 226
Origin: Japan AIST/NIMC Database- Spectrum MS-IW-3404
m/z	RELATIVE INTENSITY
27	50
28	60
30	50
37	10
38	50
39	199
40	10
50	309
51	1039
52	99
61	20
62	99
63	259
64	60
65	179
66	10
74	99
75	149
76	529
77	3509
78	319
79	10
86	20
87	40
88	30
89	129
90	149
91	10
92	10
93	50
98	10
99	10
100	10
101	20
102	40
103	139
104	1559
105	129
113	20
114	10
115	30
125	10
126	50
127	80
128	40
129	10
139	20
140	30
141	20
149	10
150	50
151	239
152	669
153	239
154	40
166	30
167	279
168	119
169	10
176	10
177	70
178	509
179	3339
180	669
181	60
195	119
196	90
197	10
210	20
225	3269
226	9999
227	1499
228	139
229	10
