Mass Spectrum: (S)-5-Hydroxymethyl-2[5H]-furanone
Formula: C5 H6 O3
CAS: 78508-96-0
Molecular weight: 114
Origin: NIST Mass Spectrometry Data Center, 1994
m/z	RELATIVE INTENSITY
12	59
13	99
15	195
24	40
25	246
26	1659
27	2754
28	1166
29	3196
30	294
31	3631
32	199
36	60
37	345
38	404
39	951
40	252
41	218
42	385
43	313
44	183
45	76
49	76
50	196
51	137
52	58
53	360
54	739
55	4057
56	1268
57	236
68	166
69	35
82	136
83	1310
84	9999
85	939
86	88
96	203
114	42
