Mass Spectrum: 2-Methyl-6-hepten-3-ol
Formula: C8 H16 O
CAS: 78631-45-5
Molecular weight: 128
Origin: NIST Mass Spectrometry Data Center, 1990.
m/z	RELATIVE INTENSITY
26	356
27	2345
28	344
29	2931
30	344
31	2332
32	86
38	436
39	3942
40	1051
41	5672
42	1593
43	7379
44	926
45	363
50	248
51	622
52	332
53	2319
54	1225
55	8428
56	1521
57	4503
58	567
59	4528
65	397
67	3555
68	4993
69	1554
70	3295
71	1291
72	7379
73	1287
77	322
79	2075
81	9999
82	981
83	212
84	212
85	383
93	337
95	5781
96	501
99	851
109	142
110	819
113	233
