Mass Spectrum: Benzoic acid, 2-benzoylhydrazide
Formula: C14 H12 N2 O2
CAS: 787-84-8
Molecular weight: 240
Origin: NIST Mass Spectrometry Data Center, 1994
m/z	RELATIVE INTENSITY
15	33
18	59
27	190
28	48
29	82
38	108
39	260
44	62
49	46
50	668
51	2150
52	166
62	63
63	137
64	62
65	59
73	60
74	192
75	160
76	412
77	5436
78	405
79	35
103	93
105	9999
106	791
107	57
135	43
165	268
166	111
207	27
221	35
222	218
223	47
240	940
241	152
