Mass Spectrum: 4,4'-Diacetyl biphenyl
Formula: C16 H14 O2
CAS: 787-69-9
Molecular weight: 238
Origin: Japan AIST/NIMC Database- Spectrum MS-NW-9401
m/z	RELATIVE INTENSITY
14	10
15	119
18	20
27	20
28	70
29	10
38	10
39	99
41	10
42	10
43	8619
44	199
45	20
50	159
51	189
52	30
53	10
55	10
57	20
62	70
63	409
64	20
65	30
69	50
70	20
71	10
74	139
75	279
76	1139
77	139
78	30
81	40
82	119
83	50
85	10
86	40
87	90
88	50
89	60
90	469
91	50
97	30
98	50
99	60
100	40
101	70
102	99
103	10
104	799
105	20
110	10
111	30
112	10
113	40
114	20
115	70
119	10
122	10
123	10
124	10
125	80
126	269
127	70
128	20
137	10
138	10
139	80
140	10
141	10
149	30
150	389
151	829
152	1709
153	729
154	90
162	10
163	80
164	80
165	399
166	219
167	40
176	40
177	20
178	20
179	50
180	379
181	90
182	10
194	20
195	279
196	50
209	70
210	10
223	9999
224	1649
225	169
226	10
238	4699
239	849
240	90
