Mass Spectrum: 3-(3-[Trifluoromethyl]phenoxy)benzaldehyde
Formula: C14 H9 F3 O2
CAS: 78725-46-9
Molecular weight: 266
Origin: Japan AIST/NIMC Database- Spectrum MS-IW-1322
m/z	RELATIVE INTENSITY
20	10
27	70
28	139
29	60
31	20
37	20
38	109
39	299
40	20
43	10
44	10
45	30
49	10
50	529
51	1169
52	50
53	30
55	30
57	90
58	50
59	50
61	20
62	90
63	399
64	349
65	179
66	30
68	10
69	80
70	30
73	40
74	199
75	499
76	519
77	1409
78	90
79	10
81	40
82	40
83	60
84	50
85	20
86	10
87	30
88	40
89	40
90	10
91	30
92	259
93	80
94	119
95	399
96	20
97	10
98	129
99	50
100	20
101	10
102	10
103	10
104	80
105	179
106	20
107	70
108	30
109	80
112	20
113	80
114	90
115	109
116	10
118	10
119	60
120	30
121	70
122	30
123	119
125	229
126	129
127	20
132	139
133	139
134	10
137	10
138	10
139	249
140	109
141	359
142	40
143	50
144	20
145	429
146	40
149	10
151	50
152	20
153	20
155	40
157	50
158	10
159	359
160	40
161	20
162	90
163	40
164	20
167	20
168	1219
169	999
170	199
171	60
179	10
180	20
181	10
182	50
183	349
184	60
185	90
186	80
187	30
188	309
189	699
190	119
191	10
195	30
196	10
197	309
198	90
199	90
200	10
201	50
206	20
207	50
208	20
209	1619
210	359
211	30
212	10
214	10
216	20
217	1269
218	249
219	60
220	20
221	10
229	10
235	50
236	90
237	2669
238	569
239	60
245	149
246	30
247	569
248	199
249	769
250	109
251	10
263	20
264	20
265	6169
266	9999
267	1489
268	139
269	10
