Mass Spectrum: 4-tert-Octylphenol, TMS derivative
Formula: C17 H30 O Si
CAS: 78721-87-6
Molecular weight: 278
Origin: A.Pleshkova, Nesmeyanov Inst.Org.Elem.Cpds, Moscow
m/z	RELATIVE INTENSITY
41	330
42	110
57	741
58	140
73	1331
74	120
75	220
82	290
151	210
191	320
192	120
207	9999
208	1782
209	460
210	90
263	180
278	320
279	80
280	20
