Mass Spectrum: Silane, triphenyl-
Formula: C18 H16 Si
CAS: 789-25-3
Molecular weight: 260
Origin: NIST Mass Spectrometry Data Center, 1990.
m/z	RELATIVE INTENSITY
27	77
28	266
32	92
39	147
50	369
51	907
52	226
53	1112
54	145
55	154
63	99
65	56
66	89
67	85
74	79
75	93
76	150
77	775
78	876
79	1207
80	162
81	91
89	65
90	58
91	170
101	70
103	883
105	4449
106	600
107	203
115	128
127	73
128	135
129	494
130	122
131	131
151	73
152	231
153	296
154	244
155	905
156	173
157	91
178	58
179	367
180	1988
181	8250
182	9999
183	2573
184	559
185	82
229	49
255	64
257	87
259	598
260	1100
261	268
262	61
