Mass Spectrum: Dichloroacetaldehyde
Formula: C2 H2 Cl2 O
CAS: 79-02-7
Molecular weight: 112
Origin: Susan Richardson
m/z	RELATIVE INTENSITY
47	1461
48	7467
49	9999
50	2232
51	3553
76	681
77	260
78	220
79	80
83	1521
84	6486
85	871
86	4334
87	150
88	200
112	991
114	360
116	100
