Mass Spectrum: Propanamide
Formula: C3 H7 N O
CAS: 79-05-0
Molecular weight: 73
Origin: Japan AIST/NIMC Database- Spectrum MS-NW-4971
m/z	RELATIVE INTENSITY
12	10
13	20
14	90
15	159
16	209
17	299
18	199
24	10
25	70
26	619
27	1909
28	1479
29	3449
30	289
31	10
32	10
37	20
38	30
39	30
40	50
41	60
42	139
43	149
44	9999
45	499
46	90
50	10
51	70
52	109
53	80
54	479
55	549
56	309
57	1789
58	99
59	10
71	20
72	979
73	4809
74	219
75	10
