Mass Spectrum: Acetic acid, bromo-
Formula: C2 H3 Br O2
CAS: 79-08-3
Molecular weight: 138
Origin: Japan AIST/NIMC Database- Spectrum MS-NW-1809
m/z	RELATIVE INTENSITY
12	109
13	379
14	1139
15	3719
16	40
17	30
18	99
24	20
25	50
26	40
28	609
29	1169
30	109
31	1179
32	10
36	20
40	70
41	479
42	1939
43	139
44	509
45	4009
46	50
47	20
50	30
59	199
60	30
61	30
72	10
79	639
80	349
81	649
82	339
83	20
91	299
92	449
93	3509
94	9999
95	3349
96	9299
97	99
103	10
109	20
111	10
120	119
121	349
122	119
123	339
138	4179
139	109
140	4029
141	99
142	20
