Mass Spectrum: Acetamide, 2-chloro-
Formula: C2 H4 Cl N O
CAS: 79-07-2
Molecular weight: 93
Origin: Japan AIST/NIMC Database- Spectrum MS-NW-4930
m/z	RELATIVE INTENSITY
12	40
13	70
14	249
15	80
16	199
17	30
18	10
26	10
27	109
28	469
29	99
30	689
31	20
32	10
35	60
36	129
37	10
38	40
39	40
40	90
41	99
42	629
43	149
44	9999
45	149
46	20
47	70
48	169
49	779
50	80
51	229
52	10
58	249
59	10
64	20
75	50
76	70
77	70
78	20
79	10
93	1419
94	50
95	459
96	20
