Mass Spectrum: Ethane, 1,1,2-trichloro-
Formula: C2 H3 Cl3
CAS: 79-00-5
Molecular weight: 132
Origin: NIST Mass Spectrometry Data Center, 1998.
m/z	RELATIVE INTENSITY
12	10
13	20
14	20
24	60
25	370
26	1400
27	1030
35	770
36	230
37	280
38	80
39	10
47	550
48	480
49	1130
50	170
51	310
59	150
60	1320
61	6889
62	1200
63	2300
64	250
65	10
66	10
70	70
72	40
74	10
82	110
83	8529
84	170
85	5569
86	70
87	910
88	10
94	60
95	580
96	3060
97	9999
98	2150
99	6329
100	450
101	1090
102	20
117	10
119	10
130	10
131	30
132	1060
133	40
134	1010
135	30
136	320
137	10
138	40
