Mass Spectrum: Aminoguanidine
Formula: C H6 N4
CAS: 79-17-4
Molecular weight: 74
Origin: A.E.WILLIAMS ICI DYESTUFFS DIVISION. BLACKLEY.
m/z	RELATIVE INTENSITY
16	260
17	806
18	3620
26	40
27	290
28	2450
29	538
30	2770
31	1670
32	6560
33	48
35	10
36	75
38	25
40	21
41	280
42	1470
43	6670
44	1707
45	35
57	2340
58	470
59	28
60	10
73	80
74	9999
75	224
