Mass Spectrum: Acetic acid, hydroxy-
Formula: C2 H4 O3
CAS: 79-14-1
Molecular weight: 76
Origin: Japan AIST/NIMC Database- Spectrum MS-NW-1669
m/z	RELATIVE INTENSITY
12	20
13	60
14	149
15	40
16	30
17	129
18	389
19	20
27	10
28	539
29	2149
30	559
31	9999
32	3209
33	50
36	10
40	20
41	60
42	189
43	60
44	429
45	1189
46	139
47	159
51	10
56	40
58	109
59	40
60	40
61	10
75	10
76	10
77	30
