Mass Spectrum: Hydrazinecarbothioamide
Formula: C H5 N3 S
CAS: 79-19-6
Molecular weight: 91
Origin: Japan AIST/NIMC Database- Spectrum MS-NW-1167
m/z	RELATIVE INTENSITY
12	20
13	50
14	40
15	20
16	219
17	419
18	49
26	50
27	219
28	1279
29	379
30	229
31	1569
32	6809
33	319
34	319
35	30
36	10
40	10
41	129
42	599
43	869
44	179
45	219
46	119
47	169
48	169
49	10
55	30
56	20
57	299
58	209
59	819
60	3549
61	279
62	169
63	20
64	60
66	10
69	30
70	10
71	40
74	229
75	40
76	40
91	9999
92	309
93	459
