Mass Spectrum: Acetamide, N-methyl-
Formula: C3 H7 N O
CAS: 79-16-3
Molecular weight: 73
Origin: Japan AIST/NIMC Database- Spectrum MS-NW-4322
m/z	RELATIVE INTENSITY
12	30
13	109
14	459
15	3219
16	20
17	10
18	40
24	10
25	30
26	99
27	239
28	2129
29	259
30	8729
31	2219
32	579
33	10
38	50
39	40
40	99
41	169
42	1059
43	9999
44	329
45	639
46	20
50	10
51	40
52	50
53	10
54	109
55	50
56	80
58	4519
59	119
60	40
71	10
72	30
73	9329
74	379
75	20
