Mass Spectrum: Methyl chloroformate
Formula: C2 H3 Cl O2
CAS: 79-22-1
Molecular weight: 94
Origin: Japan AIST/NIMC Database- Spectrum MS-NW- 865
m/z	RELATIVE INTENSITY
12	40
13	40
14	179
15	4449
16	50
27	20
28	639
29	299
30	239
31	699
35	469
36	179
37	149
38	50
39	70
41	20
43	20
44	819
45	49
47	50
48	10
49	50
50	109
51	50
52	30
56	10
59	9999
60	269
61	70
62	50
63	3869
64	99
65	1259
66	40
93	60
94	229
95	20
96	70
