Mass Spectrum: Butane, 2,3-dimethyl-
Formula: C6 H14
CAS: 79-29-8
Molecular weight: 86
Origin: NIST Mass Spectrometry Data Center, 1998.
m/z	RELATIVE INTENSITY
14	10
15	130
16	10
26	80
27	1260
28	40
29	550
30	10
37	50
38	170
39	2040
40	340
41	4510
42	8259
43	9999
44	390
49	10
50	120
51	200
52	70
53	410
54	80
55	1160
56	210
57	90
61	10
62	20
63	30
65	40
66	10
67	60
68	10
69	120
70	170
71	3340
72	200
73	10
85	170
86	700
87	50
