Mass Spectrum: Ethene, 1,1-dichloro-2,2-difluoro-
Formula: C2 Cl2 F2
CAS: 79-35-6
Molecular weight: 132
m/z	RELATIVE INTENSITY
12	70
24	50
25	10
31	891
35	190
37	60
43	120
47	2102
48	30
49	701
50	170
51	10
59	60
60	10
61	20
62	90
63	20
64	10
65	10
66	290
67	120
68	60
69	10
70	10
78	420
79	20
80	140
81	20
82	3843
83	60
84	2372
85	170
86	390
87	50
94	10
95	10
96	10
97	771
98	50
99	320
100	20
101	150
102	10
103	80
105	10
113	500
114	20
115	320
116	10
117	50
132	9999
133	260
134	6556
135	140
136	1031
137	30
