Mass Spectrum: Ethene, chlorotrifluoro-
Formula: C2 Cl F3
CAS: 79-38-9
Molecular weight: 116
m/z	RELATIVE INTENSITY
2	50
14	10
15	20
19	110
20	10
24	380
25	20
26	20
27	30
28	120
29	10
31	8678
32	100
33	10
35	761
36	10
37	240
38	10
39	10
40	40
41	10
43	320
44	30
47	2612
48	30
49	851
50	1051
51	20
58	160
59	110
61	20
62	370
63	20
66	3843
67	50
68	1251
69	70
78	120
80	40
81	1672
82	40
85	3303
86	40
87	1081
88	10
97	3113
98	80
99	1021
100	30
116	9999
117	230
118	3263
119	90
