Mass Spectrum: Methacrylamide
Formula: C4 H7 N O
CAS: 79-39-0
Molecular weight: 85
Origin: Japan AIST/NIMC Database- Spectrum MS-NW-1520
m/z	RELATIVE INTENSITY
12	10
13	10
14	30
15	199
16	159
17	199
18	70
25	70
26	239
27	449
28	219
29	60
30	209
36	60
37	529
38	989
39	5349
40	1429
41	9999
42	1979
43	199
44	4869
45	379
46	109
50	20
51	60
52	139
53	209
54	60
55	20
56	60
57	99
58	10
59	20
66	20
67	60
68	229
69	2159
70	149
71	10
84	60
85	8249
86	459
87	30
