Mass Spectrum: Ethane, 1,1,2,2-tetrachloro-
Formula: C2 H2 Cl4
CAS: 79-34-5
Molecular weight: 166
Origin: NIST Mass Spectrometry Data Center
m/z	RELATIVE INTENSITY
13	10
24	30
25	230
26	581
27	10
35	550
36	100
37	190
38	30
47	490
48	400
49	220
50	120
51	10
59	160
60	1331
61	1291
62	450
63	410
65	10
66	10
70	60
72	40
83	9999
84	170
85	6446
86	80
87	1051
88	10
94	160
95	1692
96	1141
97	1111
98	681
99	180
100	100
129	50
130	330
131	1261
132	340
133	1111
134	120
135	350
136	10
137	30
165	10
166	741
167	30
168	941
169	20
170	450
171	10
172	90
