Mass Spectrum: Acetic acid, dichloro-
Formula: C2 H2 Cl2 O2
CAS: 79-43-6
Molecular weight: 128
Origin: Japan AIST/NIMC Database- Spectrum MS-NW- 841
m/z	RELATIVE INTENSITY
12	119
13	309
14	70
15	30
16	10
17	10
18	30
24	30
25	30
27	90
28	1009
29	1569
30	70
31	20
35	679
36	1269
37	199
38	389
39	50
40	60
41	149
43	90
44	969
45	4209
46	70
47	1439
48	9999
49	6999
50	3159
51	2239
52	60
55	90
56	10
59	129
60	529
61	60
63	90
64	40
65	349
66	10
67	90
68	10
69	40
73	309
74	20
76	599
77	20
78	139
79	10
82	169
83	3079
84	6209
85	2079
86	4199
87	359
88	619
93	329
94	20
95	99
110	20
111	70
113	50
115	10
128	50
130	40
132	10
