Mass Spectrum: Ethanedithioamide
Formula: C2 H4 N2 S2
CAS: 79-40-3
Molecular weight: 120
Origin: Japan AIST/NIMC Database- Spectrum MS-NW- 464
m/z	RELATIVE INTENSITY
12	50
14	10
16	40
24	20
26	70
27	239
28	139
29	10
32	429
33	309
34	99
41	10
42	10
43	90
44	189
45	279
46	40
47	20
48	10
52	289
53	269
54	60
55	80
56	239
57	60
58	80
59	589
60	5639
61	4929
62	359
63	219
64	40
65	20
66	10
67	20
68	20
69	60
70	199
71	50
72	90
73	40
76	169
77	10
78	20
81	40
82	10
83	20
84	10
85	20
86	569
87	40
88	99
104	30
120	9999
121	479
122	919
123	30
124	20
