Mass Spectrum: Carbamic chloride, dimethyl-
Formula: C3 H6 Cl N O
CAS: 79-44-7
Molecular weight: 107
Origin: NIST Mass Spectrometry Data Center, 1998.
m/z	RELATIVE INTENSITY
13	10
14	50
15	480
16	10
26	30
27	230
28	720
29	110
30	20
35	150
36	60
37	60
38	100
39	140
40	410
41	490
42	2470
43	710
44	230
45	20
47	40
48	20
49	430
50	10
51	140
52	10
54	40
55	50
56	1290
57	60
58	20
61	10
62	10
63	930
64	160
65	300
66	60
72	9999
73	360
74	30
75	10
76	30
78	500
79	10
80	160
92	30
94	10
106	120
107	3230
108	160
109	1060
110	40
