Mass Spectrum: Pempidine
Formula: C10 H21 N
CAS: 79-55-0
Molecular weight: 155
Origin: Japan AIST/NIMC Database- Spectrum MS-NW-8622
m/z	RELATIVE INTENSITY
15	159
27	209
28	119
29	279
30	279
32	40
39	289
40	60
41	1149
42	519
43	129
44	99
51	20
52	10
53	119
54	99
55	429
56	1439
57	129
58	169
60	10
62	10
65	30
66	10
67	169
68	119
69	1829
70	399
71	249
72	2719
73	129
77	20
79	30
80	20
81	109
82	90
83	30
84	5199
85	349
86	60
91	10
93	10
94	60
95	40
96	119
97	30
98	119
99	10
107	20
108	60
109	409
110	119
111	20
112	20
122	20
123	10
124	169
125	20
126	159
127	10
138	30
139	30
140	9999
141	1049
142	50
154	10
155	439
156	50
