Mass Spectrum: 2(3H)-Furanone, dihydro-3-hydroxy-4,4-dimethyl-, (.+/-.)-
Formula: C6 H10 O3
CAS: 79-50-5
Molecular weight: 130
Origin: Japan AIST/NIMC Database- Spectrum MS-NW-8775
m/z	RELATIVE INTENSITY
14	20
15	139
17	20
18	90
19	40
26	99
27	1329
28	399
29	1529
30	369
31	589
32	10
35	10
37	40
38	129
39	1229
40	249
41	2679
42	329
43	4089
44	399
45	559
46	10
49	10
50	60
51	90
52	30
53	749
54	139
55	1269
56	819
57	2169
58	549
59	70
65	30
66	20
67	319
68	759
69	259
70	60
71	9999
72	1009
73	639
74	30
75	10
76	40
77	10
82	10
83	60
84	20
85	169
86	99
87	20
91	10
93	10
97	10
99	10
100	20
101	20
103	10
105	10
111	10
113	40
115	70
116	10
130	10
131	60
