Mass Spectrum: 3-Buten-2-one, 4-(2,5,6,6-tetramethyl-1-cyclohexen-1-yl)-
Formula: C14 H22 O
CAS: 79-70-9
Molecular weight: 206
Origin: NIST Mass Spectrometry Data Center
m/z	RELATIVE INTENSITY
40	250
41	3083
43	7447
51	510
52	260
57	931
63	240
64	120
65	651
66	200
67	721
70	440
77	1561
78	340
79	1211
80	150
81	841
91	1682
92	250
93	1231
94	170
95	751
103	260
104	90
105	1732
106	350
107	1401
108	270
109	1191
110	250
116	250
117	490
119	811
121	2602
122	1852
123	861
131	711
132	150
133	981
134	170
135	1712
136	530
142	160
145	470
147	571
148	220
149	1551
150	230
161	340
163	440
164	170
173	300
174	60
175	120
176	70
191	9999
192	1361
193	110
206	440
207	160
