Mass Spectrum: 3-Buten-2-one, 4-(2,2-dimethyl-6-methylenecyclohexyl)-
Formula: C13 H20 O
CAS: 79-76-5
Molecular weight: 192
Origin: TAT 1019 9
m/z	RELATIVE INTENSITY
39	1802
41	2702
43	9999
51	801
53	1101
55	1401
65	1001
67	801
69	801
77	2402
78	701
79	1201
91	2302
92	1201
93	6806
94	901
95	701
105	1001
107	1101
108	1001
109	2302
121	7907
122	1301
136	4604
137	901
149	801
177	801
192	1201
