Mass Spectrum: Benzenesulfonamide, 5-amino-2-methyl-N-phenyl-
Formula: C13 H14 N2 O2 S
CAS: 79-72-1
Molecular weight: 262
Origin: RADIAN CORP
m/z	RELATIVE INTENSITY
14	30
16	30
28	150
32	550
65	3940
77	3430
78	970
79	1770
92	2650
93	2350
104	3160
105	9999
106	7450
262	3120
