Mass Spectrum: Vitamin A palmitate
Formula: C36 H60 O2
CAS: 79-81-2
Molecular weight: 524
Origin: Japan AIST/NIMC Database- Spectrum MS-NW-4706
m/z	RELATIVE INTENSITY
14	20
15	90
16	10
17	10
18	40
25	10
26	119
27	1469
28	379
29	3019
30	80
31	80
32	10
36	10
37	20
38	50
39	1309
40	259
41	7089
42	1209
43	9999
44	329
45	309
46	10
47	10
49	10
50	80
51	319
52	129
53	1049
54	699
55	7659
56	1729
57	8109
58	419
59	299
60	5909
61	1749
62	90
63	159
64	70
65	559
66	209
67	2059
68	789
69	6999
70	1349
71	4039
72	229
73	6909
74	579
75	80
76	70
77	1429
78	399
79	1979
80	649
81	4179
82	1039
83	3349
84	1229
85	2459
86	179
87	1119
88	149
89	129
90	70
91	2919
92	749
93	3449
94	1019
95	3239
96	859
97	2019
98	2009
99	699
100	109
101	639
102	269
103	349
104	319
105	4399
106	1099
107	2599
108	539
109	1629
110	459
111	1359
112	649
113	499
114	90
115	1559
116	689
117	1279
118	679
119	5059
120	1649
121	2549
122	709
123	1719
124	369
125	519
126	239
127	519
128	769
129	3649
130	1009
131	2159
132	4099
133	2379
134	719
135	859
136	339
137	1539
138	299
139	239
140	139
141	649
142	689
143	2229
144	3419
145	5939
146	1239
147	1309
148	509
149	709
150	179
151	139
152	189
153	329
154	249
155	959
156	729
157	3189
158	1289
159	2289
160	509
161	1509
162	429
163	269
164	99
165	289
166	189
167	349
168	309
169	1159
170	569
171	2379
172	909
173	1489
174	489
175	1779
176	699
177	539
178	149
179	159
180	109
181	289
182	279
183	2399
184	869
185	2409
186	949
187	639
188	309
189	439
190	109
191	90
192	70
193	199
194	309
195	259
196	299
197	2549
198	1089
199	1749
200	479
201	289
202	99
203	90
204	30
205	60
206	129
207	80
208	60
209	169
210	149
211	939
212	809
213	1959
214	429
215	159
216	40
217	40
218	40
219	99
220	99
221	70
222	40
223	129
224	80
225	879
226	269
227	509
228	169
229	70
230	20
231	30
232	30
233	30
234	60
235	40
236	60
237	119
238	139
239	799
240	249
241	189
242	70
243	60
244	30
245	30
246	20
247	40
248	20
249	40
250	30
251	99
252	80
253	4399
254	1059
255	2269
256	3679
257	659
258	90
259	40
260	109
261	90
262	499
263	199
264	149
265	129
266	129
267	269
268	8879
269	5319
270	1389
271	229
272	30
273	10
274	10
275	10
276	20
277	10
278	20
279	40
280	50
281	30
282	30
283	30
284	249
285	259
286	99
287	20
288	10
289	10
291	10
293	10
294	10
295	10
296	20
297	20
298	10
299	10
300	10
305	10
306	10
307	10
308	20
309	10
311	10
312	30
313	90
314	20
317	10
318	10
319	10
320	10
321	10
322	10
323	10
324	10
325	20
326	10
333	10
334	10
335	30
336	60
337	70
338	40
339	109
340	40
341	20
351	10
353	10
354	10
367	10
368	10
381	10
382	20
383	10
391	10
393	10
394	10
395	10
396	40
397	10
509	20
510	10
523	10
524	939
525	329
526	70
527	10
