Mass Spectrum: Phenol, 4,4'-(1-methylethylidene)bis[2,6-dibromo-
Formula: C15 H12 Br4 O2
CAS: 79-94-7
Molecular weight: 540
Origin: NIST Mass Spectrometry Data Center, 1998.
m/z	RELATIVE INTENSITY
15	20
26	10
27	140
29	100
37	70
38	140
39	680
40	30
41	820
42	40
43	90
44	20
49	10
50	390
51	820
52	160
53	1560
54	70
55	200
56	40
57	10
59	10
60	10
61	340
62	1440
63	2400
64	310
65	290
66	150
67	100
68	130
69	170
73	50
74	570
75	1790
76	1940
77	1310
78	450
79	430
80	100
81	50
82	420
84	240
85	100
86	300
87	660
88	880
89	1600
90	1380
92	180
93	60
94	50
95	40
96	110
97	660
98	400
99	360
100	210
101	470
102	540
103	1030
104	900
105	680
106	80
107	90
108	50
109	100
110	190
111	490
112	1260
113	300
114	260
115	620
116	540
117	410
118	600
119	250
120	30
121	40
122	190
123	280
124	260
125	270
126	450
127	290
128	190
129	30
130	630
131	1400
132	720
133	810
134	130
135	140
136	140
137	470
138	370
139	340
140	130
141	320
142	220
143	430
144	1500
145	1400
147	20
148	30
149	170
150	1350
151	2300
152	3080
154	110
155	350
156	180
157	200
158	130
159	20
160	10
161	80
162	140
163	470
164	280
165	560
166	220
167	280
168	160
169	430
170	570
171	270
172	390
173	50
174	170
175	30
176	120
177	160
178	120
179	500
180	480
181	1430
182	240
183	550
184	1060
185	570
187	90
189	10
190	20
191	250
192	430
193	260
194	230
195	450
196	1370
197	510
198	1310
199	440
200	90
201	10
202	10
203	30
204	40
205	60
206	50
207	60
208	180
209	310
210	120
211	340
212	1440
213	380
214	1340
215	190
216	500
217	1300
218	1300
219	460
221	70
222	110
223	180
224	160
225	70
226	10
228	10
229	30
230	220
231	530
232	510
233	80
235	90
236	20
237	30
239	10
241	10
243	30
244	70
245	50
246	80
247	30
248	30
249	30
250	90
251	30
252	130
253	20
254	50
255	10
257	30
258	70
259	680
260	330
261	660
262	270
263	510
264	100
265	930
266	70
267	430
268	20
270	20
271	10
272	30
273	100
274	170
275	980
276	290
277	1720
278	230
279	840
280	110
281	10
284	10
285	10
286	30
287	180
288	870
289	310
290	840
291	1740
292	250
293	3130
294	340
295	1530
296	150
297	20
298	10
299	10
300	20
301	60
302	160
303	120
304	160
305	60
310	10
311	20
312	10
313	60
314	10
315	40
316	20
323	10
324	20
325	20
326	30
327	10
328	20
329	10
337	30
338	110
339	110
340	190
341	80
342	100
343	20
344	10
351	10
352	40
353	50
354	40
355	70
356	30
357	20
358	10
366	170
367	270
368	350
369	470
370	220
371	240
372	20
380	10
381	110
382	60
383	190
384	60
385	100
386	10
420	10
422	40
424	30
426	10
431	20
432	20
433	70
434	110
435	100
436	110
437	50
438	20
439	10
445	10
446	160
447	120
448	480
449	180
450	460
451	130
452	150
453	50
459	10
460	10
461	50
462	60
463	60
464	60
465	20
466	30
468	10
513	10
515	10
517	10
525	1800
526	280
527	6999
528	1070
529	9999
530	1500
531	6469
532	970
533	1650
534	240
535	20
540	450
541	90
542	1770
543	280
544	2550
545	410
546	1660
547	270
548	410
549	70
