Mass Spectrum: Bisphenol C
Formula: C17 H20 O2
CAS: 79-97-0
Molecular weight: 256
Origin: RADIAN CORP
m/z	RELATIVE INTENSITY
27	80
29	60
31	10
39	190
41	260
42	30
43	100
50	40
51	150
52	80
53	170
55	160
56	20
57	40
63	100
64	40
65	170
66	40
67	30
69	70
70	10
75	40
76	130
77	850
78	190
79	430
80	40
81	50
82	100
84	20
85	20
88	40
89	220
90	60
91	460
92	70
93	40
94	60
96	40
97	80
99	20
101	40
102	60
103	330
104	230
105	550
107	250
108	90
109	140
110	20
112	180
113	480
115	340
116	80
117	50
118	130
119	140
121	450
122	50
126	20
127	100
128	260
129	90
131	170
132	100
133	2150
134	290
135	70
139	60
140	10
141	110
142	30
143	20
144	30
145	50
147	80
148	70
149	570
150	80
151	50
152	200
153	170
154	60
155	50
157	50
158	30
159	30
163	20
164	30
165	300
166	80
167	60
168	60
169	60
170	20
171	50
172	30
176	40
177	30
178	130
179	150
180	60
181	330
182	210
183	90
184	20
185	30
189	30
190	20
191	30
193	30
194	70
195	140
196	90
197	220
198	80
199	20
205	30
207	100
208	110
209	70
210	120
211	320
212	140
213	120
214	10
215	50
223	100
224	70
225	320
226	260
227	170
228	10
239	50
241	9999
242	1770
243	190
256	1840
257	360
258	30
