Mass Spectrum: 7H-Purine, 7-benzyl-2,6-dichloro-
Formula: C12 H8 Cl2 N4
CAS: 79064-26-9
Molecular weight: 278
Origin: A.I. Gren, Phys.-Chem. Inst., Acad. Sci. Ukraine, Odessa, Ukraine
m/z	RELATIVE INTENSITY
50	201
51	313
54	215
55	1440
56	1764
57	1873
58	559
59	654
60	999
63	258
64	203
65	1250
67	431
68	383
69	1019
70	545
71	742
72	272
73	381
74	151
77	240
79	296
81	372
82	275
83	621
84	440
85	254
87	154
89	298
91	9999
92	927
94	220
95	384
96	293
97	504
98	511
102	176
105	359
107	226
109	227
114	223
115	298
121	170
122	210
123	170
129	296
139	196
180	217
181	257
274	160
277	313
278	1288
279	388
280	853
