Mass Spectrum: Carbamic acid, (2-(4-phenoxyphenoxy)ethyl)-, ethyl ester
Formula: C17 H19 N O4
CAS: 79127-80-3
Molecular weight: 301
Origin: NIST Mass Spectrometry Data Center, 1998.
m/z	RELATIVE INTENSITY
14	10
15	170
25	20
26	150
27	540
28	250
29	1210
30	720
31	1060
37	20
38	200
39	650
40	130
41	170
42	1870
43	380
44	2100
45	980
46	350
47	20
49	10
50	890
51	3080
52	360
53	350
54	300
55	210
56	260
57	120
60	20
61	40
62	200
63	990
64	670
65	780
66	170
67	30
68	30
69	20
70	1920
71	110
72	30
73	20
74	210
75	240
76	560
77	7509
78	1050
79	210
80	60
81	420
82	190
83	10
84	30
85	10
86	20
88	8329
89	410
90	80
91	240
92	210
93	250
94	190
95	30
96	10
101	40
102	360
103	240
104	60
105	120
106	130
107	90
108	20
109	1010
110	360
111	30
113	40
114	70
115	2050
116	9999
117	610
118	100
119	50
120	110
121	40
122	30
123	10
126	40
127	450
128	1150
129	2310
130	320
131	250
132	40
133	20
134	40
135	200
136	30
137	10
138	20
139	440
140	120
141	1310
142	170
143	40
144	40
145	20
150	10
151	20
152	40
153	120
154	30
155	90
156	30
157	880
158	520
159	70
160	10
163	20
165	20
167	40
168	240
169	330
170	110
171	210
172	30
179	20
181	40
182	10
183	80
184	100
185	2700
186	7529
187	1020
188	80
195	10
196	20
197	70
198	50
199	380
200	60
211	30
212	210
213	40
214	20
226	50
227	20
228	10
253	10
255	8479
256	1770
257	210
258	20
301	480
302	90
303	10
