Mass Spectrum: [1,1'-Biphenyl]-4,4'-dicarboxylic acid, dimethyl ester
Formula: C16 H14 O4
CAS: 792-74-5
Molecular weight: 270
Origin: Japan AIST/NIMC Database- Spectrum MS-NW-9403
m/z	RELATIVE INTENSITY
15	369
16	10
17	10
18	40
27	30
28	149
29	70
30	30
31	30
32	50
39	80
41	30
43	30
44	70
50	169
51	159
52	30
53	10
55	30
57	60
58	20
59	699
60	20
61	10
62	80
63	609
64	20
65	20
67	10
69	20
70	109
71	20
73	10
74	139
75	389
76	2209
77	159
78	30
81	10
82	10
83	20
85	10
86	40
87	70
88	20
89	60
90	1079
91	50
92	20
96	10
97	20
98	50
99	70
100	40
101	90
102	99
103	20
104	1549
105	60
106	10
107	10
110	10
111	20
113	40
114	40
115	50
119	229
120	90
121	20
122	10
123	20
124	10
125	99
126	249
127	50
128	50
129	30
135	70
137	10
138	10
139	149
140	90
141	40
149	50
150	439
151	1199
152	3609
153	559
154	60
155	50
163	10
164	20
165	649
166	319
167	239
168	209
169	30
179	449
180	249
181	99
182	20
183	159
184	20
193	10
195	80
196	409
197	60
209	20
210	30
211	249
212	60
223	10
225	149
226	30
238	10
239	9999
240	1669
241	189
242	10
269	99
270	7189
271	1279
272	159
273	10
