Mass Spectrum: 3,5-Dihydroxybenzoic acid, 3TMS derivative
Formula: C16 H30 O4 Si3
CAS: 79314-27-5
Molecular weight: 370
Origin: NIST Mass Spectrometry Data Center
m/z	RELATIVE INTENSITY
29	10
43	50
44	40
45	300
46	20
47	30
51	10
53	10
55	10
57	20
58	20
59	70
60	10
61	20
62	10
63	130
64	10
66	10
67	10
69	20
70	10
71	20
73	3603
74	320
75	330
76	30
77	80
78	20
79	20
81	10
83	80
84	10
85	40
87	20
88	10
89	30
90	10
91	150
92	20
93	60
94	10
95	30
96	10
97	40
98	10
99	140
100	10
101	10
102	10
103	270
104	50
105	110
106	20
107	50
109	80
110	10
111	30
112	10
113	10
115	50
116	10
117	80
118	20
119	150
120	30
121	90
122	20
123	30
124	10
125	10
126	10
127	20
128	10
129	30
130	10
131	150
132	30
133	1011
134	150
135	210
136	30
137	110
138	20
139	10
140	10
141	40
142	10
143	100
144	10
145	40
147	1591
148	270
149	340
150	50
151	60
152	20
153	30
154	10
155	60
156	10
157	100
158	20
159	30
160	10
161	50
162	50
163	240
164	80
165	120
166	20
167	40
168	10
169	40
170	1231
171	571
172	70
173	60
174	10
175	20
176	10
177	110
178	50
179	170
180	80
181	60
182	10
183	30
184	10
185	10
189	20
190	10
191	60
192	20
193	140
194	30
195	90
196	20
197	40
198	10
199	10
203	10
205	30
206	10
207	130
208	30
209	70
210	90
211	60
212	10
213	10
219	10
220	10
221	80
222	20
223	140
224	30
225	30
226	10
233	10
235	50
236	30
237	480
238	110
239	110
240	20
241	10
242	10
249	30
250	30
251	140
252	230
253	300
254	110
255	40
256	10
263	10
265	430
266	110
267	220
268	110
269	50
270	10
279	110
280	40
281	1732
282	480
283	190
284	40
285	10
293	10
295	80
296	20
297	50
298	20
299	10
309	30
311	2522
312	771
313	360
314	80
315	20
324	10
325	20
326	10
327	60
328	20
329	10
337	10
339	120
340	40
341	30
342	40
343	10
344	10
353	50
355	9068
356	3153
357	1501
358	320
359	80
360	10
368	10
370	9999
371	3663
372	1742
373	370
374	90
375	10
