Mass Spectrum: 3,5-Difluorobenzyl alcohol
Formula: C7 H6 F2 O
CAS: 79538-20-8
Molecular weight: 144
Origin: NIST Mass Spectrometry Data Center, 1994
m/z	RELATIVE INTENSITY
14	23
15	61
17	87
18	130
19	78
25	55
26	185
27	367
28	270
29	3916
30	516
31	3948
33	143
36	74
37	633
38	878
39	892
40	40
44	213
45	223
46	51
47	91
48	183
49	381
50	1793
51	1420
52	225
53	155
55	130
56	412
57	1512
58	85
60	68
61	714
62	1137
63	3355
64	373
65	176
66	63
67	63
68	937
69	772
70	651
71	63
72	363
73	249
74	1065
75	2738
76	368
77	698
79	99
80	219
81	887
82	132
83	175
84	95
85	128
86	184
87	211
88	798
89	162
92	240
93	518
94	698
95	8138
96	1914
97	1127
98	108
99	193
100	117
101	1187
102	75
105	172
107	809
108	90
112	249
113	1904
114	2378
115	9999
116	800
117	57
123	6057
124	1432
125	1428
126	1073
127	2745
128	235
141	710
143	4282
144	8406
145	635
146	44
