Mass Spectrum: 2,4,6-Trifluorobenzoyl chloride
Formula: C7 H2 Cl F3 O
CAS: 79538-29-7
Molecular weight: 194
Origin: NIST Mass Spectrometry Data Center
m/z	RELATIVE INTENSITY
12	10
16	20
18	20
19	10
20	10
24	10
25	10
28	350
31	1371
32	90
35	420
36	110
37	540
38	90
44	80
47	30
48	40
49	100
50	200
51	40
53	10
55	120
56	300
57	200
58	10
60	100
61	711
62	561
63	140
65	70
67	50
68	370
69	60
70	10
71	80
72	30
73	70
74	160
75	380
76	10
77	10
80	1291
81	3563
82	200
83	80
84	50
85	20
86	170
87	190
88	20
89	10
90	20
91	40
92	190
93	110
95	10
97	30
98	60
99	350
100	110
103	10
104	20
105	20
108	10
109	10
110	50
111	120
112	180
115	20
117	10
123	30
128	150
131	4094
132	260
133	10
135	10
140	30
143	50
147	10
159	9999
160	761
161	40
165	10
166	20
194	130
195	10
196	40
