Mass Spectrum: 2,4,6-Trimethyl-1,6-heptadien-4-ol
Formula: C10 H18 O
CAS: 79604-66-3
Molecular weight: 154
Origin: NIST Mass Spectrometry Data Center, 1990.
m/z	RELATIVE INTENSITY
15	63
26	50
27	525
28	62
29	550
31	64
38	149
39	1331
40	303
41	1159
42	50
43	9999
44	242
45	56
50	140
51	266
52	119
53	567
54	131
55	1086
56	412
57	298
58	124
63	88
65	157
66	63
67	209
69	139
77	416
78	97
79	728
80	103
81	249
82	63
83	607
85	35
91	395
92	65
93	502
94	111
95	97
96	242
97	54
98	251
99	2411
100	157
103	62
105	366
106	92
107	225
108	221
119	154
121	586
122	63
136	147
