Mass Spectrum: 5-Bromo-2-ethoxybenzaldehyde
Formula: C9 H9 Br O2
CAS: 79636-94-5
Molecular weight: 228
Origin: NIST Mass Spectrometry Data Center
m/z	RELATIVE INTENSITY
15	350
16	140
17	160
26	571
27	2202
28	230
29	2512
37	400
38	1051
39	1221
41	110
43	741
49	160
50	1171
51	390
53	1311
55	190
61	741
62	1651
63	4214
64	1692
65	1832
66	290
73	260
74	1181
75	1872
76	691
77	380
91	390
92	681
93	510
117	621
119	510
120	300
121	380
131	330
142	230
143	1381
144	220
145	1241
154	921
155	330
156	1001
157	330
170	290
171	961
172	1031
173	881
174	641
182	1621
183	280
184	1752
185	520
199	9679
200	4504
201	9999
202	4014
203	390
209	430
210	460
211	540
212	561
213	400
215	250
228	3853
229	460
230	3683
231	370
