Mass Spectrum: 3-Oxo-.alpha.-ionone
Formula: C13 H18 O2
CAS: 79734-43-3
Molecular weight: 206
Origin: Philip Morris R&D
m/z	RELATIVE INTENSITY
42	108
43	4218
44	716
45	43
47	94
48	67
49	1021
50	113
51	500
52	123
53	243
54	54
55	376
56	128
57	267
58	61
59	47
60	21
63	70
65	184
66	45
67	174
68	39
69	289
70	94
71	119
72	46
73	34
75	81
76	37
77	940
78	220
79	796
80	370
81	210
82	226
83	197
84	839
85	61
86	477
87	25
88	95
89	67
90	161
91	588
92	58
93	179
94	57
95	170
96	93
97	112
98	41
99	67
100	21
103	85
104	24
105	222
106	83
107	1529
108	9999
109	1493
110	173
111	33
115	74
117	57
119	122
120	41
121	329
122	143
123	77
128	33
129	50
130	53
131	166
132	41
133	85
134	31
135	553
136	82
137	69
138	32
143	20
145	66
147	101
148	36
149	471
150	3575
151	473
152	56
155	23
162	29
164	133
165	182
166	30
168	30
173	62
174	23
191	295
192	31
