Mass Spectrum: Benzene, 1,1'-sulfonylbis[4-chloro-
Formula: C12 H8 Cl2 O2 S
CAS: 80-07-9
Molecular weight: 286
Origin: NIST Mass Spectrometry Data Center, 2010
m/z	RELATIVE INTENSITY
27	20
36	20
37	20
38	70
39	60
45	70
49	40
50	801
51	420
52	20
53	10
60	20
61	90
62	70
63	210
64	80
65	30
66	10
69	80
70	30
71	20
72	20
73	240
74	621
75	2692
76	571
77	60
79	70
81	30
82	20
83	10
84	70
85	340
86	50
87	210
88	10
89	30
91	20
93	160
94	50
95	90
96	80
97	20
98	40
99	530
100	50
101	200
102	30
103	10
105	20
107	30
108	230
109	40
110	70
111	3073
112	460
113	951
114	110
115	90
116	10
117	40
123	30
124	70
125	30
126	40
127	380
128	40
129	130
130	10
131	881
132	50
133	310
134	20
135	20
136	30
138	10
139	60
140	10
141	10
142	60
143	110
144	40
145	60
146	10
149	40
150	150
151	180
152	340
153	40
155	10
157	10
159	9999
160	761
161	3673
162	290
163	150
164	20
167	10
168	80
170	10
171	20
173	20
175	230
176	20
177	80
178	10
179	10
182	10
183	30
184	60
185	30
186	240
187	50
188	90
189	10
202	40
205	30
209	20
211	10
217	10
218	30
219	20
220	10
221	20
222	100
223	10
224	60
233	10
236	10
249	10
250	10
251	10
252	10
254	60
255	20
256	30
285	40
286	2132
287	370
288	1491
289	200
290	300
291	40
292	10
