Mass Spectrum: Phenol, 4,4'-(1-methylethylidene)bis-
Formula: C15 H16 O2
CAS: 80-05-7
Molecular weight: 228
Origin: NIST Mass Spectrometry Data Center, 1998.
m/z	RELATIVE INTENSITY
27	50
29	30
38	30
39	290
40	30
41	160
42	10
43	40
50	50
51	150
52	40
53	100
54	10
55	150
57	10
62	50
63	180
64	70
65	530
66	100
67	20
68	10
69	30
70	30
71	20
72	20
74	30
75	70
76	140
77	380
78	70
79	110
80	10
81	30
82	100
84	80
85	30
86	20
87	30
88	40
89	140
90	210
91	1000
92	100
93	40
94	120
95	130
96	20
97	90
98	20
99	520
101	70
102	50
103	80
104	50
105	110
106	20
107	510
108	40
113	40
114	120
115	290
116	50
117	20
118	80
119	1980
120	280
121	50
126	30
127	110
128	140
129	60
130	10
131	100
132	20
133	50
134	60
135	430
136	40
139	120
140	40
141	150
142	50
143	20
144	60
145	70
146	10
150	20
151	90
152	260
153	150
154	40
155	60
156	10
157	110
158	40
159	10
163	20
164	40
165	380
166	140
167	120
168	130
169	300
170	90
171	50
176	60
177	110
178	40
179	20
180	10
181	160
182	50
183	140
184	90
185	40
186	20
187	20
193	20
194	60
195	170
196	40
197	290
198	260
199	100
200	10
209	20
210	20
211	90
212	10
213	9999
214	1690
215	170
216	10
228	2480
229	410
230	40
