Mass Spectrum: Benzenesulfonic acid, hydrazide
Formula: C6 H8 N2 O2 S
CAS: 80-17-1
Molecular weight: 172
Origin: Japan AIST/NIMC Database- Spectrum MS-NW-2296
m/z	RELATIVE INTENSITY
14	20
15	20
16	30
17	99
18	569
26	50
27	379
28	609
29	1219
30	1179
31	9779
32	139
34	10
36	10
37	119
38	219
39	749
40	50
41	30
43	10
44	60
45	209
46	10
47	10
48	279
49	99
50	1449
51	4929
52	619
53	229
54	20
55	20
57	40
58	40
59	10
60	10
61	50
62	90
63	179
64	339
65	839
66	489
67	30
68	10
69	229
70	40
71	40
73	90
74	419
75	269
76	349
77	9999
78	8939
79	2829
80	199
81	90
82	60
83	20
84	60
91	189
92	479
93	259
94	959
95	259
96	20
97	589
98	40
99	30
107	50
108	159
109	419
110	409
111	50
112	20
119	10
125	1899
126	459
127	109
128	20
141	279
142	1949
143	5299
144	489
145	269
146	20
152	10
154	20
157	20
172	829
173	70
174	40
