Mass Spectrum: Halazone
Formula: C7 H5 Cl2 N O4 S
CAS: 80-13-7
Molecular weight: 269
Origin: Japan AIST/NIMC Database- Spectrum MS-NW-2554
m/z	RELATIVE INTENSITY
12	11
14	22
16	56
26	33
27	222
28	667
29	56
30	22
31	11
32	89
35	1291
37	433
39	1313
40	56
41	78
42	22
43	78
44	934
45	355
46	45
47	22
48	578
49	89
50	1792
51	1257
52	188
53	277
54	33
55	67
56	22
57	45
58	11
60	22
61	78
62	133
63	366
64	1157
65	7582
66	467
67	45
68	11
69	110
70	545
71	22
72	389
73	133
74	712
75	1324
76	1669
77	422
78	100
79	78
80	56
81	144
82	33
83	22
84	56
85	33
86	45
87	22
89	33
90	100
91	177
92	199
93	912
94	89
95	56
96	33
97	33
99	22
102	33
103	522
104	567
105	255
106	33
107	144
108	133
109	45
110	22
111	67
112	11
113	56
114	11
117	22
118	11
119	78
120	277
121	9999
122	923
123	89
124	45
125	22
128	11
130	11
135	22
136	45
137	1859
138	856
139	277
140	56
141	100
142	67
144	11
149	22
152	22
153	11
154	11
155	22
156	89
157	33
158	33
165	33
166	33
167	45
168	11
169	89
170	45
171	22
172	11
184	100
185	5578
186	489
187	311
188	22
218	11
220	100
222	33
