Mass Spectrum: Benzenesulfonamide, 3-amino-N-butyl-4-methoxy-
Formula: C11 H18 N2 O3 S
CAS: 80-22-8
Molecular weight: 258
Origin: NIST Mass Spectrometry Data Center, 1992
m/z	RELATIVE INTENSITY
13	14
14	7
15	174
17	35
18	189
26	54
27	671
28	1036
29	583
30	667
32	60
37	18
38	93
39	454
40	90
41	858
42	235
43	250
44	84
45	33
47	11
48	32
50	158
51	641
52	1396
53	523
54	203
55	132
56	59
57	125
58	37
60	19
61	33
62	83
63	244
64	237
65	874
66	190
67	699
68	125
69	52
70	44
71	19
72	3116
73	177
74	29
75	34
76	19
77	1322
78	796
79	1428
80	635
81	71
82	32
83	29
84	38
85	20
86	13
87	8
88	11
89	35
90	298
91	214
92	864
93	633
94	412
95	299
96	110
97	20
98	14
99	56
100	26
101	13
102	9
103	20
104	46
105	77
106	298
107	747
108	2425
109	207
110	197
111	49
112	18
117	6
118	18
119	35
120	116
121	6
122	9999
123	4613
124	569
125	36
126	11
127	35
132	10
133	22
134	26
135	51
136	134
137	82
138	323
139	178
140	27
141	8
142	18
146	18
147	10
148	10
149	47
150	100
151	248
152	43
153	11
154	50
155	319
156	25
157	2
161	16
162	43
163	15
164	53
165	208
166	20
170	285
171	37
172	53
173	9
176	7
177	12
179	389
180	56
181	8
182	12
183	13
186	5903
187	1647
188	414
189	86
193	32
194	13
200	8
202	150
203	16
204	8
212	16
214	39
215	311
216	35
217	20
229	7
243	18
255	16
256	22
258	4078
259	548
260	220
261	25
