Mass Spectrum: Sulfamethoxypyridazine
Formula: C11 H12 N4 O3 S
CAS: 80-35-3
Molecular weight: 280
Origin: A.A.Kutin, Moscow, Russia
m/z	RELATIVE INTENSITY
33	9
34	4
36	21
37	53
38	192
39	814
40	134
41	226
42	118
43	198
45	168
46	5
47	8
48	24
50	62
51	126
52	1073
53	1465
54	251
55	62
56	12
57	16
58	19
59	8
60	20
61	27
62	64
63	276
64	303
65	2785
66	397
67	62
69	1348
70	62
71	18
72	19
73	86
74	26
75	65
76	35
77	41
78	66
79	245
80	824
81	425
82	53
83	20
84	15
85	18
86	8
87	8
88	7
89	53
90	90
91	256
92	4130
93	634
95	108
96	129
97	38
98	19
99	11
100	14
101	29
102	6
103	6
104	16
105	143
106	466
107	491
108	2311
109	254
111	253
112	40
113	6
114	3
115	5
116	8
117	37
118	86
119	42
120	47
121	16
122	38
123	64
124	237
125	94
126	35
127	1
128	15
129	17
130	15
131	47
132	37
133	12
134	9
135	6
136	6
137	2
138	5
140	701
141	90
142	43
143	24
144	71
145	226
146	62
147	15
148	18
149	6
150	1
151	1
152	4
156	802
157	123
158	151
159	49
160	26
161	7
162	3
163	4
165	54
166	5
167	1
168	5
169	4
170	17
171	29
172	182
173	43
174	44
175	10
176	2
178	2
180	2
181	6
182	12
183	27
184	66
185	83
186	36
187	26
188	23
189	7
190	1
195	1
197	1
198	13
199	20
200	214
201	86
202	9
203	1
204	1
209	3
210	1
211	1
212	6
213	23
215	9999
216	4829
217	569
218	50
219	284
220	178
221	110
222	52
223	7
229	4
230	2
231	1
250	2
263	25
264	2
279	15
280	677
281	106
282	42
283	6
