Mass Spectrum: Ovex
Formula: C12 H8 Cl2 O3 S
CAS: 80-33-1
Molecular weight: 302
Origin: AAFS Toxicology Section MS DB Committee, U. Alberta, Canada
m/z	RELATIVE INTENSITY
40	40
45	60
47	90
48	150
49	240
50	1531
51	670
52	40
53	80
60	50
61	390
62	850
63	2692
64	670
65	140
69	150
70	40
71	40
72	220
73	3383
74	1611
75	7146
76	1221
77	100
79	60
81	50
82	70
84	180
85	800
86	120
87	370
89	70
92	80
93	30
95	100
96	60
97	60
99	5935
100	370
101	1761
107	40
108	140
109	50
111	9999
112	680
113	3132
114	280
115	70
127	1781
128	320
129	580
130	260
133	90
139	310
140	190
141	40
149	150
151	40
159	230
161	70
168	110
173	40
175	8317
176	650
177	3132
178	230
179	130
202	40
302	3413
303	460
304	2161
305	330
306	490
307	50
