Mass Spectrum: Benzenesulfonamide, N-cyclohexyl-4-methyl-
Formula: C13 H19 N O2 S
CAS: 80-30-8
Molecular weight: 253
Origin: Japan AIST/NIMC Database- Spectrum MS-IW-4592
m/z	RELATIVE INTENSITY
15	30
26	10
27	219
28	529
29	229
30	379
34	10
38	30
39	519
40	60
41	719
42	169
43	359
44	129
45	30
46	20
48	10
50	60
51	159
52	50
53	139
54	279
55	569
56	479
57	30
61	10
62	50
63	239
64	90
65	1259
66	90
67	329
68	99
69	90
70	99
71	50
74	10
75	20
76	20
77	159
78	60
79	129
80	40
81	339
82	609
83	80
84	50
86	10
87	10
88	10
89	339
90	239
91	6619
92	879
93	90
94	10
95	10
96	60
97	50
98	3479
99	259
100	10
103	10
104	20
105	90
106	259
107	129
108	60
109	10
111	20
115	10
117	30
118	30
119	20
120	30
121	20
122	10
123	30
124	70
125	10
130	40
131	30
132	80
133	509
134	50
138	10
139	259
140	60
141	20
143	10
144	20
145	10
146	199
147	40
153	10
154	10
155	6769
156	609
157	449
158	40
159	10
160	10
161	10
162	20
171	30
172	929
173	80
174	50
184	299
185	40
186	20
188	40
189	50
197	50
198	10
210	9999
211	1249
212	559
213	60
224	529
225	70
226	20
251	20
252	70
253	5979
254	939
255	359
256	50
