Mass Spectrum: Benzenesulfonic acid, 4-methyl-, methyl ester
Formula: C8 H10 O3 S
CAS: 80-48-8
Molecular weight: 186
Origin: Japan AIST/NIMC Database- Spectrum MS-NW- 746
m/z	RELATIVE INTENSITY
15	339
17	20
18	70
26	20
27	149
28	239
29	10
30	30
31	20
32	159
37	30
38	129
39	1159
40	90
41	349
42	90
43	179
44	20
45	60
48	40
49	10
50	339
51	499
52	139
53	129
54	10
58	10
61	50
62	239
63	839
64	229
65	2089
66	119
67	20
68	10
69	10
70	20
71	20
74	60
75	70
76	40
77	469
78	109
79	369
80	40
81	10
82	30
83	10
84	20
85	20
86	20
87	40
88	20
89	739
90	609
91	9999
92	1499
93	99
95	30
100	10
105	20
106	40
107	1129
108	129
109	20
111	20
112	70
121	179
122	489
123	60
137	50
138	10
139	139
154	40
155	4069
156	359
157	199
186	4259
187	419
188	249
189	20
