Mass Spectrum: Lilial
Formula: C14 H20 O
CAS: 80-54-6
Molecular weight: 204
Origin: NIST Mass Spectrometry Data Center, 1992
m/z	RELATIVE INTENSITY
13	10
14	4
15	174
16	4
17	34
18	189
26	62
27	542
28	316
29	1205
30	24
31	30
32	52
37	8
39	829
40	123
41	1603
42	93
43	391
44	7
45	22
50	106
51	415
52	106
53	275
55	287
57	1278
58	112
59	24
61	9
62	58
63	285
64	331
65	698
66	137
67	50
69	114
70	44
71	135
72	48
73	80
74	51
75	87
76	122
77	652
78	358
79	318
80	94
81	48
83	24
85	18
86	42
87	94
88	40
89	281
90	18
91	2535
92	460
93	92
95	24
101	37
102	160
103	346
104	367
105	1113
106	115
107	157
108	11
113	28
115	1542
116	694
117	2612
118	356
119	1938
120	262
121	34
126	35
127	228
128	657
129	595
130	1071
131	3969
132	1946
133	491
134	169
135	14
139	30
141	108
142	64
143	163
144	14
145	947
146	14
147	4124
148	948
149	88
152	19
153	17
154	14
155	17
156	46
157	26
158	23
159	134
160	112
161	332
162	44
169	18
171	62
172	29
173	31
174	33
175	22
185	1
187	222
189	9999
190	1350
191	134
192	9
201	9
202	39
204	1949
205	309
206	28
