Mass Spectrum: Bicyclo[3.1.1]hept-3-en-2-one, 4,6,6-trimethyl-
Formula: C10 H14 O
CAS: 80-57-9
Molecular weight: 150
m/z	RELATIVE INTENSITY
17	90
20	100
26	160
27	3163
28	751
29	1471
37	80
38	370
39	4264
40	841
41	4144
42	390
43	1181
44	60
45	50
46	60
50	450
51	1251
52	651
53	1862
54	540
55	2432
56	240
57	100
58	50
59	90
62	110
63	480
64	110
65	1291
66	681
67	2072
68	240
69	851
70	1281
71	100
74	70
75	100
76	60
77	2072
78	591
79	3783
80	5745
81	991
82	1892
83	791
89	80
90	150
91	5855
92	941
93	1151
94	921
95	1952
96	601
103	240
104	50
105	1561
106	390
107	9999
108	3173
109	1792
110	200
115	320
116	110
117	460
118	60
119	130
120	110
121	831
122	1591
123	370
131	60
132	60
133	130
134	60
135	8057
136	751
137	50
145	60
146	70
149	430
150	5975
151	661
