Mass Spectrum: Tiglic acid
Formula: C5 H8 O2
CAS: 80-59-1
Molecular weight: 100
Origin: NIST Mass Spectrometry Data Center, 1998.
m/z	RELATIVE INTENSITY
14	10
15	30
25	50
26	510
27	2810
28	950
29	2660
30	50
31	100
36	10
37	290
38	510
39	4320
40	400
41	1990
42	240
43	1320
44	180
45	1850
46	50
47	10
48	20
49	320
50	1490
51	1520
52	590
53	3300
54	3570
55	9999
56	1170
57	870
58	130
59	10
60	150
61	10
62	10
63	10
65	10
66	20
67	190
68	20
69	120
70	10
71	270
72	250
73	160
74	80
77	10
79	10
81	240
82	2130
83	1140
84	70
85	2930
86	120
87	20
97	10
98	10
99	320
100	6899
101	370
102	20
