Mass Spectrum: Cyclohexanemethanamine, 4-amino-.alpha.,.alpha.,4-trimethyl-
Formula: C10 H22 N2
CAS: 80-52-4
Molecular weight: 170
Origin: NIST Mass Spectrometry Data Center, 1998.
m/z	RELATIVE INTENSITY
15	30
26	10
27	90
28	80
29	110
30	340
31	10
38	10
39	210
40	40
41	640
42	1210
43	290
44	240
45	10
47	10
50	10
51	40
52	20
53	180
54	170
55	390
56	230
57	2040
58	9999
59	410
60	10
62	10
63	10
65	60
66	40
67	280
68	200
69	240
70	2270
71	250
72	20
77	100
78	20
79	130
80	70
81	930
82	300
83	70
84	220
85	20
91	70
92	20
93	130
94	100
95	180
96	300
97	40
98	110
99	10
105	30
106	20
107	110
108	80
109	40
110	410
111	50
112	120
113	1220
114	110
115	10
119	10
120	10
121	70
122	50
123	20
124	830
125	90
126	10
136	50
137	30
138	1070
139	110
140	10
153	500
154	60
155	30
171	10
