Mass Spectrum: 2-Bromobutyric acid
Formula: C4 H7 Br O2
CAS: 80-58-0
Molecular weight: 166
Origin: Japan AIST/NIMC Database- Spectrum MS-NW-4339
m/z	RELATIVE INTENSITY
12	20
13	30
14	90
15	339
16	30
17	30
18	109
24	20
25	99
26	789
27	4009
28	629
29	1049
30	60
31	419
32	109
33	10
34	10
36	70
37	429
38	729
39	4239
40	1059
41	9999
42	3289
43	3419
44	489
45	3939
46	99
47	30
49	20
50	30
51	20
52	10
53	139
54	60
55	1089
56	60
57	329
58	209
59	209
60	419
61	10
66	20
67	30
68	889
69	1849
70	309
71	359
72	60
73	259
74	20
77	20
79	379
80	679
81	409
82	669
83	20
84	10
85	169
86	729
87	5589
88	279
89	30
91	30
92	70
93	239
94	119
95	209
96	60
97	10
104	10
105	80
106	90
107	169
108	80
109	119
111	40
117	10
118	10
119	50
120	889
121	759
122	899
123	719
124	129
125	30
127	60
128	50
133	40
135	40
137	10
138	7749
139	189
140	7719
141	189
142	40
146	10
148	20
149	119
150	10
151	129
152	10
153	30
164	20
165	10
166	70
167	30
168	50
169	10
