Mass Spectrum: 2-Propenoic acid, 2-chloro-, methyl ester
Formula: C4 H5 Cl O2
CAS: 80-63-7
Molecular weight: 120
Origin: NIST Mass Spectrometry Data Center
m/z	RELATIVE INTENSITY
13	10
14	60
15	621
16	10
24	50
25	360
26	1692
27	240
29	801
30	170
31	370
35	110
36	60
37	110
38	60
39	380
40	330
41	1241
42	300
43	30
44	110
45	220
47	100
48	40
49	200
50	30
51	50
52	130
53	1682
54	1121
55	220
56	60
57	120
59	4554
60	1111
61	9999
62	681
63	3343
64	130
65	20
74	140
75	290
76	240
77	100
78	80
79	10
85	2682
86	110
87	30
89	8788
90	510
91	2963
92	230
93	30
94	20
102	2112
103	100
104	671
105	220
107	60
119	751
120	5265
121	490
122	1692
123	70
