Mass Spectrum: Guanidine, N,N,N',N'-tetramethyl-
Formula: C5 H13 N3
CAS: 80-70-6
Molecular weight: 115
Origin: Japan AIST/NIMC Database- Spectrum MS-NW-1067
m/z	RELATIVE INTENSITY
14	40
15	719
16	10
17	10
18	10
26	20
27	119
28	469
29	169
30	639
31	20
32	20
38	20
39	40
40	119
41	209
42	1839
43	739
44	5819
45	1809
46	269
47	10
49	10
53	129
54	30
55	699
56	549
57	3039
58	159
59	20
67	20
69	939
70	499
71	9999
72	3519
73	369
74	10
75	20
81	10
85	60
86	749
87	40
91	10
98	30
100	469
101	30
114	20
115	4209
116	299
