Mass Spectrum: Pregn-4-ene-3,20-dione, 11-hydroxy-, (11.alpha.)-
Formula: C21 H30 O3
CAS: 80-75-1
Molecular weight: 330
Origin: NIST Mass Spectrometry Data Center
m/z	RELATIVE INTENSITY
15	60
26	10
27	280
28	30
29	510
30	10
31	60
38	10
39	711
40	150
41	2302
42	180
43	9999
44	250
45	260
47	10
50	30
51	260
52	180
53	1421
54	180
55	3033
56	160
57	440
58	80
59	30
61	10
62	10
63	80
64	50
65	861
66	330
67	2072
68	270
69	881
70	120
71	1231
72	90
73	20
74	10
75	20
76	30
77	2472
78	611
79	3453
80	581
81	2172
82	310
83	611
84	480
85	741
86	70
87	20
88	10
89	70
91	4594
92	741
93	2112
94	681
95	2182
96	641
97	781
98	320
99	130
101	30
102	60
103	470
104	270
105	2883
106	841
107	2452
108	971
109	2522
110	931
111	380
112	60
113	110
115	781
116	330
117	1251
118	410
119	1812
120	1371
121	2542
122	2472
123	4224
124	6826
125	1962
126	180
127	210
128	571
129	801
130	390
131	1421
132	671
133	1511
134	1331
135	1251
136	671
137	2242
138	420
139	90
140	20
141	300
142	250
143	861
144	400
145	1661
146	751
147	2372
148	751
149	681
150	200
151	220
152	100
153	140
154	80
155	320
156	170
157	611
158	250
159	1211
160	510
161	861
162	470
163	4504
164	641
165	290
166	90
167	150
168	70
169	250
170	160
171	550
172	310
173	951
174	380
175	611
176	270
177	200
178	90
179	110
180	50
181	110
182	60
183	260
184	140
185	430
186	180
187	350
188	180
189	530
190	1001
191	350
192	80
193	160
194	50
195	130
196	50
197	200
198	110
199	490
200	180
201	180
202	140
203	130
204	130
205	60
206	871
207	801
208	120
209	270
210	90
211	170
212	90
213	290
214	210
215	150
216	60
217	110
218	40
219	110
220	30
221	40
222	20
223	90
224	60
225	150
226	100
227	641
228	200
229	160
230	110
231	60
232	40
233	30
234	20
235	20
236	20
237	80
238	30
239	140
240	60
241	290
242	320
243	160
244	40
245	120
246	40
247	40
248	30
249	20
250	10
251	160
252	60
253	60
254	70
255	150
256	50
257	130
258	30
259	50
260	210
261	50
262	10
265	40
266	30
267	50
268	60
269	641
270	270
271	80
272	30
273	130
274	40
275	10
276	10
277	10
279	130
280	20
281	10
282	10
283	30
284	210
285	320
286	100
287	150
288	70
289	10
293	10
294	110
295	40
296	10
297	480
298	100
299	20
300	10
301	10
302	210
303	40
310	10
311	20
312	901
313	210
314	30
315	50
316	20
328	20
329	10
330	1371
331	330
332	50
