Mass Spectrum: Solanid-5-en-3-ol, (3.beta.)-
Formula: C27 H43 N O
CAS: 80-78-4
Molecular weight: 397
Origin: AAFS Toxicology Section MS DB Committee, U. Alberta, Canada
m/z	RELATIVE INTENSITY
41	370
42	140
43	450
44	120
45	80
51	20
53	130
54	120
55	840
56	240
57	670
58	100
59	50
60	120
61	20
63	10
65	120
66	60
67	610
68	250
69	590
70	200
71	270
72	40
73	160
74	20
76	10
77	350
78	110
79	690
80	350
81	660
82	520
83	370
84	520
85	200
86	100
87	80
89	40
91	910
92	160
93	560
94	570
95	530
96	320
97	390
98	1000
99	170
100	40
101	50
102	20
103	90
104	60
105	630
106	190
107	400
108	290
109	340
110	230
111	220
112	160
113	40
114	30
115	180
116	70
117	270
118	100
119	350
120	220
121	210
122	170
123	130
124	420
125	160
126	70
127	50
128	110
129	240
130	110
131	240
132	100
133	220
134	190
135	130
136	1121
137	210
138	80
139	40
140	20
141	80
142	70
143	220
144	100
145	210
146	110
147	120
148	240
150	9999
151	1471
152	510
153	90
154	50
155	70
157	120
158	50
159	110
160	60
161	60
162	240
164	220
165	150
166	100
167	60
168	50
169	110
171	80
172	30
173	40
174	50
175	50
176	160
177	50
178	390
179	80
180	20
181	40
183	30
184	10
185	70
186	30
187	30
188	50
189	50
190	130
191	260
192	170
193	40
194	20
195	20
196	20
198	10
199	50
200	30
201	10
202	40
204	2442
205	470
206	60
207	10
208	20
211	20
213	30
214	20
215	10
216	20
217	30
218	30
219	20
225	10
227	20
230	30
232	10
236	30
237	20
239	10
242	10
255	10
256	10
258	10
259	20
260	20
272	30
326	40
340	40
341	30
354	30
368	70
369	30
380	10
382	290
383	90
396	330
397	390
398	100
399	20
