Mass Spectrum: 2-Imidazolidinone, 1,3-dimethyl-
Formula: C5 H10 N2 O
CAS: 80-73-9
Molecular weight: 114
Origin: Japan AIST/NIMC Database- Spectrum MS-NW-1010
m/z	RELATIVE INTENSITY
14	70
15	1349
16	10
17	20
18	129
26	159
27	619
28	2039
29	629
30	719
31	60
32	50
38	20
39	50
40	219
41	539
42	3869
43	2769
44	5839
45	349
51	20
52	60
53	30
54	289
55	299
56	2579
57	689
58	1789
59	209
60	30
68	20
69	90
70	159
71	50
72	1439
73	70
83	109
84	70
85	959
86	109
87	10
88	10
97	50
98	179
99	249
100	20
111	70
112	329
113	5149
114	9999
115	649
116	40
