Mass Spectrum: Benzoic acid, 4-fluoro-, 4-methoxyphenyl ester
Formula: C14 H11 F O3
CAS: 80079-00-1
Molecular weight: 246
Origin: Zaikin V.G., TIPS RAS, Moscow, Russia
m/z	RELATIVE INTENSITY
28	10
39	30
41	70
50	40
51	40
52	60
54	40
63	30
64	20
65	30
69	40
75	310
76	30
80	30
94	80
95	1982
96	150
109	50
123	9999
124	751
125	40
246	1281
247	190
