Mass Spectrum: Ionone
Formula: C13 H20 O
CAS: 8013-90-9
Molecular weight: 192
Origin: Japan AIST/NIMC Database- Spectrum MS-NW-5255
m/z	RELATIVE INTENSITY
14	30
15	429
17	20
18	70
26	60
27	1219
28	90
29	929
30	20
31	70
37	20
38	90
39	1759
40	289
41	3129
42	169
43	9589
44	209
45	239
46	40
50	149
51	669
52	269
53	1189
54	139
55	1239
56	169
57	239
58	189
59	70
60	10
61	10
62	60
63	279
64	119
65	889
66	229
67	1109
68	199
69	1099
70	80
71	459
72	50
73	20
74	40
75	60
76	50
77	2639
78	619
79	1469
80	329
81	1269
82	309
83	159
84	80
85	149
86	60
87	20
89	80
90	30
91	2979
92	1359
93	8839
94	1029
95	1049
96	239
97	169
98	40
99	40
100	20
101	10
102	50
103	269
104	99
105	1109
106	539
107	2019
108	809
109	3119
110	419
111	179
112	259
113	30
114	10
115	269
116	119
117	349
118	229
119	1119
120	239
121	9999
122	1479
123	619
124	219
125	50
126	20
127	40
128	109
129	119
130	60
131	329
132	149
133	719
134	719
135	1869
136	6979
137	1269
138	109
139	30
141	50
142	70
143	60
144	129
145	109
146	40
147	169
148	80
149	1449
150	639
151	119
152	30
153	20
154	10
155	40
156	30
157	159
158	30
159	689
160	109
161	169
162	199
163	179
164	99
165	30
167	10
169	10
170	50
171	20
172	60
173	60
174	139
175	99
176	50
177	7169
178	959
179	99
180	10
188	10
189	20
190	40
191	179
192	1969
193	319
194	30
