Mass Spectrum: Chloromethyl 2-chlorohexanoate
Formula: C7 H12 Cl2 O2
CAS: 80418-53-7
Molecular weight: 198
Origin: ASES Database, Dalian Institute, P.R. China
m/z	RELATIVE INTENSITY
36	290
39	1911
41	9999
42	2302
43	4203
49	3002
51	990
55	4323
56	200
57	1080
63	400
67	700
68	200
69	8247
70	1090
71	190
76	1511
78	490
83	90
85	200
97	1681
98	300
99	100
105	690
106	4383
108	1491
132	390
133	990
134	190
135	290
142	5394
144	3454
146	600
