Mass Spectrum: Chloromethyl 5-chlorononanoate
Formula: C10 H18 Cl2 O2
CAS: 80418-74-2
Molecular weight: 240
Origin: ASES Database, Dalian Institute, P.R. China
m/z	RELATIVE INTENSITY
36	190
38	90
39	900
41	4193
42	1181
43	1771
49	810
51	290
53	690
54	1701
55	5484
56	1181
57	900
67	2111
68	1991
69	2582
70	700
71	790
72	780
76	100
79	200
81	2982
82	800
83	1101
84	2692
85	300
89	300
93	390
94	1291
95	1981
96	9999
97	2892
98	500
99	300
108	700
109	1090
110	1281
111	290
118	700
119	290
121	1291
132	300
135	500
138	3773
139	3393
175	1090
177	390
