Mass Spectrum: Chloromethyl 4-chloroheptanoate
Formula: C8 H14 Cl2 O2
CAS: 80418-60-6
Molecular weight: 212
Origin: ASES Database, Dalian Institute, P.R. China
m/z	RELATIVE INTENSITY
36	200
39	1791
41	4634
42	2592
43	3403
49	1511
51	490
53	980
54	390
55	6966
56	1101
57	1010
67	1501
68	6015
69	4784
70	300
71	190
72	6195
74	2101
76	500
77	290
79	200
81	1000
82	2672
83	3803
84	490
85	1511
89	200
93	190
95	100
97	90
105	1301
107	400
108	9999
109	990
110	4884
111	3493
118	100
121	190
147	2712
149	900
