Mass Spectrum: Chloromethyl 6-chloroundecanoate
Formula: C12 H22 Cl2 O2
CAS: 80418-92-4
Molecular weight: 268
Origin: ASES Database, Dalian Institute, P.R. China
m/z	RELATIVE INTENSITY
36	1281
39	1491
41	6976
42	1811
43	3903
49	3983
53	990
54	1991
55	9999
56	2392
57	1511
67	3593
68	3102
69	4894
70	1481
71	700
72	1601
73	300
79	1000
81	2702
82	3292
83	3082
84	3403
85	890
93	390
95	1891
96	3202
97	1901
98	2402
108	1801
109	1000
110	790
111	900
119	500
121	500
122	590
123	1090
124	2482
125	400
137	490
148	190
149	1000
166	600
167	1090
