Mass Spectrum: Chloromethyl 6-chloroheptanoate
Formula: C8 H14 Cl2 O2
CAS: 80418-62-8
Molecular weight: 212
Origin: ASES Database, Dalian Institute, P.R. China
m/z	RELATIVE INTENSITY
36	500
39	1881
41	6055
42	2662
43	3052
49	1871
51	600
53	810
54	400
55	9999
56	1381
57	780
67	2181
68	7236
69	4704
70	400
71	200
72	5575
76	100
77	490
79	400
81	1191
82	3172
83	4474
84	590
85	1191
89	100
93	490
95	200
97	100
99	190
102	690
105	290
107	100
108	9568
109	490
110	7436
111	3893
118	290
119	290
121	1080
135	690
147	3272
149	1080
