Mass Spectrum: Chloromethyl 8-chlorodecanoate
Formula: C11 H20 Cl2 O2
CAS: 80418-85-5
Molecular weight: 254
Origin: ASES Database, Dalian Institute, P.R. China
m/z	RELATIVE INTENSITY
36	580
39	1311
41	6625
42	2021
43	2582
49	980
53	800
54	1401
55	9999
56	1981
57	1080
67	2402
68	3413
69	7416
70	1491
71	700
72	3913
73	300
81	2492
82	1301
83	2612
84	5084
85	1111
95	1691
96	2482
97	1301
98	2502
105	300
106	100
108	6305
109	1501
110	3292
111	2602
112	300
118	190
119	490
121	1000
123	1991
124	690
132	300
134	700
135	1391
152	2302
153	3102
189	890
191	290
