Mass Spectrum: Chloromethyl 3-chlorohexanoate
Formula: C7 H12 Cl2 O2
CAS: 80418-54-8
Molecular weight: 198
Origin: ASES Database, Dalian Institute, P.R. China
m/z	RELATIVE INTENSITY
36	190
39	2312
41	8627
42	2582
43	3673
49	2812
51	890
54	190
55	4383
56	390
57	190
63	300
67	1291
68	9999
69	7666
70	1000
71	6005
72	990
76	490
77	90
83	90
85	290
90	190
91	290
93	100
96	1891
97	4704
98	100
104	500
108	690
110	200
113	2101
121	190
132	690
133	3302
134	400
135	1181
163	290
