Mass Spectrum: Chloromethyl 7-chlorodecanoate
Formula: C11 H20 Cl2 O2
CAS: 80418-84-4
Molecular weight: 254
Origin: ASES Database, Dalian Institute, P.R. China
m/z	RELATIVE INTENSITY
36	1111
39	1391
41	6225
42	1871
43	2792
49	890
53	800
54	1781
55	9999
56	1691
57	1291
67	3072
68	2912
69	7396
70	1601
71	700
72	3373
73	390
79	1101
81	3613
82	1891
83	2582
84	5675
85	1090
93	590
95	1791
96	3613
97	2091
98	1401
105	190
106	90
108	590
109	1791
110	4403
111	2602
112	190
118	400
119	700
121	790
123	2191
124	790
132	90
134	600
135	1581
152	2492
153	3793
189	790
