Mass Spectrum: Chloromethyl 7-chloro-octanoate
Formula: C9 H16 Cl2 O2
CAS: 80418-69-5
Molecular weight: 226
Origin: ASES Database, Dalian Institute, P.R. China
m/z	RELATIVE INTENSITY
41	5745
43	2552
51	540
53	850
54	940
55	9999
56	1761
57	840
67	3102
68	910
69	1751
70	640
71	160
72	3963
73	330
75	260
77	400
79	660
80	270
81	1971
82	5094
83	3072
84	860
85	710
91	200
92	340
95	810
96	4434
97	1731
98	210
107	330
108	6475
109	560
110	2141
118	330
119	680
121	750
123	330
124	2111
125	2942
126	400
132	330
135	410
137	70
148	330
150	60
161	1711
162	60
163	510
164	20
