Mass Spectrum: Chloromethyl 7-chloroheptanoate
Formula: C8 H14 Cl2 O2
CAS: 80418-63-9
Molecular weight: 212
Origin: ASES Database, Dalian Institute, P.R. China
m/z	RELATIVE INTENSITY
36	280
39	1381
41	4804
42	2522
43	3122
49	1511
51	490
53	500
54	290
55	780
56	990
57	1191
67	1010
68	2392
69	2071
70	190
72	5895
77	290
79	300
81	590
82	1191
83	2592
84	800
85	900
93	100
95	100
105	790
107	300
108	9999
109	700
110	4003
111	900
118	200
121	390
135	190
147	2882
149	1000
