Mass Spectrum: Chloromethyl 9-chlorononanoate
Formula: C10 H18 Cl2 O2
CAS: 80418-78-6
Molecular weight: 240
Origin: ASES Database, Dalian Institute, P.R. China
m/z	RELATIVE INTENSITY
36	380
38	190
39	1191
41	5735
42	2282
43	3633
49	1171
51	390
53	500
54	590
55	8827
56	1211
57	1591
67	1391
68	790
69	4003
70	590
71	390
72	5975
77	290
79	400
81	1090
82	290
83	1181
84	2011
85	1791
93	290
94	400
95	690
96	1191
97	2181
98	2081
99	200
105	300
108	9999
109	990
110	3483
111	1000
119	100
121	3082
131	200
132	490
135	390
138	600
139	200
175	2702
177	900
