Mass Spectrum: Chloromethyl 8-chlorononanoate
Formula: C10 H18 Cl2 O2
CAS: 80418-77-5
Molecular weight: 240
Origin: ASES Database, Dalian Institute, P.R. China
m/z	RELATIVE INTENSITY
36	1611
38	600
39	1391
41	6565
42	1981
43	2882
49	1111
51	380
53	700
54	1501
55	9999
56	1601
57	890
67	2171
68	2101
69	5154
70	980
71	690
72	5004
77	290
79	900
81	2602
82	700
83	1681
84	2672
85	790
93	490
94	1401
95	2081
96	6796
97	4383
98	1481
102	90
105	190
108	8267
109	1581
110	3393
111	600
118	90
119	300
121	1681
132	300
135	400
138	3363
139	3603
175	1781
177	600
