Mass Spectrum: Chloromethyl 6-chloro-octanoate
Formula: C9 H16 Cl2 O2
CAS: 80418-68-4
Molecular weight: 226
Origin: ASES Database, Dalian Institute, P.R. China
m/z	RELATIVE INTENSITY
41	4824
43	2041
55	9999
56	2081
67	3573
68	1030
69	1681
70	690
71	330
72	4063
73	340
75	330
77	480
79	690
81	2212
82	6455
83	3443
84	520
85	820
89	170
91	330
93	370
95	1050
96	6215
97	2131
98	340
99	330
103	330
105	340
107	330
108	7156
109	510
110	2272
116	470
118	330
119	680
121	1161
123	400
124	3463
125	4474
126	330
131	300
132	330
135	890
137	340
148	160
149	410
161	2412
162	70
163	710
