Mass Spectrum: Chloromethyl 6-chlorohexanoate
Formula: C7 H12 Cl2 O2
CAS: 80418-57-1
Molecular weight: 198
Origin: ASES Database, Dalian Institute, P.R. China
m/z	RELATIVE INTENSITY
36	200
39	1481
41	6125
42	2592
43	2782
49	1901
51	680
54	390
55	3783
56	400
57	290
63	500
65	200
67	690
68	1481
69	5404
70	390
71	890
72	5394
77	190
83	90
85	500
96	190
97	700
104	290
105	300
106	90
107	90
108	9999
110	3393
113	90
121	590
132	200
133	3773
135	1401
