Mass Spectrum: Chloromethyl 4-chlorononanoate
Formula: C10 H18 Cl2 O2
CAS: 80418-73-1
Molecular weight: 240
Origin: ASES Database, Dalian Institute, P.R. China
m/z	RELATIVE INTENSITY
36	810
38	290
39	1581
41	6425
42	2222
43	5645
49	1171
51	390
53	910
54	2011
55	9238
56	2292
57	1681
67	2282
68	1401
69	3292
70	690
71	890
72	5464
76	90
77	390
79	700
81	3623
82	800
83	1801
84	1781
85	2402
89	200
93	500
94	880
95	1881
96	7917
97	6706
98	580
99	200
105	200
108	9999
109	1711
110	3813
111	400
118	590
119	600
121	1681
131	90
132	700
135	190
138	2091
139	3282
175	1801
177	590
