Mass Spectrum: Chloromethyl 4-chloropentanoate
Formula: C6 H10 Cl2 O2
CAS: 80418-52-6
Molecular weight: 184
Origin: ASES Database, Dalian Institute, P.R. China
m/z	RELATIVE INTENSITY
39	710
41	710
42	1511
43	1291
49	1801
51	600
53	500
54	290
55	6786
56	1291
57	390
63	1181
65	490
69	90
71	190
72	3312
77	390
79	100
82	390
83	2592
84	200
85	100
90	490
91	300
92	190
93	100
108	9999
110	3393
118	700
119	6505
120	490
121	2382
