Mass Spectrum: Chloromethyl 2-chloroheptanoate
Formula: C8 H14 Cl2 O2
CAS: 80418-58-2
Molecular weight: 212
Origin: ASES Database, Dalian Institute, P.R. China
m/z	RELATIVE INTENSITY
36	700
38	300
39	1881
41	5534
42	600
43	4484
49	1291
51	410
53	690
55	9778
56	2011
57	2091
67	910
68	1191
69	1411
70	600
71	1291
76	900
77	590
79	390
81	780
82	300
83	4574
84	1090
85	690
95	100
106	5605
108	1901
110	2101
111	390
119	590
121	100
142	9999
144	6365
146	1101
147	1090
149	390
