Mass Spectrum: Chloromethyl 3-chloroheptanoate
Formula: C8 H14 Cl2 O2
CAS: 80418-59-3
Molecular weight: 212
Origin: ASES Database, Dalian Institute, P.R. China
m/z	RELATIVE INTENSITY
36	290
39	290
41	8627
42	2482
43	2992
49	2302
51	780
53	1101
54	500
55	7076
56	1191
57	1201
67	1991
68	9999
69	5184
70	400
71	200
72	900
76	190
77	290
79	300
81	2212
82	5304
83	4303
84	490
85	1591
89	390
93	400
95	200
99	200
105	300
106	190
107	90
108	500
109	900
110	3613
111	4113
118	100
121	190
135	400
147	2101
149	700
177	990
179	300
