Mass Spectrum: Chloromethyl 2-chloropentanoate
Formula: C6 H10 Cl2 O2
CAS: 80418-50-4
Molecular weight: 184
Origin: ASES Database, Dalian Institute, P.R. China
m/z	RELATIVE INTENSITY
36	90
39	1000
41	990
42	200
43	580
49	2272
51	790
53	500
54	100
55	9999
56	900
57	90
62	200
63	500
65	190
71	100
76	1491
78	500
82	200
83	1601
84	190
85	100
91	3192
93	1080
95	390
106	5294
108	3302
110	490
119	2582
121	890
142	6896
144	4303
146	690
