Mass Spectrum: Chloromethyl 2-chlorononanoate
Formula: C10 H18 Cl2 O2
CAS: 80418-71-9
Molecular weight: 240
Origin: ASES Database, Dalian Institute, P.R. China
m/z	RELATIVE INTENSITY
36	90
39	2422
41	9999
42	2001
43	7016
49	1181
51	400
54	710
55	8627
56	1501
57	4383
67	1311
68	710
69	5004
70	1611
71	790
76	500
77	3813
78	200
79	1511
81	1791
83	1301
84	690
85	190
95	700
96	1101
97	2001
98	2802
99	600
105	6936
106	4203
107	2402
108	1000
111	1401
121	910
131	890
132	6025
135	1301
138	790
139	300
142	5334
144	3222
146	600
175	600
177	200
