Mass Spectrum: Chloromethyl 11-chloroundecanoate
Formula: C12 H22 Cl2 O2
CAS: 80418-97-9
Molecular weight: 268
Origin: ASES Database, Dalian Institute, P.R. China
m/z	RELATIVE INTENSITY
36	780
39	1711
41	5474
42	2011
43	3473
49	500
53	290
54	780
55	9999
56	1501
57	2902
67	1381
68	690
69	3793
70	790
71	500
72	2702
73	400
79	300
81	1301
82	590
83	1991
84	1591
85	2081
93	200
95	590
96	290
97	1401
98	3483
108	4283
109	290
111	700
121	1401
123	390
124	90
125	3002
137	390
148	100
149	190
203	700
