Mass Spectrum: Chloromethyl 10-chlorodecanoate
Formula: C11 H20 Cl2 O2
CAS: 80418-87-7
Molecular weight: 254
Origin: ASES Database, Dalian Institute, P.R. China
m/z	RELATIVE INTENSITY
36	380
39	1281
41	5735
42	1991
43	3633
49	910
53	600
54	890
55	9888
56	1211
57	2302
67	1701
68	1090
69	4784
70	910
71	490
72	5675
73	500
79	500
81	1181
82	700
83	2412
84	2171
85	2492
93	390
95	490
96	390
97	980
98	3513
105	390
108	9999
109	1201
110	100
111	400
112	900
118	100
119	200
121	3593
123	1291
124	90
132	590
134	190
135	390
152	200
177	390
189	2592
211	500
