Mass Spectrum: Chloromethyl 7-chlorononanoate
Formula: C10 H18 Cl2 O2
CAS: 80418-76-4
Molecular weight: 240
Origin: ASES Database, Dalian Institute, P.R. China
m/z	RELATIVE INTENSITY
36	490
38	190
39	1080
41	4764
42	1591
43	2081
49	1010
51	290
53	600
54	1581
55	9999
56	1701
57	890
67	2292
68	1281
69	4203
70	1080
71	590
72	3783
77	300
79	890
81	3272
82	900
83	1491
84	2802
85	1000
93	500
94	1391
95	1991
96	7486
97	4193
98	600
99	190
105	100
106	1601
108	6595
109	1601
110	2902
111	300
118	300
119	490
121	1201
135	290
138	3393
139	3703
175	1401
177	490
