Mass Spectrum: Chloromethyl 5-chloro-octanoate
Formula: C9 H16 Cl2 O2
CAS: 80418-67-3
Molecular weight: 226
Origin: ASES Database, Dalian Institute, P.R. China
m/z	RELATIVE INTENSITY
39	2011
41	3042
49	1010
51	330
53	2051
54	980
55	7837
56	1291
57	720
67	3433
68	1030
69	1361
70	860
71	850
72	1030
73	330
77	620
79	780
80	260
81	2752
82	9268
83	3783
84	330
85	750
89	500
91	500
93	330
95	1611
96	9999
97	2772
98	470
99	640
105	680
107	370
108	1050
109	370
110	400
118	1151
119	370
121	1050
123	780
124	4704
125	5404
126	400
135	750
137	310
161	2402
162	70
163	850
164	20
