Mass Spectrum: Chloromethyl 10-chloroundecanoate
Formula: C12 H22 Cl2 O2
CAS: 80418-96-8
Molecular weight: 268
Origin: ASES Database, Dalian Institute, P.R. China
m/z	RELATIVE INTENSITY
36	1391
39	1491
41	6095
42	1701
43	2592
49	590
53	690
54	1291
55	9999
56	1691
57	1511
67	2612
68	2392
69	5394
70	1301
71	790
72	2392
73	400
79	790
81	1901
82	2412
83	1991
84	1591
85	2081
93	200
95	590
96	290
97	1401
98	3483
108	4283
109	290
111	700
121	1401
123	390
124	90
125	300
137	390
148	100
149	190
203	700
