Mass Spectrum: Chloromethyl 5-chlorohexanoate
Formula: C7 H12 Cl2 O2
CAS: 80418-56-0
Molecular weight: 198
Origin: ASES Database, Dalian Institute, P.R. China
m/z	RELATIVE INTENSITY
36	100
39	1581
41	6125
42	2482
43	1791
49	2001
51	680
54	290
55	3883
56	500
57	400
63	1491
65	500
67	900
68	9999
69	8287
70	1000
71	3312
72	990
76	190
77	390
83	90
85	900
91	200
96	2582
97	5795
98	490
104	100
105	700
108	690
110	290
113	100
121	1101
132	1501
133	4484
134	600
135	1601
