Mass Spectrum: Chloromethyl 5-chlorododecanoate #
Formula: C13 H24 Cl2 O2
CAS: 80419-01-8
Molecular weight: 282
Origin: ASES Database, Dalian Institute, P.R. China
m/z	RELATIVE INTENSITY
36	1721
39	1971
41	9999
42	3182
43	8607
49	850
53	1221
54	2922
55	1211
56	4423
57	4514
67	4644
68	5004
69	6225
70	2432
71	1721
72	730
73	240
79	1331
81	4013
82	3292
83	4053
84	5264
85	1821
93	490
94	610
95	2812
96	6726
97	5605
98	3433
99	1821
108	840
109	1471
110	1951
111	1461
112	610
119	730
121	720
123	1601
124	480
136	1211
137	1090
138	3292
139	370
162	850
163	1111
180	970
181	1581
182	120
