Mass Spectrum: Chloromethyl 2-chlorooctanoate
Formula: C9 H16 Cl2 O2
CAS: 80418-64-0
Molecular weight: 226
Origin: ASES Database, Dalian Institute, P.R. China
m/z	RELATIVE INTENSITY
41	6155
43	9928
44	170
49	1411
51	2222
53	980
55	9999
56	1371
58	100
67	2312
68	670
69	1381
70	1151
71	680
75	270
76	1171
77	260
78	260
79	310
81	1020
82	1351
83	1761
84	620
85	1361
89	580
91	380
95	1020
97	3983
98	1251
99	620
106	4794
107	330
108	1701
118	750
119	410
121	440
125	1020
131	1161
132	990
133	380
142	5655
143	340
144	3813
146	680
149	380
160	680
161	510
163	270
197	480
