Mass Spectrum: Chloromethyl 5-chloropentanoate
Formula: C6 H10 Cl2 O2
CAS: 80482-35-5
Molecular weight: 184
Origin: ASES Database, Dalian Institute, P.R. China
m/z	RELATIVE INTENSITY
36	700
38	290
39	1371
41	1481
42	1271
43	1090
49	2382
51	790
53	790
54	1201
55	9999
56	990
57	910
62	190
63	590
64	90
65	200
69	200
71	190
72	790
77	90
82	1181
83	2892
84	190
90	1381
91	2972
92	490
93	990
99	190
107	90
108	1101
110	390
118	3873
119	7897
120	1301
121	2682
148	90
149	390
