Mass Spectrum: Benzene, 1,1',1'',1'''-(1,3-butadiene-1,2,3,4-tetrayl)tetrakis-
Formula: C28 H22
CAS: 806-71-3
Molecular weight: 358
Origin: NIST Mass Spectrometry Data Center, 1994
m/z	RELATIVE INTENSITY
39	452
50	174
51	1240
52	203
63	315
65	298
75	210
76	328
77	1353
78	1361
79	186
87	111
89	433
91	772
101	265
102	497
103	460
113	382
114	113
115	450
119	120
120	232
125	283
126	942
127	257
128	244
132	519
133	745
137	201
138	783
139	895
140	613
144	106
145	142
149	99
150	624
151	882
152	1917
153	301
157	429
162	255
163	852
164	618
165	2759
166	703
167	6208
168	863
169	255
170	462
171	209
174	139
175	233
176	1134
177	727
178	3580
179	2091
180	469
187	128
188	155
189	861
190	230
191	1342
192	265
200	344
201	515
202	2642
203	2344
204	659
213	169
215	339
224	121
226	312
228	104
237	154
239	703
240	245
241	181
250	349
252	2120
253	824
254	305
255	122
263	721
264	474
265	3042
266	1602
267	9999
268	2382
269	297
274	181
276	833
277	868
278	1074
279	2214
280	2357
281	2312
282	548
289	132
291	91
302	152
313	121
315	191
317	213
326	122
327	126
328	107
329	195
330	112
339	97
341	151
343	279
356	107
358	4387
359	1314
360	201
