Mass Spectrum: 1,E-11,Z-13-Octadecatriene
Formula: C18 H32
CAS: 80625-36-1
Molecular weight: 248
Origin: O. VOSTROWSKY,INST. ORG. CHEM.,ERLANGEN-NUERNBERG UNIV.,W.GER.
m/z	RELATIVE INTENSITY
29	2141
30	73
37	16
38	106
39	1770
40	129
41	7425
42	758
43	1298
45	84
50	28
51	174
52	163
53	1017
54	3187
55	4367
56	466
57	511
64	39
65	601
66	601
67	9999
68	3074
69	1523
70	174
71	230
72	73
73	2445
74	275
75	106
76	16
77	972
78	410
79	2681
80	2006
81	6649
82	3299
83	1051
84	50
85	140
86	39
91	545
92	129
93	938
94	949
95	2883
96	2152
97	477
98	28
105	73
106	39
107	590
108	444
109	1399
110	1534
111	241
112	39
115	39
119	39
120	28
121	725
122	349
123	583
124	245
125	21
130	5
135	507
136	222
137	126
138	125
140	21
146	88
147	372
148	95
149	244
150	57
151	36
152	66
163	111
164	43
177	50
191	28
192	5
193	14
206	11
207	44
209	16
221	61
222	11
248	112
249	22
