Mass Spectrum: Decahydro-1,1,4a,5,6-pentamethylnaphthalene
Formula: C15 H28
CAS: 80655-44-3
Molecular weight: 208
Origin: J.RICHARDSON,RES. CENT.,PHILLIPS PET. CO.,BARTLESVILLE,OK.,USA
m/z	RELATIVE INTENSITY
53	394
55	3219
67	1882
68	810
69	4649
70	898
71	524
77	259
79	766
81	3329
82	2253
83	3738
84	522
93	499
95	4986
96	1333
97	4496
107	429
109	4637
110	1393
111	2172
112	233
121	258
123	6528
124	1515
137	3485
138	1319
151	1211
152	333
163	80
165	129
179	448
192	295
193	9999
194	1700
195	120
208	1038
209	169
