Mass Spectrum: Triphenyleno[2,1-b]thiophene
Formula: C20 H12 S
CAS: 80819-45-0
Molecular weight: 284
Origin: Organic Synthesis Lab, MSU, Moscow.TRC 363
m/z	RELATIVE INTENSITY
40	50
41	80
42	10
43	60
44	210
45	30
50	10
51	10
53	10
55	50
56	50
57	90
58	10
59	10
63	20
64	10
65	10
67	20
68	10
69	50
70	30
71	50
73	711
74	90
75	260
76	10
77	50
78	40
79	20
81	30
82	20
83	30
84	20
85	40
86	20
87	50
88	10
89	20
91	60
92	10
95	30
96	60
97	30
98	40
99	40
100	20
103	30
104	10
109	20
110	30
111	70
112	80
113	60
114	10
115	60
116	50
122	30
123	40
124	120
125	210
126	80
128	160
129	120
131	30
132	10
133	110
135	571
136	90
137	50
138	10
140	320
141	871
142	661
145	30
146	20
147	490
148	90
149	120
150	50
151	20
152	10
153	10
154	20
155	10
156	50
157	20
158	20
159	10
161	50
162	30
163	60
164	20
165	40
173	10
174	50
175	20
176	20
177	30
178	10
179	40
180	10
181	20
185	60
186	60
187	140
188	40
189	30
191	70
192	20
193	90
194	20
195	50
196	10
197	150
198	80
199	50
200	70
201	20
203	10
205	30
207	631
208	130
209	250
210	80
211	230
212	90
213	180
214	30
219	10
221	450
222	140
223	130
224	180
225	80
226	80
227	10
230	10
232	10
233	20
234	30
235	210
236	200
237	1011
238	470
239	2032
240	420
241	40
243	20
245	10
246	20
247	30
248	190
249	160
250	601
251	210
252	711
253	320
254	60
255	40
256	70
257	30
258	70
259	20
265	30
266	10
267	110
268	30
269	80
270	10
271	20
279	30
280	180
281	571
282	1651
284	9999
285	2242
286	651
