Mass Spectrum: 2-Propionyl-3,4,5,6-tetrahydropyridine
Formula: C8 H13 N O
CAS: 80933-75-1
Molecular weight: 139
Origin: T.Hofmann ET AL.JAFC, 46,2721(1998)
m/z	RELATIVE INTENSITY
39	961
41	1862
42	270
51	170
52	470
53	871
54	8458
55	6756
56	671
57	7467
68	571
79	170
80	571
82	8157
83	9999
84	1461
85	60
93	60
96	751
98	60
106	60
110	2472
111	2873
122	280
124	2582
125	961
136	80
138	1161
139	8277
140	571
