Mass Spectrum: 3-Buten-2-one, 4-(3-trifluoromethylphenyl)-
Formula: C11 H9 F3 O
CAS: 80992-92-3
Molecular weight: 214
Origin: ASES Database, Dalian Institute, P.R. China
m/z	RELATIVE INTENSITY
51	1000
75	1141
76	550
101	370
102	1221
145	4253
146	460
151	5374
152	770
171	6115
172	990
173	530
199	9999
200	1070
213	850
214	3082
215	380
