Mass Spectrum: 3-Buten-2-one, 4-(4-trifluoromethylphenyl)-
Formula: C11 H9 F3 O
CAS: 80992-93-4
Molecular weight: 214
Origin: ASES Database, Dalian Institute, P.R. China
m/z	RELATIVE INTENSITY
51	770
75	900
76	460
101	460
102	1551
145	3843
146	380
151	4734
152	770
169	380
170	380
171	5855
172	530
199	9999
200	1231
213	1131
214	4223
215	540
