Mass Spectrum: Benzene, 1-(1,1-dimethylethyl)-3,5-dimethyl-2,4,6-trinitro-
Formula: C12 H15 N3 O6
CAS: 81-15-2
Molecular weight: 297
Origin: RADIAN CORP
m/z	RELATIVE INTENSITY
15	110
16	40
18	40
27	350
28	320
29	720
30	680
31	150
32	200
38	30
39	910
40	140
41	1310
42	220
43	6150
44	220
45	90
46	90
50	190
51	770
52	350
53	720
54	140
55	320
56	90
57	1540
58	110
59	220
60	10
61	20
62	110
63	640
64	230
65	1090
66	340
67	330
68	150
69	110
70	50
71	70
73	20
74	100
75	320
76	340
77	1520
78	510
79	510
80	220
81	130
82	110
83	110
84	10
85	40
86	50
87	130
88	100
89	540
90	310
91	1210
92	390
93	260
94	160
95	80
96	40
97	20
98	30
99	30
100	30
101	120
102	430
103	750
104	410
105	440
106	290
107	230
108	120
109	70
110	40
111	20
113	40
114	40
115	1160
116	510
117	690
118	430
119	370
120	250
121	140
122	80
123	30
126	70
127	390
128	1280
129	430
130	320
131	360
132	330
133	310
134	230
135	150
136	60
137	30
139	60
140	50
141	390
142	290
143	510
144	320
145	380
146	310
147	240
148	170
149	90
150	50
151	20
152	20
154	40
155	60
156	80
157	110
158	200
159	250
160	340
161	240
162	150
163	120
164	70
165	20
168	10
169	10
170	60
171	90
172	120
173	130
174	130
175	190
176	160
177	100
178	50
184	10
185	40
186	60
187	70
188	130
189	100
190	250
191	50
192	50
193	40
200	30
201	50
202	20
203	40
204	40
205	140
206	70
207	50
210	20
215	20
216	20
217	30
218	90
219	20
220	20
222	50
223	20
230	20
231	30
234	120
235	60
236	270
237	40
239	90
246	30
248	170
249	20
250	40
251	230
252	130
264	10
265	570
266	70
267	20
280	390
281	60
282	9999
283	1310
284	200
285	10
297	500
298	80
