Mass Spectrum: Benzene, 1,3-dichloro-2-(dichloromethyl)-
Formula: C7 H4 Cl4
CAS: 81-19-6
Molecular weight: 228
Origin: KONINKLIJKE SHELL LABORATORIUM AMSTERDAM
m/z	RELATIVE INTENSITY
30	6
31	23
35	1327
36	1082
37	1365
38	782
39	451
40	73
41	93
42	39
47	430
48	275
49	781
50	1075
51	316
52	22
53	17
54	38
59	34
60	738
61	2063
62	1620
63	828
64	59
65	38
66	26
67	23
68	10
69	61
70	38
71	110
72	435
73	1726
74	826
75	893
76	61
77	44
78	400
79	525
80	239
81	47
82	69
83	225
84	580
85	717
86	827
87	900
88	197
89	75
90	74
91	73
92	28
93	12
94	24
95	72
96	487
97	1006
98	267
99	292
100	20
101	13
102	5
103	3
104	8
105	36
106	44
107	338
108	114
109	525
110	137
111	192
112	48
113	30
114	57
115	80
116	37
117	63
118	27
119	87
120	80
121	162
122	115
123	2016
124	194
125	661
126	64
127	23
128	21
129	18
130	28
131	107
132	28
133	377
134	30
135	212
136	12
137	39
138	11
139	11
140	8
141	15
142	8
143	29
144	43
145	355
146	82
147	224
148	45
149	42
150	11
151	6
152	7
153	8
154	11
155	17
156	20
157	800
158	432
159	940
160	315
161	342
162	75
163	52
164	21
165	19
166	17
167	101
168	15
169	91
170	10
171	34
172	8
173	247
174	107
175	165
176	70
177	34
178	16
179	11
180	1044
181	75
182	988
183	69
184	313
185	25
186	41
187	19
188	8
189	18
190	16
191	34
192	75
193	9999
194	904
195	9620
196	825
197	3214
198	260
199	346
200	30
201	5
207	7
208	8
209	3
210	8
211	2
212	5
213	3
214	10
215	3
216	13
217	3
218	9
219	4
220	5
227	85
228	1242
229	205
230	1554
231	177
232	745
233	68
234	158
235	14
236	12
