Mass Spectrum: Cholic acid
Formula: C24 H40 O5
CAS: 81-25-4
Molecular weight: 408
Origin: D.HENNEBERG, MAX-PLANCK INSTITUTE, MULHEIM, WEST GERMANY
m/z	RELATIVE INTENSITY
27	1030
28	433
29	3230
31	623
39	733
41	6666
42	499
43	5492
44	321
45	881
53	1477
54	351
55	9999
56	796
57	2333
59	1012
60	1326
65	522
67	4901
68	1057
69	2879
70	628
71	1153
73	400
77	1619
78	392
79	3963
80	865
81	6281
82	894
83	2495
84	870
85	961
91	3461
92	759
93	4956
94	1776
95	4535
96	670
97	1040
99	550
101	499
103	232
105	3664
106	1030
107	3796
108	1030
109	2587
110	514
111	598
115	334
116	200
117	1004
118	685
119	2446
120	895
121	2308
122	621
123	976
124	266
125	305
127	322
128	285
129	620
130	316
131	1711
132	601
133	2006
134	631
135	1243
136	326
137	485
138	136
139	170
140	235
141	336
142	358
143	1357
144	624
145	2523
146	680
147	1698
148	437
149	607
150	187
151	259
153	168
154	117
155	461
156	247
157	1356
158	650
159	1731
160	550
161	965
162	368
163	521
164	218
165	285
166	94
167	156
168	98
169	516
170	263
171	1067
172	689
173	1045
174	360
175	539
176	182
177	281
178	130
179	125
180	112
181	417
182	190
183	517
184	254
185	861
186	309
187	644
188	203
189	347
190	197
191	162
192	94
193	246
194	285
195	307
196	125
197	732
198	368
199	1126
200	407
201	1066
202	272
203	305
204	113
205	122
206	55
207	137
208	61
209	248
210	107
211	1069
212	452
213	741
214	344
215	818
216	385
217	432
218	173
219	146
220	72
221	87
222	42
223	128
224	88
225	375
226	2136
227	1347
228	418
229	883
230	265
231	304
232	232
233	343
234	133
235	179
236	149
237	172
238	96
239	181
240	123
241	140
242	63
243	228
244	901
245	551
246	774
247	1981
248	566
249	256
250	95
251	150
252	141
253	5277
254	1168
255	361
256	81
257	112
258	152
259	279
260	332
261	223
262	128
263	116
264	86
265	111
266	59
267	62
268	34
269	139
270	93
271	6252
272	1410
273	273
274	98
275	55
276	49
277	48
278	72
279	115
280	43
281	475
282	143
283	122
284	43
285	86
286	69
287	102
288	83
289	685
290	192
291	56
292	15
293	61
294	62
295	158
296	55
297	141
298	91
299	501
300	905
301	267
302	117
303	64
304	36
305	22
306	11
307	38
308	33
309	30
310	18
311	100
312	125
313	398
314	141
315	126
316	51
317	80
318	137
319	37
320	20
321	121
322	51
323	27
325	129
326	116
327	68
328	87
329	209
330	111
331	129
332	32
333	19
334	16
335	29
336	103
337	185
338	102
339	1286
340	353
341	254
342	101
343	1918
344	562
345	118
346	54
347	44
348	17
349	42
350	18
353	132
354	3469
355	998
356	243
357	1126
358	312
359	84
360	23
361	121
362	54
363	15
364	8
365	9
367	8
368	13
369	17
370	40
371	89
372	5987
373	1675
374	282
375	114
376	26
377	2
388	21
389	9
390	310
391	94
392	15
406	9
408	83
409	13
