Mass Spectrum: 9,10-Anthracenedione, 1-amino-2,4-dibromo-
Formula: C14 H7 Br2 N O2
CAS: 81-49-2
Molecular weight: 379
Origin: NIST Mass Spectrometry Data Center, 1998.
m/z	RELATIVE INTENSITY
26	20
27	50
29	20
36	10
37	60
38	110
39	260
40	20
41	10
44	30
49	60
50	980
51	400
52	390
53	140
54	10
55	100
56	80
57	10
60	20
61	700
62	840
63	580
64	140
65	120
66	30
67	40
68	10
69	570
72	10
73	160
74	730
75	740
76	1320
77	710
78	70
79	50
80	50
81	10
82	2730
85	190
86	530
87	800
88	900
89	1050
90	180
91	80
92	40
93	10
96	280
98	380
99	340
100	210
101	130
102	90
103	20
104	300
105	210
106	20
107	10
108	10
109	340
110	500
111	520
112	330
113	420
114	390
115	190
116	130
117	100
118	40
119	60
120	30
121	10
122	710
123	680
124	180
125	130
126	210
127	50
128	70
129	50
130	70
131	20
132	30
133	40
134	80
135	120
136	710
137	2930
138	2960
139	690
140	170
141	190
142	100
143	170
144	100
145	40
146	40
147	30
148	100
149	180
150	960
151	830
153	30
154	60
155	60
156	10
157	40
158	10
160	10
163	510
164	4680
165	3710
166	700
167	130
168	270
169	90
170	220
171	30
174	20
175	790
176	150
177	60
178	20
179	10
180	10
181	10
183	10
185	10
189	70
190	140
191	100
192	490
193	1310
194	250
195	40
196	40
197	20
198	10
203	10
204	10
205	10
206	10
208	10
215	10
216	40
217	470
218	110
219	450
220	100
221	250
222	110
223	10
224	80
225	10
228	20
229	10
230	20
231	10
233	10
242	40
243	250
244	610
245	390
246	580
247	200
248	30
249	50
250	10
251	20
254	10
255	10
256	30
258	10
270	10
271	140
272	700
273	240
274	680
275	100
276	10
295	20
297	30
298	10
299	40
300	100
301	110
302	110
303	90
304	10
309	10
322	50
323	170
324	140
325	340
326	120
327	170
328	30
350	40
351	710
352	200
353	1410
354	260
355	690
356	100
357	10
378	400
379	5179
380	1580
381	9999
382	1940
383	4980
384	760
385	70
