Mass Spectrum: Benzamide, N-(4-chloro-9,10-dihydro-9,10-dioxo-1-anthracenyl)-
Formula: C21 H12 Cl N O3
CAS: 81-45-8
Molecular weight: 361
Origin: J.E. WILKINSON S-CUBED, SAN DIEGO, CA.
m/z	RELATIVE INTENSITY
49	2
50	101
51	668
52	6
57	2
74	25
75	54
76	266
77	4277
78	260
84	1
86	6
87	13
88	31
89	4
90	1
97	3
98	3
105	9999
106	732
107	12
111	6
112	3
113	9
123	4
124	2
125	3
126	6
135	3
137	111
138	189
139	40
141	3
144	1
147	3
149	10
150	71
151	3
152	1
164	318
165	76
166	3
167	1
173	152
174	8
175	33
177	4
193	11
200	105
201	10
202	14
203	1
209	1
258	3
326	2
361	1017
362	193
363	330
364	29
