Mass Spectrum: Benzamide, N-(4-amino-9,10-dihydro-9,10-dioxo-1-anthracenyl)-
Formula: C21 H14 N2 O3
CAS: 81-46-9
Molecular weight: 342
Origin: A.A.Kutin, Moscow, Russia
m/z	RELATIVE INTENSITY
33	71
34	13
35	16
37	82
38	123
39	532
41	62
42	52
43	125
44	70
46	15
47	11
51	3296
53	418
54	66
55	43
56	33
57	18
58	2
60	4
62	133
63	209
64	71
65	80
66	15
67	12
68	17
69	19
70	18
71	9
74	276
75	401
77	7937
79	84
80	19
81	7
82	11
83	23
84	6
85	16
86	43
87	74
88	51
89	81
90	60
91	38
93	22
94	9
95	14
96	3
98	19
99	72
100	73
101	229
102	139
105	9999
107	31
108	1
109	6
110	12
111	30
112	18
113	62
114	46
115	35
116	13
117	3
118	8
119	13
120	3
121	5
122	11
123	65
124	20
126	266
127	463
128	166
129	70
130	19
131	19
132	6
133	10
134	7
135	5
137	24
138	89
139	106
140	62
141	11
142	5
143	1
148	1
149	5
150	20
152	104
153	174
154	224
155	68
156	30
157	7
159	6
160	1
161	1
164	140
165	34
166	25
167	10
168	2
176	5
177	5
179	75
180	35
181	110
182	345
183	68
184	7
189	2
190	4
191	13
192	33
193	7
194	6
206	21
207	12
209	270
210	88
211	13
220	2
222	2
233	2
234	23
237	515
238	148
239	140
240	22
241	2
255	1
265	1
324	1
325	7
327	13
328	2
336	1
337	58
339	72
340	86
342	857
343	170
344	23
