Mass Spectrum: 9,10-Anthracenedione, 1,4-dihydroxy-
Formula: C14 H8 O4
CAS: 81-64-1
Molecular weight: 240
Origin: Japan AIST/NIMC Database- Spectrum MS-NW-6979
m/z	RELATIVE INTENSITY
17	10
18	30
26	50
27	50
28	129
29	30
37	20
38	40
39	109
43	10
49	30
50	259
51	539
52	109
53	259
54	70
55	139
56	20
57	10
61	50
62	99
63	249
64	299
65	50
66	119
67	10
68	10
69	90
70	20
71	10
73	30
74	209
75	379
76	339
77	469
78	209
79	229
80	20
82	50
83	40
84	10
85	20
86	70
87	80
88	30
89	40
90	20
91	40
92	369
93	20
97	30
98	60
99	50
100	50
101	319
102	669
103	70
104	80
105	219
106	80
107	50
108	20
109	10
110	30
111	30
112	10
113	40
114	30
115	30
119	30
120	349
121	10
122	10
125	20
126	169
127	399
128	739
129	209
130	80
131	20
134	70
135	70
136	10
137	40
138	70
139	99
140	20
142	10
149	10
154	10
155	219
156	129
157	119
158	159
159	20
162	30
166	10
167	20
168	30
170	10
182	10
183	489
184	339
185	50
186	20
194	10
195	30
196	10
211	149
212	389
213	60
223	30
224	20
238	40
239	1489
240	9999
241	1519
242	209
243	20
