Mass Spectrum: Rhodamine B
Formula: C28 H31 Cl N2 O3
CAS: 81-88-9
Molecular weight: 478
Origin: Japan AIST/NIMC Database- Spectrum MS-NW-6946
m/z	RELATIVE INTENSITY
15	10
16	10
17	50
18	209
26	30
27	159
28	90
29	649
30	40
32	10
35	40
36	239
37	20
38	90
39	30
40	10
41	40
42	60
43	50
44	80
50	20
51	20
52	10
53	10
54	20
55	50
56	60
57	50
58	10
60	10
63	30
64	10
65	10
66	10
67	20
68	20
69	30
70	20
71	30
72	10
73	10
74	10
75	30
76	70
77	50
78	30
79	10
80	10
81	20
82	20
83	30
84	10
85	20
86	10
87	10
88	10
89	10
90	10
91	30
92	10
93	10
94	10
95	10
96	20
97	30
98	10
99	10
100	50
101	20
102	10
103	10
104	70
105	30
106	60
107	40
108	10
109	10
110	10
111	20
112	80
113	249
114	20
115	20
116	10
117	10
118	20
119	40
120	50
121	40
122	20
123	10
125	20
126	60
127	80
128	40
129	20
130	10
131	10
132	20
133	30
134	50
135	80
136	10
137	10
138	20
139	40
140	169
141	339
142	129
143	20
144	10
146	10
147	70
148	129
149	169
150	50
151	40
152	40
153	20
154	50
155	299
156	389
157	30
158	10
159	10
160	10
161	40
162	219
163	369
164	30
165	40
166	40
167	30
168	20
169	99
170	309
171	30
172	10
173	10
174	30
175	30
176	139
177	509
178	119
179	20
180	20
181	20
182	10
183	40
184	1129
185	169
186	20
187	50
188	40
189	60
190	50
191	369
192	169
193	30
194	30
195	20
196	10
197	20
198	80
199	909
200	129
201	60
202	60
203	40
204	20
205	20
206	239
207	60
208	20
209	20
210	10
211	40
212	50
213	229
214	109
215	60
216	30
217	10
218	10
219	20
220	20
221	149
222	50
223	50
224	229
225	199
226	389
227	139
228	70
229	30
230	30
231	20
232	20
233	10
234	10
235	20
236	30
237	50
238	99
239	119
240	179
241	99
242	99
243	50
244	20
245	10
246	10
247	20
248	10
249	20
250	40
251	139
252	99
253	249
254	319
255	259
256	90
257	30
258	30
259	20
260	10
261	20
262	10
263	20
264	30
265	60
266	90
267	129
268	229
269	269
270	169
271	60
272	30
273	10
274	10
275	10
276	10
277	10
278	40
279	80
280	159
281	419
282	1719
283	549
284	139
285	40
286	20
288	10
289	10
290	10
291	30
292	20
293	60
294	99
295	329
296	699
297	429
298	369
299	109
300	30
301	10
302	20
303	10
304	10
305	10
306	20
307	60
308	70
309	1239
310	499
311	279
312	139
313	60
314	50
315	20
316	20
317	10
318	10
319	20
320	30
321	99
322	60
323	729
324	379
325	939
326	8299
327	2309
328	379
329	60
330	10
331	10
332	10
333	10
334	10
335	30
336	20
337	109
338	60
339	379
340	259
341	279
342	169
343	50
344	10
345	10
346	10
347	10
348	10
349	10
350	20
351	60
352	40
353	2119
354	719
355	279
356	70
357	20
358	30
359	10
360	20
361	10
362	20
363	10
364	10
365	60
366	40
367	549
368	279
369	1639
370	859
371	209
372	50
373	20
374	10
375	10
376	10
377	10
378	10
379	20
380	20
381	70
382	40
383	299
384	99
385	40
386	30
387	20
388	10
389	10
390	20
391	20
392	10
393	40
394	50
395	279
396	359
397	9199
398	9999
399	2549
400	409
401	50
409	10
410	10
411	70
412	30
413	60
414	60
415	30
416	10
417	10
424	10
425	10
426	10
427	50
428	20
430	10
432	10
436	10
438	10
439	20
440	50
441	369
442	789
443	289
444	99
445	20
