Mass Spectrum: 3-Bromobenzanthrone
Formula: C17 H9 Br O
CAS: 81-96-9
Molecular weight: 308
Origin: NIST Mass Spectrometry Data Center, 1992
m/z	RELATIVE INTENSITY
14	22
16	5
18	72
26	33
28	396
29	10
32	140
39	109
40	2
41	16
50	111
51	78
57	3
61	78
62	147
63	122
67	35
73	43
74	439
75	262
76	85
77	87
81	29
82	23
84	30
85	34
86	220
87	818
94	29
95	2
96	6
97	14
98	200
99	927
100	3009
106	24
109	42
110	154
111	113
112	15
113	36
114	14
115	308
121	42
122	170
123	119
124	77
125	62
126	79
127	39
134	66
135	89
136	26
137	47
140	322
141	386
146	56
147	54
148	40
149	145
150	263
151	165
154	230
155	168
161	66
162	31
173	97
174	442
175	243
176	58
197	101
198	563
199	844
200	3422
201	3022
202	511
203	51
208	2
209	21
228	70
229	186
230	70
280	1564
281	360
282	1599
283	286
308	9624
309	2038
310	9999
311	1747
312	198
