Mass Spectrum: N-(1,1-Bis(4-chlorophenyl)-2,2,2-trichloroethyl)acetamide
Formula: C16 H12 Cl5 N O
CAS: 81012-95-5
Molecular weight: 409
Origin: Japan AIST/NIMC Database- Spectrum MS-IW- 16
m/z	RELATIVE INTENSITY
14	10
15	129
26	10
27	40
28	20
35	139
36	1759
37	40
38	589
39	90
40	80
41	189
42	209
43	4019
44	119
45	10
47	10
48	10
49	10
50	189
51	199
52	40
55	60
56	20
57	30
60	10
61	30
62	90
63	169
64	20
65	10
67	10
68	40
69	20
70	40
71	10
73	119
74	129
75	729
76	209
77	189
78	20
80	10
81	239
82	119
83	10
84	30
85	80
86	80
87	189
88	119
89	119
90	30
91	10
92	20
93	20
94	10
95	10
96	10
97	40
98	50
99	239
100	99
101	70
102	439
103	149
104	30
105	129
106	40
107	10
108	10
109	40
110	60
111	839
112	129
113	319
114	80
115	20
116	20
117	129
118	80
119	40
120	10
121	20
122	60
123	299
124	80
125	129
126	50
127	50
128	139
129	20
130	40
131	10
133	20
134	30
135	40
136	40
137	169
138	2569
139	339
140	859
141	119
142	10
147	20
148	20
149	70
150	99
151	179
152	129
153	40
157	10
158	40
159	40
160	50
161	60
162	109
163	549
164	429
165	139
166	30
169	10
170	119
171	30
172	99
173	60
174	90
175	99
176	269
177	159
178	99
179	50
180	60
181	10
183	10
184	20
185	40
186	70
187	40
188	60
189	30
190	129
191	109
192	40
193	50
195	50
196	10
197	60
198	99
199	1899
200	309
201	649
202	109
203	129
204	30
205	339
206	30
207	329
208	30
209	119
210	149
211	70
212	80
213	50
214	619
215	229
216	229
217	70
218	10
220	10
221	40
222	20
223	40
224	40
225	40
226	129
227	429
228	129
229	139
230	40
231	10
232	20
233	189
234	609
235	209
236	399
237	99
238	149
239	30
240	419
241	70
242	129
243	20
244	30
245	20
246	679
247	119
248	629
249	159
250	9999
251	1539
252	6429
253	959
254	1089
255	159
256	30
257	20
258	20
259	10
260	50
261	669
262	699
263	549
264	449
265	139
266	80
267	20
268	20
269	139
270	30
271	129
272	20
273	70
274	159
275	569
276	309
277	379
278	149
279	70
280	109
281	50
282	90
283	40
284	40
285	10
286	10
290	10
291	60
292	1979
293	379
294	1309
295	249
296	309
297	189
298	99
299	129
300	40
301	90
302	30
303	989
304	1579
305	899
306	1019
307	279
308	179
309	30
310	20
312	20
314	20
315	20
316	80
317	30
318	80
319	20
320	40
321	10
322	10
330	20
331	10
332	60
333	20
334	50
335	10
336	20
337	10
338	10
339	20
340	40
341	20
342	30
343	10
344	10
351	10
353	10
355	10
373	129
374	2869
375	679
376	3739
377	739
378	1819
379	339
380	419
381	70
382	30
409	60
410	10
411	90
412	20
413	60
414	10
415	20
