Mass Spectrum: 3-Bromo-4-hydroxy-5-methoxyphenylacetonitrile
Formula: C9 H8 Br N O2
CAS: 81038-44-0
Molecular weight: 241
Origin: NIST Mass Spectrometry Data Center, 1994
m/z	RELATIVE INTENSITY
14	297
15	2735
18	72
25	78
26	258
27	348
28	773
29	730
30	114
31	217
32	45
37	783
38	1175
39	2407
40	345
41	475
42	132
43	243
44	86
45	92
49	608
50	2727
51	2125
52	722
53	3361
54	279
55	212
60	114
61	948
62	1830
63	4657
64	3235
65	1037
66	561
67	223
68	231
73	206
74	734
75	1559
76	1542
77	1927
78	665
79	920
80	200
81	178
82	80
85	112
86	132
87	219
88	350
89	492
90	4628
91	2381
92	963
93	307
94	413
99	150
100	267
101	163
102	626
103	603
104	358
105	330
106	375
107	596
115	72
116	264
117	339
118	72
119	4874
120	595
121	302
122	151
129	137
130	661
131	257
132	370
133	654
134	270
135	218
141	73
143	513
144	183
145	588
146	1042
147	1425
148	119
157	129
162	9689
163	948
164	91
170	1101
171	210
172	1207
173	148
174	158
181	241
183	245
184	74
185	107
187	68
197	223
198	1241
199	279
200	1254
201	165
202	86
209	292
210	173
211	306
212	191
214	66
215	115
217	108
226	5187
227	687
228	5130
229	478
241	9999
242	1080
243	9840
244	1010
245	47
