Mass Spectrum: 3-Hydroxydodecanedioic acid, tris(O-trimethylsilyl)
Formula: C21 H46 O5 Si3
CAS: 81089-39-6
Molecular weight: 462
Origin: James Shoemaker, St. Louis Online Library of Metabolic Mass Spectra
m/z	RELATIVE INTENSITY
55	619
57	109
59	169
61	70
67	489
68	40
69	199
71	80
72	209
73	9999
74	919
75	2409
76	129
77	169
79	99
81	739
82	60
83	159
85	99
91	159
93	90
95	209
96	30
97	139
99	119
100	70
101	469
102	40
103	239
105	119
107	169
109	239
111	30
113	50
115	159
116	259
117	869
118	70
119	129
121	80
122	20
123	239
127	30
129	1069
130	619
131	469
132	80
133	859
134	80
135	70
136	20
142	20
143	579
144	60
145	80
146	119
147	4889
148	759
149	709
150	90
151	139
155	30
156	30
157	129
158	30
159	20
164	40
165	149
169	70
171	40
174	30
175	159
189	609
190	90
191	359
192	109
193	299
203	40
204	629
205	119
206	30
207	60
217	1069
218	309
219	80
221	20
225	40
231	20
233	1199
234	209
235	70
241	20
243	20
255	20
259	20
267	10
273	10
283	20
287	80
288	10
299	159
300	20
301	20
302	90
303	20
305	50
313	10
315	289
316	50
317	30
319	10
328	10
329	10
331	679
332	179
333	40
344	40
345	10
357	80
358	10
387	70
388	10
405	119
406	169
407	40
447	70
448	10
