Mass Spectrum: 2-Methyl-1,2-propanediamine
Formula: C4 H12 N2
CAS: 811-93-8
Molecular weight: 88
Origin: Japan AIST/NIMC Database- Spectrum MS-IW-3659
m/z	RELATIVE INTENSITY
15	109
17	10
26	20
27	99
28	569
29	129
30	1229
31	30
32	10
36	10
37	10
38	20
39	209
40	60
41	1269
42	779
43	329
44	359
45	10
51	10
52	20
53	20
54	60
55	159
56	979
57	269
58	9999
59	449
68	10
69	10
70	90
71	40
72	90
73	149
