Mass Spectrum: Ethane, 1,1,2-trichloro-1-fluoro-
Formula: C2 H2 Cl3 F
CAS: 811-95-0
Molecular weight: 150
Origin: T.J. Bruno, Cent. Chem. Technol., NIST, Boulder, CO 80303, USA
m/z	RELATIVE INTENSITY
19	72
24	415
31	1922
35	1619
36	86
37	520
43	560
47	3219
49	994
59	671
61	250
66	349
68	158
78	2653
79	86
80	935
82	1560
84	902
85	244
86	197
87	92
94	481
95	329
101	79
102	178
113	6972
115	4779
116	191
117	1099
119	494
131	125
133	211
148	9999
149	197
150	9730
151	290
152	2969
153	112
