Mass Spectrum: Methanol-D4
Formula: C D4 O
CAS: 811-98-3
Molecular weight: 36
Origin: Japan AIST/NIMC Database- Spectrum MS-NW-6800
m/z	RELATIVE INTENSITY
12	70
14	149
16	459
18	2999
28	679
29	10
30	5069
31	50
32	579
33	10
34	9999
35	110
36	7059
37	80
