Mass Spectrum: .alpha.-Chloro-4'-fluoropropiophenone
Formula: C9 H8 Cl F O
CAS: 81112-09-6
Molecular weight: 186
Origin: NIST Mass Spectrometry Data Center, 1994
m/z	RELATIVE INTENSITY
4	5
14	9
15	31
18	20
25	20
26	202
27	802
28	358
29	32
31	59
32	3
35	35
36	31
37	61
38	75
39	108
43	16
45	46
47	21
49	50
50	496
51	284
52	20
53	60
55	268
56	98
57	134
60	24
61	84
62	121
63	203
64	25
65	40
68	196
69	352
70	68
71	14
73	59
74	354
75	1666
76	149
77	103
80	10
81	38
83	18
86	20
92	37
93	80
95	3812
96	314
97	43
99	12
101	66
102	21
103	186
104	22
105	12
107	39
120	24
121	52
123	9999
124	773
125	46
133	26
151	16
186	119
187	17
188	41
