Mass Spectrum: Valeric acid, dodecyl ester
Formula: C17 H34 O2
CAS: 81186-22-3
Molecular weight: 270
Origin: V.Zaikin,Topchiev Inst.Petrochem.Synth.,Moscow
m/z	RELATIVE INTENSITY
27	3463
28	961
29	6035
30	270
31	200
36	100
37	120
38	160
39	2252
40	370
41	9969
42	2662
43	7917
44	891
45	310
47	30
50	80
51	210
52	40
53	691
54	1231
55	7016
56	4104
57	9999
58	641
59	200
60	1121
61	530
62	30
63	50
65	160
66	110
67	1091
68	1281
69	3433
70	2752
71	1682
72	140
73	701
74	70
75	130
76	50
77	120
78	30
79	150
81	641
82	1301
83	3073
84	2172
85	7487
86	430
87	170
88	40
91	90
93	60
94	30
95	220
96	611
97	2052
98	1321
99	280
100	80
101	260
102	611
103	8227
104	530
105	120
108	30
109	50
110	170
111	981
112	621
113	170
115	120
116	230
117	30
119	20
124	150
125	410
126	280
129	90
130	30
133	20
138	50
139	100
140	701
141	100
143	80
152	30
155	40
158	60
163	30
168	1041
169	180
171	20
213	20
