Mass Spectrum: Disilane, pentamethyl-
Formula: C5 H16 Si2
CAS: 812-15-7
Molecular weight: 132
Origin: D.HENNEBERG, MAX-PLANCK INSTITUTE, MULHEIM, WEST GERMANY
m/z	RELATIVE INTENSITY
27	28
28	176
29	167
30	12
31	311
32	15
33	7
36	2
39	4
41	8
42	62
43	879
44	161
45	1010
46	71
47	33
51	4
52	13
53	59
54	8
55	81
56	11
57	87
58	207
59	621
60	51
61	22
66	25
67	10
68	5
69	108
70	40
71	56
72	170
73	9999
74	803
75	356
76	10
77	4
78	10
81	28
82	7
83	35
84	22
85	80
86	21
87	27
88	6
89	14
91	5
95	4
97	10
98	4
99	51
100	11
101	157
102	26
103	17
105	3
113	7
114	4
115	86
116	191
117	1436
118	199
119	98
120	8
129	9
131	129
132	915
133	153
134	68
