Mass Spectrum: Propane, 1,1,1,2-tetrachloro-
Formula: C3 H4 Cl4
CAS: 812-03-3
Molecular weight: 180
Origin: Japan AIST/NIMC Database- Spectrum MS-NW-4906
m/z	RELATIVE INTENSITY
12	90
13	40
14	90
15	299
16	20
17	30
18	139
23	20
24	60
25	239
26	719
27	4569
28	159
29	20
35	999
36	959
37	1459
38	1559
39	4629
40	189
41	40
43	20
44	139
47	1099
48	279
49	1889
50	99
51	549
53	10
54	20
55	20
59	80
60	529
61	469
62	419
63	9999
64	299
65	3009
66	80
70	50
71	129
72	469
73	1749
74	319
75	3009
76	149
77	879
78	30
82	679
83	2139
84	489
85	1329
86	90
87	229
91	10
94	109
95	259
96	99
97	529
98	30
99	239
100	10
101	30
106	10
107	149
108	20
109	4909
110	779
111	3209
112	469
113	569
114	80
117	969
118	10
119	919
120	10
121	309
123	40
126	10
127	20
128	20
129	99
130	419
131	99
132	409
133	40
134	129
135	10
136	20
143	179
144	70
145	4949
146	239
147	4349
148	179
149	1479
150	50
151	169
164	10
165	60
166	10
167	70
169	30
178	10
179	90
180	20
181	109
182	10
183	60
185	10
