Mass Spectrum: Methyl 4,4-dichlorobutanoate
Formula: C5 H8 Cl2 O2
CAS: 81236-55-7
Molecular weight: 170
Origin: ASES Database, Dalian Institute, P.R. China
m/z	RELATIVE INTENSITY
39	1811
41	1811
42	1561
43	2742
49	920
51	350
55	670
56	350
57	300
59	2862
61	170
71	970
73	350
74	9999
75	3312
76	420
77	960
83	610
85	410
99	1080
103	1211
105	910
109	600
111	410
113	170
133	290
135	600
137	360
139	2412
141	1571
143	240
169	180
171	110
