Mass Spectrum: 4-Hepten-3-ol, 4-methyl-
Formula: C8 H16 O
CAS: 81280-12-8
Molecular weight: 128
Origin: NIST Mass Spectrometry Data Center, 1990.
m/z	RELATIVE INTENSITY
15	183
17	50
18	109
26	155
27	1504
28	650
29	1089
30	46
31	388
37	94
38	364
39	3853
40	882
41	4460
42	579
43	5121
44	293
45	182
50	489
51	1066
52	516
53	2651
54	504
55	3822
56	401
57	1049
58	89
59	258
61	59
62	208
63	458
64	106
65	1211
66	59
67	7463
68	828
69	830
70	152
71	723
72	48
74	80
75	49
77	1632
78	348
79	2187
80	603
81	2673
82	529
83	191
84	97
85	47
86	215
91	776
93	1228
95	9999
96	791
97	114
98	47
99	3392
100	239
107	35
108	32
110	2987
111	276
113	79
128	333
