Mass Spectrum: Phosphorochloridic acid, dimethyl ester
Formula: C2 H6 Cl O3 P
CAS: 813-77-4
Molecular weight: 144
Origin: A.A.Kutin, Moscow, Russia
m/z	RELATIVE INTENSITY
34	3
35	84
36	27
37	29
38	9
39	37
40	9
41	65
42	43
43	238
44	20
45	333
47	3823
48	583
49	266
50	65
51	46
52	7
53	7
55	2
57	8
58	5
59	27
60	4
61	7
62	33
63	379
64	181
65	1057
66	67
67	19
68	27
69	10
71	6
76	34
77	315
79	8400
80	111
81	48
82	23
83	342
84	78
85	126
86	15
87	12
91	31
92	21
93	454
95	18
96	14
97	70
98	53
99	525
100	747
101	231
102	236
103	13
105	1
106	7
107	56
109	3789
110	94
111	72
113	2712
114	9999
115	1364
116	3287
117	81
118	10
121	162
122	12
127	46
128	100
129	58
130	35
131	3
132	4
141	4
142	53
143	44
144	128
145	24
146	40
