Mass Spectrum: Butanoic acid, 2,2-dimethyl-, methyl ester
Formula: C7 H14 O2
CAS: 813-67-2
Molecular weight: 130
Origin: R RYHAGE MS-LAB KAROLINSKA INSTITUTET STOCKHOLM SWEDEN
m/z	RELATIVE INTENSITY
15	390
18	140
27	640
29	820
39	700
40	120
41	1410
42	450
43	7790
44	300
45	120
53	190
55	1510
56	200
57	210
59	1540
69	380
70	2320
71	9999
72	590
73	490
84	170
88	300
99	700
101	220
102	2720
103	170
115	490
131	170
