Mass Spectrum: Propanoic acid, pentachloro-, methyl ester
Formula: C4 H3 Cl5 O2
CAS: 813-46-7
Molecular weight: 258
Origin: ASES Database, Dalian Institute, P.R. China
m/z	RELATIVE INTENSITY
59	9999
60	220
61	230
63	380
65	230
94	840
96	540
117	1761
119	1761
121	620
129	770
131	920
133	530
141	220
143	220
153	1141
155	760
157	1541
159	1551
161	450
164	3863
166	4854
168	2312
170	610
188	540
190	540
199	620
201	1070
203	760
205	230
