Mass Spectrum: CH3SiH2SiH(CH3)2
Formula: C3 H12 Si2
CAS: 814-74-4
Molecular weight: 104
Origin: V.G.Zaikin, TIPS, Russian Acad. Sci., Moscow
m/z	RELATIVE INTENSITY
30	150
31	1101
41	100
42	450
43	5715
44	790
45	1471
46	90
53	120
55	180
57	290
58	3723
59	9999
60	800
61	320
69	700
70	290
71	310
72	120
73	1941
74	130
75	100
83	120
84	80
85	550
86	640
87	910
88	850
89	1261
90	260
91	90
101	320
102	1000
103	3373
104	2181
105	480
106	140
107	10
