Mass Spectrum: 1,2-Propanedithiol
Formula: C3 H8 S2
CAS: 814-67-5
Molecular weight: 108
Origin: Japan AIST/NIMC Database- Spectrum MS-NW-3794
m/z	RELATIVE INTENSITY
14	30
15	159
25	20
26	179
27	1309
28	70
29	139
32	329
33	419
34	729
35	1239
36	50
37	199
38	269
39	2269
40	339
41	8039
42	749
43	159
44	199
45	2409
46	859
47	3939
48	199
49	239
50	10
51	20
55	30
56	20
57	179
58	579
59	2049
60	2649
61	9999
62	419
63	479
64	99
65	50
66	90
67	10
68	40
69	139
70	20
71	199
72	40
73	459
74	5059
75	2149
76	329
77	199
78	30
79	90
81	20
88	10
89	40
90	20
91	10
92	20
93	70
94	10
103	80
104	20
105	10
106	40
107	30
108	4569
109	249
110	439
111	20
112	10
