Mass Spectrum: Phosphoramidous difluoride, dimethyl-
Formula: C2 H6 F2 N P
CAS: 814-97-1
Molecular weight: 113
Origin: K.COHN, MICHIGAN STATE UNIV., E. LANSING, MICHIGAN, USA
m/z	RELATIVE INTENSITY
15	3240
27	250
28	110
30	380
31	200
40	450
41	560
42	9999
43	1020
44	400
50	640
51	350
65	200
69	2910
78	320
94	1220
112	5410
113	5410
