Mass Spectrum: 2-Propenoyl chloride
Formula: C3 H3 Cl O
CAS: 814-68-6
Molecular weight: 90
Origin: Japan AIST/NIMC Database- Spectrum MS-NW- 948
m/z	RELATIVE INTENSITY
12	30
13	40
14	30
18	10
24	159
25	679
26	2039
27	6699
28	449
29	129
35	309
36	309
37	209
38	139
39	60
40	20
41	60
42	20
43	40
44	30
47	80
48	30
49	40
52	90
53	309
54	109
55	9999
56	329
57	40
59	20
60	50
61	70
62	899
63	599
64	279
65	189
69	20
71	10
72	30
73	20
89	20
90	50
91	129
92	20
93	40
