Mass Spectrum: 2-Cyanophenyl isothiocyanate
Formula: C8 H4 N2 S
CAS: 81431-98-3
Molecular weight: 160
Origin: NIST Mass Spectrometry Data Center, 1994
m/z	RELATIVE INTENSITY
4	22
12	23
25	25
26	180
27	287
28	144
32	270
36	55
37	506
38	507
39	407
40	52
41	23
44	266
45	278
46	24
48	46
49	267
50	1183
51	1318
52	405
53	35
56	53
57	51
58	196
59	71
60	57
61	251
62	375
63	475
64	490
65	90
67	272
68	24
69	182
70	625
71	42
72	66
73	162
74	576
75	2206
76	1179
77	137
78	33
79	24
80	480
81	64
82	122
83	163
84	59
85	28
86	66
87	118
88	266
89	220
90	87
93	23
94	77
95	37
96	39
98	24
99	211
100	168
101	23
102	3751
103	287
104	17
105	11
106	41
107	47
108	88
109	103
116	827
117	78
119	18
120	22
128	229
133	710
134	117
135	32
160	9999
161	1038
162	483
163	45
