Mass Spectrum: Acetamide, 2,2,2-trifluoro-N-methyl-
Formula: C3 H4 F3 N O
CAS: 815-06-5
Molecular weight: 127
Origin: Japan AIST/NIMC Database- Spectrum MS-NW-9305
m/z	RELATIVE INTENSITY
14	30
15	2279
16	30
20	20
26	10
27	159
28	1899
29	379
30	189
31	169
32	20
33	249
38	10
39	40
40	40
41	30
42	10
43	60
44	20
45	10
46	149
47	10
50	329
51	129
53	20
54	20
55	10
56	229
57	99
58	9999
59	339
60	30
64	60
69	3559
70	50
76	30
77	10
78	1059
79	149
80	10
96	99
97	169
98	99
106	209
107	10
108	70
109	20
110	10
126	789
127	2359
128	189
129	10
