Mass Spectrum: 1,2,4,5,7-Pentathiocane
Formula: C3 H6 S5
CAS: 81531-39-7
Molecular weight: 202
Origin: PYTCAS 20(11) 2521(1981); R GMELIN ET AL
m/z	RELATIVE INTENSITY
45	5400
46	3300
59	1100
60	3500
64	600
78	9999
110	100
124	7200
137	700
156	100
170	8600
202	40
