Mass Spectrum: 2-Chlorobenzoic acid, nonyl ester
Formula: C16 H23 Cl O2
CAS: 81542-10-1
Molecular weight: 282
Origin: Zaikin V.G., TIPS RAS, Moscow, Russia
m/z	RELATIVE INTENSITY
27	30
28	20
29	60
36	50
39	60
41	290
42	110
43	300
44	50
50	60
51	40
53	30
54	70
55	500
56	530
57	190
67	90
68	120
69	480
70	561
71	100
74	40
75	380
76	160
77	170
81	30
82	110
83	390
84	400
85	100
96	50
97	450
98	320
104	90
105	90
110	40
111	1291
112	160
113	490
114	40
121	40
126	330
127	30
139	6336
140	540
141	2062
142	170
156	2672
157	9999
158	1631
159	3133
160	250
161	30
282	60
