Mass Spectrum: p-Methoxybenzoic acid, hexyl ester
Formula: C14 H20 O3
CAS: 81542-09-8
Molecular weight: 236
Origin: Zaikin V.G., TIPS RAS, Moscow, Russia
m/z	RELATIVE INTENSITY
26	10
27	90
29	120
36	10
38	20
39	80
40	10
41	210
42	70
43	160
44	20
50	40
51	30
53	30
54	10
55	160
56	150
57	10
62	10
63	100
64	170
65	60
66	10
67	10
69	50
74	10
75	20
76	70
77	581
78	60
79	30
81	20
83	10
84	20
91	10
92	520
93	50
94	20
103	10
104	40
105	30
106	10
107	270
108	50
109	70
119	10
120	10
121	50
122	10
135	6256
136	510
137	50
138	30
151	10
152	9999
153	1752
154	160
155	10
165	50
219	20
236	751
237	120
238	10
