Mass Spectrum: aS-Triazino[6,5-c]quinoline, 2-dimethylamino-
Formula: C12 H11 N5
CAS: 81547-14-0
Molecular weight: 225
Origin: ASES Database, Dalian Institute, P.R. China
m/z	RELATIVE INTENSITY
42	950
44	310
45	480
50	580
51	490
52	170
55	120
62	160
63	390
68	390
69	1010
74	570
75	590
76	720
77	300
87	220
88	300
99	1801
100	930
101	320
102	360
103	160
112	30
113	670
114	130
126	230
127	910
128	270
129	160
140	130
141	660
142	90
153	200
154	320
155	530
167	1040
168	320
169	260
170	1020
171	230
181	400
182	4624
183	630
196	1691
197	5875
198	800
224	60
225	9999
226	1381
227	100
