Mass Spectrum: 2-Chloro-4-trifluoromethylpyridine
Formula: C6 H3 Cl F3 N
CAS: 81565-18-6
Molecular weight: 181
Origin: NIST Mass Spectrometry Data Center
m/z	RELATIVE INTENSITY
12	30
15	10
16	20
18	10
19	20
24	30
25	90
26	370
27	100
28	550
31	561
32	50
33	20
35	190
36	80
37	320
38	310
39	100
40	30
44	30
45	30
46	20
47	110
48	80
49	540
50	1972
51	1091
52	240
55	60
56	180
57	230
58	10
60	250
61	110
62	200
63	90
64	80
67	40
69	2172
70	120
71	20
73	90
74	180
75	1571
76	1151
77	330
78	20
79	50
80	50
81	110
82	80
84	150
85	500
86	140
87	220
88	90
91	50
93	120
94	80
95	140
96	280
97	20
98	40
99	410
100	340
101	80
102	30
103	20
104	20
105	10
106	40
107	50
109	50
110	60
111	40
112	190
113	20
114	60
115	10
119	530
120	100
122	10
124	20
126	4124
127	410
130	30
131	10
133	30
134	10
135	60
137	20
141	20
143	10
144	30
146	8968
147	661
148	20
153	30
160	40
162	1151
163	100
164	350
165	20
181	9999
182	821
183	3043
184	260
