Mass Spectrum: Heptanoic acid, 2-ethyl-, methyl ester
Formula: C10 H20 O2
CAS: 816-63-7
Molecular weight: 172
Origin: F.M.TRENT RES. DIV., U.S. IND. CHEM. CO., CINCINNATI, USA
m/z	RELATIVE INTENSITY
15	590
27	1950
28	520
29	2610
31	120
39	1340
40	440
41	4650
42	870
43	4260
44	160
45	140
53	440
54	170
55	3490
56	890
57	3760
58	180
59	1970
68	150
69	160
70	1300
71	610
72	2340
73	150
74	390
75	550
84	540
85	290
87	9999
88	580
97	200
98	150
101	1630
102	9890
103	540
113	410
115	2410
116	230
128	230
141	330
143	590
144	790
172	40
