Mass Spectrum: L-Glutamic acid, N-(trifluoroacetyl)-, dibutyl ester
Formula: C15 H24 F3 N O5
CAS: 816-59-1
Molecular weight: 355
Origin: S. MARKEY UNIV. OF COLO. MED. CTR., DENVER, COLORADO, USA
m/z	RELATIVE INTENSITY
39	1534
40	260
41	9999
42	858
43	1469
44	221
45	65
51	117
54	312
55	1742
56	2679
57	5448
58	182
60	234
61	117
69	1313
70	429
73	403
74	130
77	403
78	78
82	182
84	832
85	1963
86	221
110	65
113	78
116	156
119	104
129	52
131	182
132	78
138	78
139	481
140	117
152	2614
153	351
169	130
171	130
180	2861
181	416
198	2080
199	221
207	390
225	182
226	208
254	858
255	143
282	169
