Mass Spectrum: 2-Butanone, 1-bromo-
Formula: C4 H7 Br O
CAS: 816-40-0
Molecular weight: 150
Origin: J.E. WILKINSON S-CUBED, SAN DIEGO, CA.
m/z	RELATIVE INTENSITY
41	582
42	2397
43	425
44	7
49	29
50	79
51	44
52	4
53	122
54	3
55	79
56	392
57	9999
58	287
59	8
71	1
79	88
80	16
81	85
82	12
91	21
92	66
93	627
94	105
95	586
96	26
107	3
120	42
121	482
122	40
123	475
150	553
151	21
152	527
153	17
