Mass Spectrum: 2,3-Dibromothiophene-5-sulfonyl chloride
Formula: C4 H Br2 Cl O2 S2
CAS: 81606-31-7
Molecular weight: 338
Origin: NIST Mass Spectrometry Data Center, 1994
m/z	RELATIVE INTENSITY
12	125
16	6
18	53
25	96
32	456
35	246
36	405
37	1764
38	377
44	500
45	1098
46	78
47	79
48	1702
49	329
50	178
56	357
57	402
64	1232
66	71
68	462
69	1280
70	104
79	607
80	918
81	4001
82	1108
83	274
85	58
91	144
93	181
97	90
99	52
112	89
113	145
115	150
116	719
117	385
118	634
119	283
123	196
125	194
128	107
129	56
130	77
135	227
137	239
139	62
153	134
160	1934
161	865
162	1939
163	690
164	124
176	78
184	69
193	123
194	69
195	622
196	62
197	1078
198	74
199	424
227	344
229	696
231	361
239	835
240	197
241	1712
242	408
243	1280
244	210
245	129
246	10
255	707
257	1341
258	71
259	732
274	443
275	54
276	810
277	54
278	544
280	125
287	71
289	149
291	84
303	4864
305	9999
306	729
307	5600
308	352
309	527
318	162
320	520
321	49
322	495
324	168
338	1865
339	112
340	4412
341	267
342	3361
343	197
344	967
345	71
