Mass Spectrum: Acetic acid, ethoxy-, ethyl ester
Formula: C6 H12 O3
CAS: 817-95-8
Molecular weight: 132
Origin: NIST Mass Spectrometry Data Center, 1994
m/z	RELATIVE INTENSITY
12	45
13	62
14	439
15	1119
16	85
18	14
19	115
26	862
27	4225
28	1318
29	8285
30	14
31	9999
32	152
37	53
41	1125
42	1785
43	1051
44	445
45	1379
46	71
47	90
56	54
57	117
59	7730
60	2152
61	1849
62	62
70	1021
71	52
73	141
74	50
75	118
88	2994
89	357
103	289
