Mass Spectrum: Propanoic acid, 3,3-dichloro-, methyl ester
Formula: C4 H6 Cl2 O2
CAS: 817-77-6
Molecular weight: 156
Origin: ORMSBG, 17(10) 461(1982);I.O.O.KORHONEN
m/z	RELATIVE INTENSITY
55	200
59	8000
61	4400
62	5700
63	1500
77	600
79	1000
83	1100
85	200
89	1600
90	1200
93	100
97	6600
120	100
121	9999
125	8100
156	3800
