Mass Spectrum: CH3CHClCH2C(O)OCH3
Formula: C5 H9 Cl O2
CAS: 817-76-5
Molecular weight: 136
Origin: ASES Database, Dalian Institute, P.R. China
m/z	RELATIVE INTENSITY
39	1161
41	3062
42	1651
43	1171
49	180
51	50
58	190
59	5524
60	180
61	120
63	740
65	180
69	860
77	2482
79	930
100	730
101	9999
102	620
105	2232
106	120
107	790
135	60
136	60
