Mass Spectrum: Dimethazone
Formula: C12 H14 Cl N O2
CAS: 81777-89-1
Molecular weight: 239
Origin: NIST Mass Spectrometry Data Center, 1990.
m/z	RELATIVE INTENSITY
12	9
13	8
14	11
15	204
16	7
17	7
18	17
19	12
26	133
27	1046
28	476
29	770
30	124
31	117
35	9
36	25
37	68
38	206
39	1521
40	389
41	2068
42	741
43	930
44	56
45	75
46	6
47	7
49	61
50	452
51	572
52	100
53	114
54	58
55	529
56	481
57	135
58	19
59	13
60	11
61	47
62	163
63	665
64	141
65	161
66	21
67	9
68	26
69	90
70	309
71	43
72	61
73	216
74	183
75	679
76	306
77	653
78	127
79	24
80	6
82	19
83	77
84	49
85	94
86	47
87	69
88	6
89	1552
90	438
91	76
92	22
93	14
95	3
96	6
97	27
99	442
100	59
101	152
102	291
103	57
104	101
105	73
106	51
107	121
108	17
109	5
110	3
111	306
112	151
113	107
114	61
115	22
116	22
117	8
118	17
119	6
120	16
121	10
125	9999
126	932
127	3318
128	247
129	24
130	16
132	262
133	30
134	6
138	604
139	192
140	332
141	75
142	45
143	9
144	8
146	17
148	4
149	5
154	6
156	4
158	11
159	6
160	4
165	7
166	32
167	6
168	11
169	3
172	6
173	28
174	43
175	13
176	47
177	7
180	5
181	6
182	5
188	11
189	4
194	6
196	5
200	5
204	6735
205	809
206	79
207	3
208	6
210	10
211	13
212	4
239	77
240	22
241	29
242	10
