Mass Spectrum: 1-Hexanol, 4-methyl-
Formula: C7 H16 O
CAS: 818-49-5
Molecular weight: 116
Origin: CARL DJERASSI DEPT OF CHEM STANFORD UNIV STANFORD CALIF 94305
m/z	RELATIVE INTENSITY
27	1700
28	1500
29	4100
31	1900
39	1000
41	9100
42	2300
43	2600
44	400
55	4000
56	4000
57	3700
67	100
68	200
69	9500
70	9999
71	500
83	500
98	500
