Mass Spectrum: 1-Octyn-3-ol
Formula: C8 H14 O
CAS: 818-72-4
Molecular weight: 126
Origin: Japan AIST/NIMC Database- Spectrum MS-NW-6624
m/z	RELATIVE INTENSITY
14	20
15	159
16	10
18	20
24	20
25	80
26	509
27	2539
28	319
29	2739
30	70
31	159
32	40
37	70
38	209
39	1819
40	409
41	4089
42	1169
43	9999
44	579
45	179
46	10
49	20
50	199
51	389
52	329
53	749
54	269
55	6709
56	1889
57	899
58	129
59	80
60	50
61	30
62	50
63	99
64	30
65	289
66	339
67	989
68	929
69	809
70	3789
71	2119
72	279
73	50
74	30
75	20
76	10
77	539
78	169
79	1819
80	439
81	339
82	379
83	2149
84	579
85	70
86	10
87	10
89	20
90	10
91	329
92	50
93	1549
94	129
95	219
96	99
97	729
98	109
99	40
100	20
102	10
103	20
104	10
105	40
106	20
107	149
108	60
109	90
110	20
111	99
112	10
121	10
123	50
124	10
125	80
126	10
