Mass Spectrum: Sebacic acid monomethyl ester
Formula: C11 H20 O4
CAS: 818-88-2
Molecular weight: 216
Origin: Japan AIST/NIMC Database- Spectrum MS-IW- 817
m/z	RELATIVE INTENSITY
15	449
17	20
18	20
26	20
27	339
28	99
29	589
30	20
31	119
32	30
33	20
39	379
40	90
41	1829
42	449
43	2669
44	149
45	309
51	20
53	189
54	219
55	5169
56	539
57	519
58	60
59	1949
60	109
61	30
65	50
66	40
67	939
68	429
69	2509
70	499
71	239
72	60
73	669
74	6879
75	469
76	40
77	50
78	40
79	609
80	459
81	1109
82	519
83	3349
84	5029
85	449
86	30
87	2479
88	319
89	20
91	129
92	50
93	379
94	419
95	759
96	1069
97	4929
98	7429
99	569
100	99
101	959
102	99
104	99
105	80
106	149
107	809
108	90
109	319
110	819
111	989
112	789
113	219
114	329
115	869
116	109
117	20
119	179
120	429
121	1469
122	269
123	289
124	1399
125	9999
126	909
127	219
128	80
129	149
130	149
131	99
133	30
135	40
136	20
137	319
138	4729
139	2199
140	229
141	80
142	349
143	119
144	639
145	60
147	70
148	859
149	589
150	80
151	129
152	80
153	80
154	129
155	90
156	319
157	4889
158	499
159	40
165	149
166	4749
167	809
168	90
169	50
170	839
171	279
172	70
174	20
180	149
181	50
183	20
185	179
186	20
187	20
197	70
198	539
199	5829
200	739
201	70
