Mass Spectrum: Allyl fluoride
Formula: C3 H5 F
CAS: 818-92-8
Molecular weight: 60
m/z	RELATIVE INTENSITY
13	40
14	70
15	160
19	90
20	70
24	30
25	120
26	460
27	2112
28	160
29	110
30	10
31	711
32	180
33	1541
34	20
35	10
36	130
37	480
38	540
39	2803
40	500
41	380
42	60
43	30
44	190
45	631
46	40
55	50
56	210
57	1551
58	480
59	9999
60	5655
61	200
