Mass Spectrum: 1,5-Anhydro-4-O-acetyl-2,3,6-tri-O-methyl-D-glucitol
Formula: C11 H20 O6
CAS: 81847-57-6
Molecular weight: 248
Origin: A. VAN LANGENHOVE, HARVARD SCH. PUBLIC HEALTH, BOSTON, USA
m/z	RELATIVE INTENSITY
71	5484
72	375
73	1650
74	3558
75	4594
76	249
77	199
78	134
79	259
81	824
82	450
83	899
84	830
85	3830
86	338
87	6735
88	2303
89	998
91	168
93	145
94	121
95	515
96	247
97	8986
98	1083
99	1174
100	1880
101	3113
102	430
103	3708
104	313
105	154
109	249
110	185
111	2480
112	303
113	606
114	374
115	1593
116	895
117	1197
118	203
119	341
123	247
124	212
125	303
126	207
127	288
128	232
129	9999
130	1473
131	569
132	142
137	102
141	173
142	195
143	7828
144	863
145	2681
146	264
147	169
149	103
155	105
156	300
157	141
158	153
160	198
161	391
169	154
171	9520
172	1128
173	244
174	176
175	300
183	183
185	360
186	219
189	832
203	5384
204	577
205	322
206	122
248	106
