Mass Spectrum: 1,5-Anhydro-2,3,4,6-tetra-O-methyl-D-glucitol
Formula: C10 H20 O5
CAS: 81874-02-4
Molecular weight: 220
Origin: A. VAN LANGENHOVE, HARVARD SCH. PUBLIC HEALTH, BOSTON, USA
m/z	RELATIVE INTENSITY
69	355
71	4918
72	766
73	1709
74	407
75	3290
76	101
83	297
84	139
85	756
86	118
87	767
88	3035
89	657
99	1839
100	305
101	9999
102	2226
103	326
111	1093
112	145
113	250
114	493
115	1925
116	258
117	226
125	629
126	171
127	299
129	303
130	118
131	196
141	163
143	3710
144	233
156	381
157	421
158	525
161	120
174	232
175	2944
176	288
188	1034
189	115
