Mass Spectrum: Phosphine, bis(1,1-dimethylethyl)-
Formula: C8 H19 P
CAS: 819-19-2
Molecular weight: 146
m/z	RELATIVE INTENSITY
29	2789
40	263
41	3263
42	263
55	421
56	368
57	9999
58	684
60	632
75	263
89	53
90	737
91	474
131	53
146	842
147	263
