Mass Spectrum: Butanoic acid, 3,4-dichloro-, methyl ester
Formula: C5 H8 Cl2 O2
CAS: 819-93-2
Molecular weight: 170
Origin: ASES Database, Dalian Institute, P.R. China
m/z	RELATIVE INTENSITY
39	4213
41	5164
42	1521
43	3052
44	600
49	2402
51	960
55	1311
56	590
57	610
59	7446
61	1221
62	1201
63	550
69	790
71	3503
74	1030
75	6065
76	1211
77	2131
78	540
79	730
83	610
85	600
93	1501
95	710
97	360
99	9999
100	6085
103	1561
105	610
106	850
110	600
111	2422
112	350
113	1451
135	4233
136	410
137	2592
139	3192
141	2111
143	420
169	180
171	120
