Mass Spectrum: 9,10-Anthracenedione, 1-amino-2-methyl-
Formula: C15 H11 N O2
CAS: 82-28-0
Molecular weight: 237
Origin: NIST Mass Spectrometry Data Center, 1998.
m/z	RELATIVE INTENSITY
27	50
29	10
30	20
38	50
39	150
40	10
41	20
42	20
50	340
51	390
52	180
53	100
54	50
55	10
61	20
62	120
63	330
64	130
65	130
66	40
68	10
69	60
73	20
74	250
75	390
76	1010
77	900
78	170
79	40
82	80
83	90
85	20
86	90
87	150
88	110
89	20
90	610
92	20
96	20
97	60
98	70
99	90
100	70
101	130
102	160
103	20
104	410
105	280
106	20
110	40
111	150
112	20
113	160
114	110
115	150
116	30
117	20
118	450
120	10
122	20
123	10
124	10
125	90
126	230
127	340
128	160
129	40
130	40
133	10
137	80
138	100
139	280
140	190
141	60
143	10
149	20
150	200
151	600
152	1730
153	790
154	230
155	30
156	10
161	10
162	70
163	650
164	400
165	320
166	120
167	30
168	20
169	10
175	10
176	20
177	90
178	220
179	180
180	3640
181	1030
182	140
183	20
188	20
189	20
190	140
191	60
192	60
193	100
194	50
195	10
206	40
207	40
208	1510
209	640
210	110
211	20
219	40
220	50
221	60
222	120
223	10
234	10
236	2450
237	9999
238	1680
239	170
240	10
