Mass Spectrum: 9,10-Anthracenedione, 1,8-dichloro-
Formula: C14 H6 Cl2 O2
CAS: 82-43-9
Molecular weight: 276
Origin: Japan AIST/NIMC Database- Spectrum MS-NW-9575
m/z	RELATIVE INTENSITY
28	20
35	10
36	80
37	20
38	30
39	30
41	10
43	20
44	20
49	40
50	139
51	70
53	50
55	20
57	30
61	99
62	159
63	70
67	30
68	10
69	20
71	20
72	10
73	149
74	859
75	1979
76	209
77	90
78	10
79	50
80	50
81	20
82	10
83	20
84	159
85	80
86	129
87	109
88	20
89	50
90	10
91	20
92	1069
93	499
94	60
95	10
96	10
97	99
98	259
99	359
100	90
101	40
102	10
103	40
106	649
107	249
108	80
109	179
110	1089
111	599
112	229
113	50
120	70
121	60
122	119
123	329
124	649
125	409
126	70
132	10
133	20
134	20
135	50
136	20
137	20
138	169
139	90
140	30
141	10
145	40
146	30
147	70
148	70
149	849
150	3589
151	719
152	99
153	10
157	10
158	10
159	70
160	40
161	40
162	30
163	10
170	10
172	10
173	30
175	10
179	80
180	80
181	10
183	50
184	599
185	2409
186	809
187	839
188	199
189	20
194	30
195	10
196	30
197	10
198	10
207	149
208	109
209	10
211	10
212	20
213	1169
214	659
215	459
216	219
217	30
218	10
219	299
220	4689
221	799
222	3059
223	429
224	499
225	70
227	10
241	4379
242	1489
243	1589
244	499
245	60
246	10
247	189
248	4289
249	739
250	2739
251	419
252	489
253	60
254	40
256	30
258	10
275	1129
276	9999
277	2249
278	6529
279	1099
280	1119
281	169
282	50
284	30
