Mass Spectrum: Benzene, pentachloronitro-
Formula: C6 Cl5 N O2
CAS: 82-68-8
Molecular weight: 293
Origin: ACCUSTANDARD Chemicals / NIST MS Data Center.
m/z	RELATIVE INTENSITY
12	27
15	43
16	55
17	3
18	26
24	45
28	197
30	5374
32	47
35	371
36	643
37	158
38	60
40	14
44	30
46	485
47	721
48	151
49	245
59	89
60	633
62	93
63	95
65	70
66	33
71	1210
72	867
73	411
74	98
82	68
83	299
84	63
85	143
86	340
87	71
88	139
89	128
90	52
94	177
95	757
96	162
97	355
98	58
99	38
100	26
106	650
107	2721
108	664
109	901
110	148
111	32
117	434
118	1285
119	369
120	788
121	360
122	176
123	124
130	574
132	413
133	47
134	130
141	872
142	5017
143	1110
144	3343
145	442
146	572
147	76
153	69
155	91
156	106
157	33
158	75
165	762
167	783
168	55
169	310
171	34
177	2738
179	2596
180	241
181	916
182	87
183	97
193	75
195	107
197	41
200	197
202	237
203	64
204	113
206	30
212	4533
214	6181
215	562
216	3044
217	239
218	642
219	55
220	59
223	40
225	47
226	99
228	821
230	1155
231	132
232	654
233	97
234	40
235	6053
236	40
237	9999
238	40
239	6532
240	506
241	2158
242	128
243	362
244	32
247	4222
249	7081
251	4528
252	338
253	1404
254	113
255	256
258	38
260	82
263	2628
265	4247
266	453
267	2694
268	228
269	933
270	99
271	141
277	126
278	56
279	243
280	39
281	161
283	68
293	5041
295	8346
296	800
297	5145
298	435
299	1606
300	104
301	292
