Mass Spectrum: Diphenadione
Formula: C23 H16 O3
CAS: 82-66-6
Molecular weight: 340
Origin: MASS SPECTROMETRY CENTER, UNIV. OF UTAH EPA-PTSEL 2600
m/z	RELATIVE INTENSITY
14	187
15	64
16	95
17	264
18	1036
26	51
27	303
28	1421
29	228
30	21
32	79
36	235
37	21
38	204
39	973
40	126
41	195
42	19
43	250
44	186
45	258
50	610
51	883
52	143
53	128
55	133
57	107
60	21
61	61
62	347
63	1088
64	140
65	279
66	23
69	367
71	21
73	85
74	316
75	392
76	593
77	1539
78	245
79	18
81	20
82	153
86	119
87	216
88	231
89	2629
90	318
91	274
98	32
99	49
100	49
101	291
102	155
103	28
104	146
105	925
106	95
110	18
113	119
114	50
115	427
116	77
117	302
118	43
125	21
126	107
127	69
128	290
129	100
131	113
132	50
137	17
138	44
139	296
140	22
141	132
145	21
146	52
150	43
151	208
152	1540
153	350
154	17
161	91
163	311
164	174
165	4005
166	272
167	8918
168	2764
169	698
170	75
172	35
173	9999
174	1146
175	262
176	147
177	76
178	128
187	24
189	147
194	46
199	33
233	39
235	230
237	171
239	92
246	36
249	52
250	32
252	26
263	222
264	79
265	953
266	240
280	16
293	48
294	16
320	38
321	263
322	1235
323	331
324	41
340	5723
341	701
342	193
