Mass Spectrum: Phenol, 2-nitro-3,4,6-trichloro-
Formula: C6 H2 Cl3 N O3
CAS: 82-62-2
Molecular weight: 241
Origin: NIST Mass Spectrometry Data Center, 1998.
m/z	RELATIVE INTENSITY
17	180
18	810
27	120
29	280
30	2470
35	370
36	800
37	1000
38	490
39	110
41	30
42	50
43	50
44	260
45	100
46	470
47	600
48	880
49	1280
50	690
51	410
52	460
53	1590
54	170
55	460
56	130
59	80
60	1650
61	4650
62	2490
63	730
64	340
65	440
66	300
67	80
71	1030
72	1100
73	1540
74	920
75	1330
76	1100
77	900
78	390
80	170
82	120
83	820
84	1290
85	1240
86	960
87	2270
88	820
89	1060
90	600
91	200
92	20
94	60
95	1180
96	5469
97	4280
98	2510
99	1660
100	460
101	250
102	110
103	100
106	740
107	3170
108	1100
109	2390
110	1050
111	730
112	3890
113	370
114	1230
115	120
117	30
118	190
119	1820
120	300
121	1270
122	170
123	200
124	1260
125	280
126	290
127	180
128	30
130	250
131	9999
132	1160
133	6619
134	680
135	1160
136	220
140	70
141	140
142	140
143	120
144	210
145	180
146	280
147	4750
148	440
149	3000
150	380
151	310
152	120
154	80
155	170
156	100
157	140
158	80
159	1490
160	530
161	700
162	400
163	220
164	100
165	60
166	2360
167	6409
168	2680
169	6129
170	710
171	1930
172	210
173	110
174	120
175	720
176	320
177	540
178	330
179	220
180	170
182	160
183	4280
184	350
185	2310
186	170
187	670
189	250
191	90
194	260
195	610
196	2250
197	680
198	1690
199	230
200	600
210	70
211	4790
212	250
213	4490
214	270
215	1420
216	60
217	160
221	30
223	30
224	540
225	130
226	490
227	130
228	170
241	3500
242	240
243	3490
244	300
245	1150
246	90
247	160
