Mass Spectrum: 2,4,6-Trinitroresorcinol
Formula: C6 H3 N3 O8
CAS: 82-71-3
Molecular weight: 245
Origin: Japan AIST/NIMC Database- Spectrum MS-NW-1617
m/z	RELATIVE INTENSITY
12	80
13	10
14	20
15	10
16	209
24	20
25	80
26	129
27	369
28	1149
29	559
30	9999
31	60
32	40
36	60
37	1029
38	889
39	749
40	289
41	269
42	159
43	209
44	3099
45	509
46	579
47	20
48	99
49	929
50	1109
51	849
52	479
53	4779
54	639
55	339
56	129
57	20
60	50
61	219
62	159
63	389
64	399
65	959
66	899
67	2349
68	509
69	869
70	1239
71	70
72	60
73	10
74	30
75	50
76	90
77	4049
78	809
79	969
80	309
81	359
82	99
83	209
84	159
85	10
88	10
89	20
90	30
91	419
92	839
93	369
94	349
95	1989
96	469
97	4329
98	239
99	30
102	10
104	10
105	169
106	139
107	519
108	119
109	349
110	50
111	10
112	10
119	30
120	10
121	60
122	219
123	30
124	60
125	80
126	10
135	179
136	30
137	50
138	10
139	60
141	899
142	50
152	20
153	119
154	10
165	30
167	30
169	40
170	10
182	99
183	10
198	40
200	40
211	10
212	60
215	279
216	20
225	10
227	90
229	90
245	5709
246	459
247	109
