Mass Spectrum: Phenindamine
Formula: C19 H19 N
CAS: 82-88-2
Molecular weight: 261
Origin: AAFS Toxicology Section MS DB Committee, U. Alberta, Canada
m/z	RELATIVE INTENSITY
41	220
42	1020
43	520
44	620
45	240
46	40
50	60
51	210
52	110
53	150
55	360
56	170
57	900
58	560
59	220
60	210
61	60
63	170
64	30
65	110
66	30
67	170
68	170
69	500
70	500
71	330
72	40
73	230
74	70
75	110
76	1040
77	450
78	260
79	140
80	220
81	230
82	160
83	270
84	180
85	160
86	60
87	160
88	220
89	180
91	420
92	60
93	110
94	540
95	240
96	100
97	190
98	140
99	110
100	380
101	270
102	130
103	90
104	50
105	300
106	120
107	200
108	360
109	160
110	120
111	100
112	70
113	130
114	120
115	780
117	70
118	60
121	120
122	120
123	80
124	40
125	50
126	90
127	150
128	210
129	220
130	200
131	30
132	50
135	690
137	120
138	360
139	170
141	510
143	40
144	30
146	30
147	40
148	240
150	110
151	130
152	240
153	110
154	70
155	60
157	50
159	40
161	50
162	140
164	80
165	320
166	760
168	250
169	90
170	110
171	50
172	30
173	50
175	50
176	120
177	50
178	190
179	150
180	80
181	160
182	900
183	390
184	980
185	210
186	100
187	90
189	430
190	150
191	170
192	80
199	40
200	140
201	210
202	1691
203	1121
204	380
205	130
206	30
210	30
211	30
213	280
214	130
215	1010
216	390
217	1301
218	870
220	50
226	40
227	50
228	120
229	110
230	90
231	60
232	50
233	30
236	30
240	40
241	90
242	90
243	140
244	150
245	70
246	50
256	60
257	100
258	290
260	9999
261	6255
262	1020
263	130
