Mass Spectrum: Piperidolate
Formula: C21 H25 N O2
CAS: 82-98-4
Molecular weight: 323
Origin: AAFS Toxicology Section MS DB Committee, U. Alberta, Canada
m/z	RELATIVE INTENSITY
41	250
42	640
43	740
44	230
45	130
50	60
51	110
52	40
53	80
54	140
55	400
56	500
57	400
58	560
59	30
60	80
63	70
65	80
66	40
67	190
68	300
69	380
70	360
71	1010
72	450
73	80
74	50
75	30
76	50
77	240
78	40
79	50
80	70
81	100
82	640
83	210
84	510
85	120
86	150
87	60
88	20
89	90
90	30
91	70
93	40
94	80
95	290
96	4884
97	510
98	180
99	70
100	310
101	40
102	40
104	20
105	300
106	40
107	30
108	60
109	50
110	670
111	9999
112	1151
113	110
114	380
115	200
116	20
121	30
123	40
124	30
125	300
126	120
127	50
128	250
129	80
135	20
137	20
138	200
139	40
141	70
143	100
147	20
149	50
150	20
151	100
152	780
153	110
155	20
163	100
164	140
165	1471
167	1521
168	220
169	20
181	30
182	90
183	20
197	20
308	140
322	60
323	30
