Mass Spectrum: 1,1-Dichloropentane
Formula: C5 H10 Cl2
CAS: 820-55-3
Molecular weight: 140
Origin: Susan Richardson
m/z	RELATIVE INTENSITY
39	611
41	1611
42	460
43	9999
44	270
48	140
55	140
56	1521
57	641
59	50
61	470
62	70
63	150
72	40
73	280
77	110
78	60
83	2322
85	1702
87	741
88	30
97	70
99	50
101	90
105	360
107	90
140	20
142	10
