Mass Spectrum: 2-Propen-1-ol, 2-methyl-, acetate
Formula: C6 H10 O2
CAS: 820-71-3
Molecular weight: 114
m/z	RELATIVE INTENSITY
15	1321
26	160
27	1091
28	410
29	1071
31	160
37	60
38	160
39	1932
40	210
41	500
42	320
43	9999
44	300
45	80
50	70
51	90
52	50
53	450
54	731
55	721
56	70
57	871
58	50
61	260
69	60
71	440
72	3843
73	200
114	30
115	10
