Mass Spectrum: 5-Hexen-1-ol
Formula: C6 H12 O
CAS: 821-41-0
Molecular weight: 100
Origin: NIST Mass Spectrometry Data Center
m/z	RELATIVE INTENSITY
14	10
15	80
19	40
25	10
26	210
27	1571
28	530
29	1651
30	140
31	4104
32	50
33	10
37	100
38	310
39	4324
40	771
41	6386
42	3143
43	1261
44	1311
45	410
46	10
49	30
50	240
51	390
52	170
53	1311
54	9999
55	2222
56	1001
57	4814
58	460
59	130
60	10
61	20
62	50
63	80
64	10
65	450
66	170
67	9699
68	601
69	260
70	90
71	601
72	490
73	10
74	10
77	90
78	10
79	300
80	50
81	931
82	2552
83	170
84	10
85	40
99	10
