Mass Spectrum: 1,9-Dichlorononane
Formula: C9 H18 Cl2
CAS: 821-99-8
Molecular weight: 196
Origin: Japan AIST/NIMC Database- Spectrum MS-NW-5661
m/z	RELATIVE INTENSITY
14	10
15	70
26	119
27	2289
28	169
29	2159
30	50
35	30
36	159
38	80
39	1679
40	259
41	7159
42	1479
43	3419
44	149
45	10
46	10
49	509
50	50
51	179
52	60
53	579
54	699
55	9329
56	1679
57	1189
58	60
61	40
62	90
63	659
64	40
65	249
66	70
67	829
68	969
69	5319
70	1159
71	169
72	10
75	129
76	99
77	389
78	50
79	129
80	20
81	549
82	1089
83	2259
84	389
85	30
88	10
89	60
90	219
91	9999
92	599
93	3449
94	189
95	449
96	229
97	489
98	129
99	10
103	40
104	1179
105	1189
106	449
107	389
108	20
109	40
111	99
116	20
117	90
118	589
119	119
120	199
121	50
123	20
124	30
125	30
130	20
131	90
132	289
133	60
134	80
135	30
137	30
151	20
160	50
162	20
