Mass Spectrum: 3-Undecene, (Z)-
Formula: C11 H22
CAS: 821-97-6
Molecular weight: 154
Origin: S.A. Rang et al., IR & MS of Unsatd. Hydrocarbons, 1977
m/z	RELATIVE INTENSITY
14	4
15	78
24	4
25	14
26	115
27	2446
28	294
29	3288
30	80
37	16
38	43
39	2006
40	399
41	9999
42	2740
43	5480
44	148
45	6
50	39
51	135
52	105
53	979
54	1125
55	6986
56	5480
57	2642
58	113
59	4
63	20
64	8
65	186
66	142
67	1615
68	832
69	5069
70	3836
71	708
72	37
77	123
78	29
79	200
80	39
81	386
82	476
83	1908
84	1468
85	361
86	23
91	37
92	6
93	23
94	6
95	117
96	154
97	979
98	489
105	4
107	6
109	96
110	90
111	451
112	180
113	20
123	47
124	21
125	135
126	142
127	14
139	6
154	1123
155	133
156	8
