Mass Spectrum: 1,5-Hexadien-3-yne
Formula: C6 H6
CAS: 821-08-9
Molecular weight: 78
m/z	RELATIVE INTENSITY
12	30
13	20
14	40
15	40
24	10
25	60
26	370
27	480
28	160
29	20
31	30
34	30
36	100
37	721
38	781
39	2142
40	70
41	20
42	10
43	20
44	40
45	10
47	10
48	80
49	430
50	3213
51	4444
52	5895
53	270
54	10
55	10
60	90
61	290
62	300
63	1011
64	60
65	10
67	10
69	10
70	20
72	40
73	410
74	1371
75	581
76	721
77	2622
78	9999
79	641
80	20
