Mass Spectrum: 2-Butyne, 1,4-dichloro-
Formula: C4 H4 Cl2
CAS: 821-10-3
Molecular weight: 122
Origin: Japan AIST/NIMC Database- Spectrum MS-NW-2790
m/z	RELATIVE INTENSITY
12	20
13	10
14	10
24	10
25	70
26	449
27	219
28	60
35	219
36	179
37	199
38	99
39	70
40	10
41	20
42	10
43	109
44	50
47	50
48	50
49	479
50	1529
51	3229
52	2869
53	159
60	80
61	409
62	159
63	139
64	40
69	10
72	10
73	239
74	10
75	90
83	20
84	50
85	379
86	739
87	9999
88	659
89	3199
90	149
96	80
98	50
107	10
109	70
111	40
121	30
122	2369
123	219
124	1509
125	129
126	239
127	20
