Mass Spectrum: 2-Undecene, (Z)-
Formula: C11 H22
CAS: 821-96-5
Molecular weight: 154
Origin: D.HENNEBERG, MAX-PLANCK INSTITUTE, MULHEIM, WEST GERMANY
m/z	RELATIVE INTENSITY
25	60
26	300
27	4603
28	1113
29	5837
30	180
32	70
35	50
36	70
37	140
38	310
39	4974
40	922
41	9999
42	3279
43	7021
44	300
49	60
50	200
51	421
52	280
53	1544
54	1494
55	9368
56	6248
57	5045
58	280
62	80
63	120
64	70
65	250
66	230
67	1163
68	1163
69	4964
70	4814
71	932
72	90
73	60
75	60
77	180
78	90
79	190
80	90
81	320
82	501
83	2256
84	1995
85	461
86	70
91	80
93	60
95	110
96	240
97	1474
98	902
99	120
109	60
110	120
111	661
112	381
113	80
124	70
125	250
126	290
127	70
154	1985
155	245
156	12
