Mass Spectrum: 4-Penten-1-ol
Formula: C5 H10 O
CAS: 821-09-0
Molecular weight: 86
m/z	RELATIVE INTENSITY
15	320
17	80
18	110
26	380
27	3713
28	1653
29	4134
30	290
31	3283
32	300
38	300
39	4284
40	1631
41	4844
42	1651
43	1732
44	4014
45	1381
50	190
51	340
52	230
53	3613
54	651
55	3053
56	1581
57	2823
58	921
65	220
66	260
67	9999
68	9579
69	621
71	561
81	50
82	40
83	50
84	30
85	70
86	50
