Mass Spectrum: Benzoic acid, 2-amino-, phenylmethyl ester
Formula: C14 H13 N O2
CAS: 82185-41-9
Molecular weight: 227
Origin: NIST Mass Spectrometry Data Center, 1994
m/z	RELATIVE INTENSITY
15	27
26	76
27	223
28	155
29	108
30	21
37	123
38	437
39	1998
40	166
41	410
42	103
43	11
44	24
45	36
46	46
50	445
51	869
52	645
53	164
54	60
60	27
61	80
62	302
63	974
64	778
65	4499
66	486
67	28
74	99
75	94
76	142
77	717
78	201
79	305
80	41
86	20
87	22
89	433
91	9999
92	2064
93	512
94	58
103	21
104	86
105	242
106	1340
107	182
108	20
114	12
119	364
120	1064
121	422
122	43
130	19
132	173
133	32
137	17
149	19
150	52
151	16
152	22
165	36
166	16
167	26
180	471
181	125
182	55
196	42
208	218
209	105
210	16
227	1721
228	268
229	28
