Mass Spectrum: Cyclohexanone, 2-chloro-
Formula: C6 H9 Cl O
CAS: 822-87-7
Molecular weight: 132
Origin: NIST Mass Spectrometry Data Center, 1994
m/z	RELATIVE INTENSITY
12	25
13	51
15	556
17	2
18	26
25	107
26	1276
27	4958
28	2
29	627
31	39
33	30
34	25
35	129
36	135
37	485
38	1019
39	5406
40	1236
41	5783
42	7422
43	333
44	94
47	59
48	182
49	377
50	504
51	621
52	198
53	952
54	59
55	9999
56	415
57	64
60	40
61	244
62	741
63	323
64	211
65	235
66	40
67	724
68	2464
69	1968
70	909
71	51
73	84
74	42
75	595
76	405
77	242
78	157
79	306
80	34
81	172
83	46
88	2518
89	248
90	794
91	89
95	39
96	408
97	2471
98	183
104	69
105	22
106	32
114	22
130	14
132	2379
133	181
134	777
135	59
