Mass Spectrum: 1H-Imidazole, 4-methyl-
Formula: C4 H6 N2
CAS: 822-36-6
Molecular weight: 82
Origin: NIST Mass Spectrometry Data Center, 1998.
m/z	RELATIVE INTENSITY
14	20
15	40
24	10
25	70
26	500
27	760
28	2840
29	140
30	110
36	20
37	100
38	280
39	440
40	710
41	720
42	630
43	30
50	70
51	500
52	1230
53	590
54	6839
55	1240
56	60
65	10
66	30
67	240
68	20
77	10
79	20
80	170
81	7519
82	9999
83	510
