Mass Spectrum: Cyclohexane, 1,2-dichloro-, trans-
Formula: C6 H10 Cl2
CAS: 822-86-6
Molecular weight: 152
Origin: Chuck Anderson, Aldrich Chemical Co.
m/z	RELATIVE INTENSITY
14	1
15	27
16	1
24	1
25	8
26	194
27	1403
28	307
29	298
30	8
31	5
32	5
35	21
36	51
37	116
38	329
39	2692
40	411
41	3230
42	331
43	45
44	6
45	2
47	18
48	23
49	408
50	509
51	1096
52	394
53	1807
54	1644
55	2240
56	221
57	45
58	14
59	1
60	33
61	211
62	817
63	305
64	274
65	507
66	158
67	1480
68	82
69	95
70	6
71	2
72	10
73	122
74	66
75	1384
76	189
77	1019
78	165
79	2413
80	7383
81	9999
82	644
83	51
84	5
85	35
86	9
87	65
88	564
89	201
90	475
91	76
92	99
93	5
95	6
96	84
97	12
98	55
99	25
100	21
101	113
102	11
103	88
104	6
105	18
106	1
107	3
109	73
110	19
111	55
112	15
113	14
114	7
115	48
116	653
117	141
118	211
119	41
120	3
122	6
123	5
124	10
125	3
126	5
150	1
152	401
153	25
154	271
155	16
156	42
157	3
