Mass Spectrum: 1-Docosanol, acetate
Formula: C24 H48 O2
CAS: 822-26-4
Molecular weight: 368
Origin: NIST Mass Spectrometry Data Center
m/z	RELATIVE INTENSITY
15	40
26	20
27	240
28	90
29	871
30	20
37	10
38	10
39	300
40	80
41	3243
42	1001
43	9999
44	320
45	60
51	10
52	10
53	190
54	801
55	5705
56	2762
57	6426
58	380
59	90
61	5035
62	110
63	20
65	40
66	90
67	1101
68	1531
69	4604
70	2452
71	3143
72	190
73	400
74	20
77	30
78	10
79	110
80	70
81	821
82	3003
83	5905
84	1772
85	2012
86	130
87	50
88	20
91	10
93	20
94	40
95	500
96	1501
97	5945
98	1341
99	530
100	40
101	70
102	30
107	10
108	10
109	230
110	571
111	3423
112	821
113	320
114	30
115	20
116	350
117	30
122	20
123	140
124	370
125	1631
126	520
127	190
128	20
129	20
130	50
136	10
137	90
138	250
139	641
140	350
141	110
142	20
151	20
152	160
153	320
154	220
155	70
156	10
165	20
166	100
167	190
168	150
169	50
170	10
180	70
181	110
182	100
183	30
184	10
194	60
195	60
196	80
197	20
208	40
209	40
210	40
211	10
222	30
223	30
224	40
225	10
236	30
237	20
238	30
239	10
250	20
251	20
252	20
264	10
265	10
266	10
278	10
279	10
280	140
281	30
306	10
308	140
309	40
310	10
353	10
