Mass Spectrum: 1,3-Dioxolane, 2-(1-methylethyl)-
Formula: C6 H12 O2
CAS: 822-83-3
Molecular weight: 116
Origin: D.H.WILLIAMS CHEMISTRY DEPT., UNIVERSITY OF CAMBRIDGE
m/z	RELATIVE INTENSITY
14	100
15	2500
18	200
19	300
26	100
27	700
28	500
29	350
30	50
31	100
38	50
39	400
40	100
41	700
42	150
43	750
44	150
45	2800
46	100
53	100
54	100
55	300
56	650
57	400
71	200
72	100
73	9999
74	400
85	100
86	100
99	100
101	100
115	300
116	150
