Mass Spectrum: 1,3-Dithiolane-2-thione
Formula: C3 H4 S3
CAS: 822-38-8
Molecular weight: 136
Origin: Japan AIST/NIMC Database- Spectrum MS-NW-4620
m/z	RELATIVE INTENSITY
12	10
15	20
24	10
25	30
26	329
27	709
28	189
29	10
32	519
33	90
34	119
44	579
45	3209
46	469
47	199
48	20
56	30
57	249
58	789
59	3459
60	4679
61	279
62	239
64	2299
65	60
66	209
68	20
69	20
71	20
76	3479
77	409
78	279
79	30
88	10
89	10
90	129
91	10
92	239
94	20
108	1289
109	60
110	189
136	9999
137	579
138	1359
139	70
140	70
