Mass Spectrum: Heptadecyl acetate
Formula: C19 H38 O2
CAS: 822-20-8
Molecular weight: 298
Origin: NIST Mass Spectrometry Data Center
m/z	RELATIVE INTENSITY
15	50
26	20
27	350
28	130
29	1051
30	30
31	40
38	10
39	380
40	100
41	3513
42	1051
43	9999
44	340
45	60
51	20
52	10
53	240
54	751
55	5055
56	2722
57	4494
58	310
59	70
60	40
61	3994
62	80
63	20
65	40
66	80
67	961
68	1331
69	4014
70	2502
71	2032
72	130
73	440
74	20
77	30
78	10
79	100
80	50
81	571
82	2362
83	4834
84	1742
85	1201
86	90
87	50
88	20
91	10
93	20
94	20
95	300
96	1031
97	4364
98	1251
99	280
101	60
102	20
108	10
109	110
110	380
111	2342
112	731
113	140
114	20
115	20
116	340
117	30
122	10
123	60
124	240
125	1001
126	430
127	80
128	10
129	20
130	40
137	30
138	150
139	320
140	250
141	40
143	10
152	90
153	120
154	170
155	30
156	10
166	60
167	50
168	90
180	30
181	30
182	60
183	10
194	20
195	20
196	20
197	10
208	10
209	10
210	220
211	40
212	10
226	10
236	10
238	140
239	30
283	10
