Mass Spectrum: Cyclopropane, 1,1'-ethenylidenebis-
Formula: C8 H12
CAS: 822-93-5
Molecular weight: 108
Origin: AMERICAN OIL CO., WHITING, IND, USA
m/z	RELATIVE INTENSITY
13	169
14	650
15	1480
16	50
24	4
25	59
26	1080
27	5120
28	906
29	745
30	21
31	19
32	13
36	21
37	498
38	1370
39	9999
40	1610
41	7280
42	402
43	255
44	136
45	27
46	6
49	107
50	1320
51	2510
52	1510
53	2000
54	837
55	443
56	67
57	10
58	27
60	17
61	146
62	356
63	780
64	165
65	2400
66	1700
67	4990
68	439
69	52
70	13
71	17
72	8
73	31
74	132
75	125
76	23
77	6230
78	1130
79	5440
80	1940
81	293
82	40
83	6
84	8
85	13
86	15
87	15
88	146
89	33
90	31
91	3950
92	402
93	6670
94	483
95	19
98	6
102	15
103	44
104	17
105	213
106	25
107	523
108	3030
109	236
110	6
