Mass Spectrum: 2,5-Furandicarboxaldehyde
Formula: C6 H4 O3
CAS: 823-82-5
Molecular weight: 124
Origin: I.Cutzach ET AL.J.Agric.Food Chem.,47,1663(1999)
m/z	RELATIVE INTENSITY
41	200
42	340
48	200
50	420
51	340
53	450
65	20
66	230
67	861
68	80
69	20
95	2973
96	280
123	6346
124	9999
125	791
126	20
