Mass Spectrum: 1,3-Cyclopentanedione, 2-ethyl-
Formula: C7 H10 O2
CAS: 823-36-9
Molecular weight: 126
Origin: M. VANDEWALLE
m/z	RELATIVE INTENSITY
41	1500
42	400
43	1500
53	300
56	1500
57	600
67	300
69	4600
70	700
71	200
72	300
84	1800
85	100
97	1000
98	300
125	3100
126	9999
127	900
