Mass Spectrum: 2H-Pyran-2-one, tetrahydro-6-methyl-
Formula: C6 H10 O2
CAS: 823-22-3
Molecular weight: 114
Origin: Japan AIST/NIMC Database- Spectrum MS-IW-6579
m/z	RELATIVE INTENSITY
14	40
15	189
18	10
26	159
27	959
28	309
29	459
30	10
31	40
32	20
34	20
35	10
37	60
38	149
39	1159
40	339
41	1779
42	9999
43	2539
44	99
45	139
49	10
50	40
51	50
52	20
53	119
54	60
55	2299
56	149
57	30
58	40
59	20
60	40
61	10
62	10
63	10
65	10
67	40
68	40
69	60
70	6409
71	1319
72	60
73	20
81	20
84	20
85	169
86	30
97	10
99	769
100	50
101	10
113	60
114	599
115	60
