Mass Spectrum: Ethanone, 1-cyclohexyl-
Formula: C8 H14 O
CAS: 823-76-7
Molecular weight: 126
Origin: Japan AIST/NIMC Database- Spectrum MS-NW-8952
m/z	RELATIVE INTENSITY
15	209
18	10
26	30
27	589
28	199
29	539
30	10
31	10
32	10
36	10
38	20
39	959
40	129
41	3619
42	259
43	5819
44	149
45	139
50	50
51	179
52	70
53	429
54	649
55	9999
56	539
57	99
58	479
59	449
60	10
63	30
65	119
66	90
67	2009
68	1599
69	429
70	70
71	4109
72	209
73	20
74	10
75	10
76	10
77	359
78	99
79	369
80	80
81	409
82	1199
83	6989
84	1139
85	789
86	40
89	10
91	119
92	20
93	179
94	40
95	50
96	30
97	399
98	90
99	10
107	20
108	189
109	80
110	30
111	1189
112	109
113	10
120	10
123	10
124	20
125	20
126	3109
127	569
128	30
