Mass Spectrum: Bicyclo(3.2.1)oct-2-ene
Formula: C8 H12
CAS: 823-02-9
Molecular weight: 108
Origin: NIST Mass Spectrometry Data Center, 1990.
m/z	RELATIVE INTENSITY
14	87
26	147
27	810
28	232
29	117
32	28
37	73
38	280
39	2081
40	374
41	1111
50	550
51	1075
52	614
53	677
54	1061
55	127
62	120
63	328
65	1158
66	4824
67	2510
68	167
74	112
75	71
77	3043
78	1945
79	9999
80	3698
81	226
91	1235
93	1982
94	135
105	76
108	2523
109	219
