Mass Spectrum: Acetoacetic acid, bis(trimethylsilyl)- deriv.
Formula: C10 H22 O3 Si2
CAS: 82326-10-1
Molecular weight: 246
Origin: NIST Mass Spectrometry Data Center
m/z	RELATIVE INTENSITY
14	10
15	60
16	10
18	10
26	10
27	50
28	100
29	100
30	10
31	40
38	10
39	180
40	30
41	40
42	50
43	771
44	270
45	1501
46	110
47	360
48	20
49	20
51	10
52	30
53	50
54	20
55	110
56	30
57	80
58	120
59	280
60	70
61	170
62	20
63	10
65	10
66	120
67	200
68	20
69	360
70	60
71	80
72	310
73	5465
74	510
75	1281
76	90
77	170
78	10
79	10
81	10
82	90
83	50
84	60
85	80
86	20
87	50
88	10
89	20
93	10
95	10
96	10
97	110
98	30
99	771
100	90
101	100
102	20
103	60
104	10
105	40
107	10
108	60
109	10
111	20
112	30
113	210
114	90
115	200
116	40
117	120
118	20
119	50
120	10
125	10
126	50
127	70
128	80
129	60
130	10
131	340
132	70
133	861
134	110
135	80
136	10
139	10
141	340
142	50
143	340
144	40
145	30
147	9999
148	1541
149	901
150	90
151	70
152	10
155	20
156	340
157	2272
158	320
159	120
160	10
162	10
163	140
164	20
165	10
171	10
173	140
174	20
175	20
187	10
189	20
197	10
203	10
204	40
205	10
215	30
217	10
229	40
231	5835
232	1171
233	510
234	80
235	20
245	10
246	120
247	20
248	10
