Mass Spectrum: 2-Mercaptothiazole
Formula: C3 H3 N S2
CAS: 82358-09-6
Molecular weight: 117
Origin: NIST Mass Spectrometry Data Center, 1994
m/z	RELATIVE INTENSITY
12	205
13	191
17	107
25	348
26	536
28	162
32	1653
33	386
35	154
36	173
37	128
38	487
39	356
40	787
41	1303
44	1425
45	3116
46	659
47	245
50	140
51	187
52	155
56	328
57	2402
58	7148
59	1851
60	612
61	195
62	137
63	191
64	870
65	126
66	146
69	87
70	470
71	292
72	1517
73	246
76	937
77	284
79	97
82	170
83	252
84	260
85	179
87	73
88	267
89	352
90	1637
91	298
92	159
117	9999
118	550
119	947
