Mass Spectrum: 1H-Indene, 2,3-dihydro-4-methyl-
Formula: C10 H12
CAS: 824-22-6
Molecular weight: 132
m/z	RELATIVE INTENSITY
26	190
27	901
28	110
29	70
37	70
38	230
39	1341
40	130
41	240
42	20
43	40
44	20
49	30
50	480
51	1181
52	300
53	360
54	30
55	50
56	10
57	50
58	80
59	10
61	40
62	260
63	751
64	861
65	961
66	100
67	60
68	30
69	10
70	10
71	20
74	190
75	200
76	150
77	721
78	280
79	170
80	20
81	30
82	10
83	10
85	20
86	60
87	70
88	30
89	230
90	40
91	1311
92	130
93	20
94	20
95	50
101	40
102	220
103	280
104	180
105	210
106	20
107	10
108	10
109	60
110	10
111	10
113	30
114	40
115	2012
116	961
117	9999
118	971
119	120
120	10
126	60
127	280
128	571
129	450
130	160
131	2262
132	3904
133	410
134	40
135	10
