Mass Spectrum: Benzene, 1-(chloromethyl)-4-methoxy-
Formula: C8 H9 Cl O
CAS: 824-94-2
Molecular weight: 156
Origin: V.A.KOPTYUG, ATLAS OF MASS SPECTRA OF ORGANIC COMPOUNDS
m/z	RELATIVE INTENSITY
39	340
50	340
51	1000
52	420
77	1000
78	990
79	570
91	1500
121	9999
122	820
156	1200
158	390
