Mass Spectrum: Trimethylolpropane phosphite
Formula: C6 H11 O3 P
CAS: 824-11-3
Molecular weight: 162
Origin: VERIFINN
m/z	RELATIVE INTENSITY
27	2542
28	450
29	2442
39	2262
40	761
41	7477
42	621
43	460
47	2682
51	200
53	1742
54	250
55	1501
57	210
65	641
67	5125
68	9999
69	4154
70	230
77	470
80	230
81	100
83	250
85	540
90	230
91	180
98	60
99	90
103	1241
104	100
109	3013
113	90
114	220
117	1752
118	60
131	2492
132	7417
133	340
134	130
147	120
162	3433
163	190
