Mass Spectrum: p-Fluorobenzamide
Formula: C7 H6 F N O
CAS: 824-75-9
Molecular weight: 139
Origin: NIST Mass Spectrometry Data Center
m/z	RELATIVE INTENSITY
12	20
16	280
17	30
18	40
25	30
26	80
27	110
28	210
29	70
31	300
32	30
33	40
37	330
38	320
39	270
40	30
41	30
44	1461
45	140
48	90
49	200
50	1481
51	721
52	170
53	80
54	20
56	170
57	400
58	20
60	60
61	280
62	280
63	300
64	50
65	40
67	20
68	671
69	871
70	360
71	30
72	50
73	260
74	1141
75	3723
76	370
77	90
78	20
81	90
82	70
83	280
84	70
90	20
92	190
93	230
94	801
95	8928
96	981
97	50
104	20
109	20
110	90
111	10
120	40
123	9999
124	811
125	30
139	6826
140	581
141	40
