Mass Spectrum: Benzene, [(methylsulfinyl)methyl]-
Formula: C8 H10 O S
CAS: 824-86-2
Molecular weight: 154
m/z	RELATIVE INTENSITY
63	591
65	1181
66	200
77	390
91	9999
92	781
154	390
155	200
