Mass Spectrum: 2-Hydroxy-3-methylbenzaldehyde
Formula: C8 H8 O2
CAS: 824-42-0
Molecular weight: 136
Origin: R.SELF, AGRIC. RES. COUNC., FOOD RES. INST., NORWICH, U.
m/z	RELATIVE INTENSITY
51	1750
52	810
53	1470
54	160
55	660
56	100
58	90
59	170
62	530
63	920
64	310
65	380
68	170
70	120
71	250
72	310
73	1400
74	130
75	210
76	170
77	4140
78	1230
79	3210
80	430
85	110
86	360
89	1050
90	3160
91	420
100	230
101	80
102	190
103	340
105	480
106	260
107	2420
108	1010
116	330
117	300
118	1390
119	320
131	140
133	320
134	140
135	9770
136	9999
137	920
