Mass Spectrum: Urea, 2TBDMS derivative
Formula: C13 H32 N2 O Si2
CAS: 82475-73-8
Molecular weight: 288
Origin: J.M. Halket, Trace Anal. Unit (TAU), London, UK
m/z	RELATIVE INTENSITY
39	320
41	1460
42	110
43	470
44	460
45	970
46	400
47	250
51	10
52	90
53	50
55	130
56	220
57	1300
58	370
59	950
60	180
61	90
66	250
69	120
70	140
71	170
72	330
73	5130
74	1580
75	1130
76	110
77	30
79	90
83	20
84	40
85	150
86	90
87	170
88	40
97	10
99	660
100	600
101	180
102	110
103	90
104	10
105	10
113	80
114	80
115	240
116	330
117	530
118	200
119	90
120	10
127	10
129	50
130	510
131	440
132	1460
133	690
134	170
135	40
141	40
142	20
143	90
144	20
145	90
146	620
147	8540
148	1360
149	630
150	70
156	40
157	240
158	50
159	250
160	50
161	10
171	190
172	50
173	510
174	250
175	230
176	50
188	60
189	50
201	20
213	240
214	50
215	50
216	20
227	10
229	10
231	9999
232	2010
233	810
234	110
273	560
274	130
275	50
