Mass Spectrum: Ethanol, 2-(butylnitroamino)-, nitrate
Formula: C6 H13 N3 O5
CAS: 82486-82-6
Molecular weight: 207
Origin: J. A. ROWLEY, MINISTRY DEF., WALTHAM ABBEY, ESSEX, UK
m/z	RELATIVE INTENSITY
26	100
27	2400
29	4000
30	3500
31	300
39	900
41	4700
42	9400
43	9000
44	3000
45	700
46	7200
47	100
54	300
55	1100
56	2400
57	3200
58	200
59	200
60	300
68	100
70	1600
71	300
72	300
73	400
74	200
76	400
84	9999
85	2700
86	300
87	300
88	300
89	1900
90	100
99	100
100	100
101	200
115	100
116	100
117	100
118	100
119	300
131	8900
132	200
145	100
152	20
164	200
165	10
178	10
207	10
