Mass Spectrum: Benzo[b]thiophene, 1,1-dioxide
Formula: C8 H6 O2 S
CAS: 825-44-5
Molecular weight: 166
m/z	RELATIVE INTENSITY
63	213
65	266
74	106
75	128
76	160
89	266
90	266
109	5063
110	1117
111	191
118	532
137	9999
138	1596
139	106
150	106
166	1489
167	447
168	85
