Mass Spectrum: 2-Naphthalenol, decahydro-
Formula: C10 H18 O
CAS: 825-51-4
Molecular weight: 154
Origin: Japan AIST/NIMC Database- Spectrum MS-NW-9712
m/z	RELATIVE INTENSITY
15	20
17	20
18	70
26	20
27	579
28	109
29	759
30	40
31	189
32	10
38	20
39	1039
40	189
41	2479
42	279
43	639
44	139
45	80
48	10
49	10
50	40
51	179
52	99
53	719
54	1059
55	4289
56	389
57	899
58	199
59	60
62	10
63	50
64	20
65	349
66	569
67	4409
68	1519
69	1139
70	1019
71	179
72	60
73	10
74	10
75	10
76	10
77	629
78	409
79	3509
80	2429
81	3389
82	1289
83	959
84	159
85	50
86	20
89	10
90	20
91	639
92	159
93	2619
94	7769
95	6389
96	699
97	1649
98	189
99	50
103	20
104	40
105	119
106	50
107	3589
108	2149
109	359
110	909
111	199
112	30
115	30
116	10
117	20
118	10
119	50
120	40
121	5009
122	499
123	99
124	20
125	30
126	10
127	10
128	20
129	10
130	10
131	40
132	20
133	10
134	40
135	409
136	9999
137	1189
138	60
150	10
152	99
153	90
154	60
155	10
