Mass Spectrum: Silane, trichloro(4-chlorophenyl)-
Formula: C6 H4 Cl4 Si
CAS: 825-94-5
Molecular weight: 244
Origin: RADIAN CORP
m/z	RELATIVE INTENSITY
35	70
37	110
38	120
39	30
49	190
50	2320
51	600
52	30
53	200
60	40
61	160
62	60
63	2410
64	110
65	920
66	40
72	50
73	470
74	2080
75	3760
76	4880
77	610
84	240
85	430
86	110
87	180
88	70
98	650
99	70
100	480
101	210
102	80
109	10
110	60
111	830
112	80
113	270
123	580
124	30
125	400
127	50
133	4420
134	230
135	4500
136	220
137	1640
138	70
139	240
146	800
147	490
148	580
149	310
150	110
151	20
171	80
172	90
173	1040
174	210
175	670
176	100
177	100
208	390
209	6520
210	1140
211	6570
212	860
213	2250
214	240
215	260
244	7700
245	890
246	9999
247	1150
248	5060
249	550
250	1170
251	100
252	80
