Mass Spectrum: Monochloromethyl isopentanoate
Formula: C6 H11 Cl O2
CAS: 82504-50-5
Molecular weight: 150
Origin: ASES Database, Dalian Institute, P.R. China
m/z	RELATIVE INTENSITY
39	3302
41	9999
42	2692
43	5565
49	800
55	490
56	700
57	2792
69	700
72	1381
85	2992
150	1101
