Mass Spectrum: Isoxaben
Formula: C18 H24 N2 O4
CAS: 82558-50-7
Molecular weight: 332
Origin: NIST Mass Spectrometry Data Center
m/z	RELATIVE INTENSITY
15	10
26	10
27	110
29	170
30	20
37	10
38	30
39	190
40	40
41	380
42	70
43	561
44	30
50	60
51	130
52	70
53	150
54	80
55	240
56	110
57	80
61	10
62	50
63	90
64	90
65	110
66	90
67	80
68	460
69	110
70	20
74	10
75	40
76	120
77	330
78	90
79	150
80	50
81	60
82	50
83	130
84	20
85	100
88	10
89	30
90	40
91	90
92	190
93	60
94	90
95	50
96	190
97	20
102	10
103	30
104	100
105	150
106	130
107	801
108	120
109	40
110	40
116	40
117	40
118	50
119	60
120	180
121	90
122	450
123	140
124	60
125	70
132	30
133	90
134	140
135	170
136	90
137	20
138	30
139	10
145	10
146	20
147	10
148	30
149	100
150	861
151	180
152	40
154	10
161	10
162	170
163	340
164	370
165	9999
166	1011
167	140
168	10
176	10
178	70
180	10
182	170
183	10
190	20
191	10
192	10
221	140
222	20
249	10
250	10
301	10
303	10
306	10
332	40
