Mass Spectrum: 3-Amino-5-tert-butylpyrazole
Formula: C7 H13 N3
CAS: 82560-12-1
Molecular weight: 139
Origin: NIST Mass Spectrometry Data Center, 1994
m/z	RELATIVE INTENSITY
14	37
15	556
17	51
18	397
26	104
27	960
28	873
29	732
30	706
37	59
38	229
39	1601
40	497
41	2220
42	1010
43	782
44	155
47	101
48	42
49	34
50	233
51	538
52	501
53	717
54	539
55	471
56	428
57	481
58	80
61	321
62	187
63	96
64	72
65	360
66	413
67	894
68	234
69	153
70	115
71	30
76	71
77	246
78	211
79	187
80	1098
81	440
82	467
83	879
84	2229
85	96
91	69
92	70
93	133
94	571
95	281
96	1593
97	1043
98	113
106	25
107	239
108	218
109	335
110	46
122	66
124	9999
125	755
126	32
139	4057
140	385
