Mass Spectrum: 8-Quinolinol, 2-methyl-
Formula: C10 H9 N O
CAS: 826-81-3
Molecular weight: 159
Origin: Japan AIST/NIMC Database- Spectrum MS-NW-3816
m/z	RELATIVE INTENSITY
15	30
26	60
27	189
28	20
29	20
37	70
38	149
39	429
40	40
41	50
42	80
43	10
49	30
50	279
51	549
52	259
53	99
54	20
55	20
57	20
58	10
61	70
62	229
63	539
64	269
65	429
66	70
73	20
74	119
75	159
76	189
77	689
78	219
79	129
80	30
85	10
86	30
87	70
88	90
89	399
90	269
91	80
92	30
98	20
99	20
100	20
101	70
102	229
103	709
104	279
105	40
106	10
109	10
113	30
114	90
115	149
116	189
117	30
118	10
126	10
127	10
128	109
129	109
130	2429
131	5249
132	559
133	30
140	119
141	40
144	20
150	10
156	10
157	20
158	249
159	9999
160	1159
161	80
