Mass Spectrum: 1-Benzosuberone
Formula: C11 H12 O
CAS: 826-73-3
Molecular weight: 160
Origin: Japan AIST/NIMC Database- Spectrum MS-NW-6681
m/z	RELATIVE INTENSITY
14	10
15	40
17	10
18	30
26	80
27	579
28	70
29	80
31	10
32	10
37	50
38	189
39	1069
40	129
41	289
42	70
43	90
44	30
45	50
49	30
50	589
51	1209
52	279
53	259
54	50
55	239
56	20
57	189
58	99
59	40
60	10
61	80
62	329
63	1009
64	479
65	719
66	109
67	20
68	20
69	40
70	20
71	40
72	20
73	40
74	309
75	309
76	609
77	1759
78	1169
79	179
80	10
81	10
82	20
83	10
84	10
85	30
86	80
87	99
88	50
89	1209
90	1739
91	4109
92	379
93	20
94	10
97	10
98	40
99	20
100	20
101	99
102	459
103	2309
104	7019
105	1039
106	80
107	10
113	30
114	40
115	919
116	519
117	1199
118	2249
119	889
120	90
121	20
126	50
127	269
128	459
129	679
130	209
131	6539
132	2789
133	299
134	30
137	10
139	20
140	20
141	279
142	1009
143	219
144	60
145	1139
146	179
147	20
155	20
156	20
157	20
158	30
159	1699
160	9999
161	1239
162	99
