Mass Spectrum: Benzene, 1,2-dibromo-3,4,5,6-tetrafluoro-
Formula: C6 Br2 F4
CAS: 827-08-7
Molecular weight: 306
m/z	RELATIVE INTENSITY
31	4204
36	500
49	300
68	400
70	200
74	1301
79	5805
81	1902
86	1301
91	200
93	1001
98	5505
99	300
110	1101
117	3203
129	1401
134	300
136	200
148	9809
149	701
153	901
154	901
155	701
158	300
160	300
177	1201
179	1101
208	200
210	200
227	2202
229	2302
306	5005
307	300
308	9999
309	601
310	5005
311	300
