Mass Spectrum: 5-Amino-3-phenylpyrazole
Formula: C9 H9 N3
CAS: 827-41-8
Molecular weight: 159
Origin: NIST Mass Spectrometry Data Center
m/z	RELATIVE INTENSITY
11	20
14	20
16	40
17	40
18	30
26	90
27	260
28	881
29	390
30	80
31	20
32	120
37	100
38	230
39	410
40	90
41	110
42	40
43	300
44	50
49	80
50	711
51	1181
52	581
53	140
54	100
55	60
56	90
57	80
61	110
62	290
63	530
65	300
67	50
73	100
74	430
75	440
76	731
77	2172
78	370
80	140
81	50
86	50
87	80
88	90
89	390
90	350
91	150
92	50
93	100
98	50
99	40
100	60
101	200
102	1341
103	1321
104	571
105	150
113	40
114	70
115	190
116	160
117	380
118	150
119	320
128	561
130	2722
131	711
132	160
133	20
142	180
143	210
156	30
159	9999
160	1051
161	60
