Mass Spectrum: 1,3,5-Triazine-2,4,6(1H,3H,5H)-trione, 1,3,5-trimethyl-
Formula: C6 H9 N3 O3
CAS: 827-16-7
Molecular weight: 171
Origin: D.HENNEBERG, MAX-PLANCK INSTITUTE, MULHEIM, WEST GERMANY
m/z	RELATIVE INTENSITY
27	501
28	1950
29	1517
30	381
31	190
32	8
36	10
38	6
39	30
40	30
41	61
42	418
43	154
44	54
45	9
49	4
50	28
51	16
55	60
56	3563
57	1550
58	9999
59	561
60	27
68	13
69	90
70	440
71	29
72	8
73	4
75	5
77	10
78	9
79	9
81	14
83	23
84	20
85	631
86	442
87	23
95	10
96	32
97	4
99	55
102	9
104	5
106	7
112	8
113	400
114	133
115	29
120	13
126	4
127	7
128	11
141	7
142	902
143	2786
144	165
145	31
149	18
150	3
167	4
169	35
170	120
171	8736
172	684
173	83
