Mass Spectrum: 3-Bromobenzoic acid, phenyl ester
Formula: C13 H9 Br O2
CAS: 82723-17-9
Molecular weight: 276
Origin: Zaikin V.G., TIPS RAS, Moscow, Russia
m/z	RELATIVE INTENSITY
28	20
38	50
39	230
50	370
51	140
63	80
64	40
65	250
66	40
74	170
75	651
76	851
77	170
93	50
94	140
104	140
115	50
129	30
139	40
155	1972
156	160
157	1922
158	130
183	9999
184	631
185	9689
186	611
187	30
276	771
277	120
278	771
279	110
