Mass Spectrum: 1,3,5-Trithiane, 2,2,4,4,6,6-hexamethyl-
Formula: C9 H18 S3
CAS: 828-26-2
Molecular weight: 222
Origin: AP-2136
m/z	RELATIVE INTENSITY
31	140
32	150
34	40
35	10
37	30
38	70
39	230
40	30
41	320
42	80
43	150
44	40
45	650
46	60
47	300
55	50
56	10
57	170
58	330
59	2130
60	260
61	270
64	200
66	170
67	130
69	40
71	60
72	10
73	270
74	9999
75	1170
76	510
77	60
83	130
99	10
101	50
106	40
113	30
115	50
116	430
117	100
118	20
133	70
138	470
139	20
140	60
148	1840
149	170
150	190
151	10
157	40
222	1390
223	130
224	20
