Mass Spectrum: Phenol, 4-(trifluoromethoxy)-
Formula: C7 H5 F3 O2
CAS: 828-27-3
Molecular weight: 178
Origin: NIST Mass Spectrometry Data Center, 1994
m/z	RELATIVE INTENSITY
17	29
18	24
19	21
25	240
26	1643
27	2639
28	112
29	674
30	48
31	201
32	31
36	49
37	452
38	793
39	1185
40	76
41	35
42	171
43	1
46	93
47	231
48	30
49	220
50	1160
51	1179
52	1350
53	4112
54	1024
55	759
56	41
57	287
60	71
61	413
62	623
63	923
64	375
65	741
66	143
67	99
68	41
69	4413
70	50
73	64
74	62
75	122
77	42
79	185
81	7503
82	554
83	455
84	79
91	24
92	83
93	1289
94	89
95	72
101	175
109	9999
110	643
111	110
112	54
149	151
159	82
178	8756
179	774
180	51
