Mass Spectrum: Adamantane-1-carboxylic acid
Formula: C11 H16 O2
CAS: 828-51-3
Molecular weight: 180
Origin: NIST Mass Spectrometry Data Center, 1990.
m/z	RELATIVE INTENSITY
18	37
26	41
27	375
28	77
29	241
31	31
39	781
40	167
41	831
42	54
43	184
44	53
45	186
50	64
51	256
52	89
53	386
54	125
55	459
56	46
57	99
59	27
63	47
64	43
65	310
66	141
67	845
68	82
69	182
77	813
78	296
79	2352
80	210
81	590
82	60
91	877
92	364
93	2284
94	201
95	91
105	203
107	1215
108	120
119	54
120	26
123	50
135	9999
136	1005
137	56
180	711
181	88
