Mass Spectrum: 2,5-Dimethoxyfluorobenzene
Formula: C8 H9 F O2
CAS: 82830-49-7
Molecular weight: 156
Origin: NIST Mass Spectrometry Data Center
m/z	RELATIVE INTENSITY
13	30
14	160
15	1661
16	10
17	20
18	30
26	80
30	110
32	10
33	70
35	10
36	10
37	80
38	190
39	530
40	20
41	10
44	320
47	10
49	60
50	400
51	470
52	60
53	571
54	190
55	50
56	270
57	490
59	280
60	10
61	240
62	250
63	631
64	120
65	851
66	50
67	20
68	180
69	571
70	981
71	200
72	480
73	110
75	180
76	30
77	200
79	771
80	150
81	721
82	1091
83	440
84	80
85	180
86	20
87	190
88	10
92	70
93	120
94	120
95	330
96	60
97	290
98	480
99	30
100	40
101	30
107	731
108	60
110	450
111	40
113	2142
114	130
115	10
122	10
123	20
125	140
126	40
127	30
138	10
141	9999
142	741
143	60
153	40
156	5405
157	540
158	40
