Mass Spectrum: Salicylidene o-toluic hydrazone
Formula: C15 H14 N2 O2
CAS: 82859-72-1
Molecular weight: 254
Origin: NIST Mass Spectrometry Data Center, 1994
m/z	RELATIVE INTENSITY
4	17
14	11
15	28
17	27
18	54
26	57
27	229
28	228
29	101
32	33
37	62
38	228
39	1377
40	125
41	235
42	45
43	57
44	49
45	27
50	394
51	947
52	446
53	319
54	59
55	48
61	47
62	199
63	777
64	331
65	2429
66	220
67	37
73	31
74	70
75	97
76	125
77	924
78	394
79	109
80	228
81	52
86	35
87	32
89	516
90	526
91	5665
92	464
93	111
102	69
103	23
104	37
105	190
106	48
107	84
108	62
116	67
117	92
119	9999
120	887
121	113
122	63
132	33
133	56
135	2233
136	628
137	67
147	48
162	42
163	4
220	25
223	35
240	10
254	805
255	159
