Mass Spectrum: 2,2-Bis(4-chlorophenyl)acetic acid
Formula: C14 H10 Cl2 O2
CAS: 83-05-6
Molecular weight: 280
Origin: MASS SPECTROMETRY CENTER, UNIV. OF UTAH EPA-PTSEL 1740
m/z	RELATIVE INTENSITY
39	92
40	268
41	142
43	402
44	1000
45	530
50	916
51	1344
52	379
53	524
61	164
62	484
63	897
64	55
65	256
66	48
67	203
69	108
70	68
72	62
73	420
74	543
75	869
76	388
77	1305
78	337
79	131
81	42
82	254
83	100
86	301
87	229
88	246
89	353
93	259
98	57
99	104
100	69
101	32
105	647
106	339
111	254
113	104
115	67
121	349
123	122
125	193
137	62
138	141
139	327
149	152
152	139
162	74
163	1100
164	882
165	6223
166	1185
167	88
168	59
176	225
199	1350
200	1846
201	655
202	1268
203	329
204	226
235	9999
236	1453
237	6233
238	906
239	1081
240	65
280	1946
281	291
282	1373
283	219
284	394
