Mass Spectrum: Propanedioic acid, phenyl-, diethyl ester
Formula: C13 H16 O4
CAS: 83-13-6
Molecular weight: 236
Origin: Japan AIST/NIMC Database- Spectrum MS-NW-1607
m/z	RELATIVE INTENSITY
14	30
15	189
16	10
17	30
18	100
25	10
26	189
27	1949
28	219
29	9189
30	199
31	449
32	40
37	30
38	179
39	829
40	159
41	179
42	30
43	199
44	159
45	459
46	80
50	219
51	669
52	119
53	119
55	30
57	20
58	10
59	40
61	50
62	349
63	1179
64	529
65	449
66	40
67	10
69	40
73	20
74	40
75	70
76	50
77	1989
78	389
79	5079
80	329
81	10
85	30
86	50
87	70
88	70
89	2569
90	4529
91	9519
92	979
93	60
94	30
95	10
101	10
102	20
103	70
104	99
105	979
106	129
107	6699
108	549
109	40
111	10
112	10
113	20
114	20
115	40
116	30
117	509
118	8209
119	2689
120	269
121	80
122	10
129	10
131	119
132	20
133	119
134	119
135	6389
136	7319
137	659
138	60
140	10
144	20
145	90
146	539
147	90
148	30
149	80
150	40
151	10
156	10
160	10
161	50
162	179
163	9489
164	9999
165	1099
166	99
177	30
178	10
190	349
191	629
192	1079
193	139
194	10
236	4349
237	619
238	80
