Mass Spectrum: Diethyl sec-butylmalonate
Formula: C11 H20 O4
CAS: 83-27-2
Molecular weight: 216
Origin: Japan AIST/NIMC Database- Spectrum MS-NW-3945
m/z	RELATIVE INTENSITY
14	40
15	149
16	10
18	19
25	10
26	199
27	1869
28	1249
29	6109
30	159
31	269
32	299
37	10
38	50
39	879
40	169
41	2539
42	379
43	799
44	109
45	1419
46	50
47	179
50	30
51	60
52	30
53	269
54	90
55	839
56	509
57	1059
58	399
59	249
60	169
61	109
63	10
65	30
66	20
67	149
68	219
69	2789
70	329
71	189
72	40
73	949
74	50
75	10
77	10
79	30
80	10
81	119
82	80
83	269
84	20
85	309
86	2159
87	2829
88	2239
89	149
90	10
91	10
92	10
93	10
95	119
96	259
97	1009
98	249
99	479
100	119
101	449
102	40
103	10
104	1089
105	699
106	30
107	10
108	10
109	70
110	30
111	30
112	20
113	419
114	2709
115	5059
116	389
117	50
118	10
119	10
120	10
122	10
123	30
124	50
125	40
126	10
127	189
128	50
129	99
130	20
131	80
132	2139
133	3439
134	229
135	50
139	10
140	10
141	569
142	729
143	719
144	119
145	40
146	20
154	10
155	50
156	10
157	20
158	20
159	30
160	9999
161	959
162	139
163	10
169	10
170	40
171	4199
172	469
173	129
174	10
185	10
187	189
188	30
189	10
201	20
217	10
