Mass Spectrum: 1H-Pyrrole, 2,5-dimethyl-1-phenyl-
Formula: C12 H13 N
CAS: 83-24-9
Molecular weight: 171
Origin: RADIAN CORP
m/z	RELATIVE INTENSITY
15	60
26	90
27	580
38	190
39	920
41	300
42	290
43	10
50	890
51	2590
52	830
53	530
54	10
59	40
62	110
63	420
64	220
65	480
66	160
67	120
72	150
74	190
75	190
76	310
77	2960
78	590
79	90
84	250
86	170
89	140
90	60
91	190
92	220
93	120
94	160
102	80
103	230
104	230
115	610
116	90
117	140
118	210
127	360
128	840
129	860
130	450
131	20
141	100
142	90
143	90
144	90
153	40
154	1260
155	640
156	1090
157	100
166	30
167	330
168	500
169	250
170	9999
171	7910
172	1000
173	30
