Mass Spectrum: Indole, 3-methyl-
Formula: C9 H9 N
CAS: 83-34-1
Molecular weight: 131
Origin: Japan AIST/NIMC Database- Spectrum MS-NW-8854
m/z	RELATIVE INTENSITY
26	10
27	80
28	20
37	30
38	70
39	229
40	20
41	10
43	10
49	10
50	259
51	669
52	269
53	60
54	10
58	10
61	30
62	109
63	269
64	489
65	729
66	60
73	10
74	169
75	249
76	279
77	1459
78	209
79	10
86	20
87	30
88	20
89	119
90	99
91	20
98	30
99	20
100	10
101	149
102	529
103	1009
104	169
105	10
115	10
116	20
127	10
128	319
129	229
130	9999
131	6229
132	579
133	20
