Mass Spectrum: 1H-Inden-1-one, 2,3-dihydro-
Formula: C9 H8 O
CAS: 83-33-0
Molecular weight: 132
Origin: Japan AIST/NIMC Database- Spectrum MS-NW-3663
m/z	RELATIVE INTENSITY
14	20
15	20
18	10
25	10
26	99
27	369
28	50
29	10
36	20
37	159
38	259
39	679
40	40
41	20
42	30
43	30
44	10
48	10
49	139
50	1249
51	2079
52	489
53	129
54	10
55	60
60	20
61	149
62	319
63	839
64	139
65	149
66	80
72	10
73	119
74	579
75	519
76	1429
77	2379
78	3009
79	189
84	10
85	40
86	70
87	90
88	20
89	389
90	99
91	40
97	20
98	70
99	20
100	10
101	119
102	749
103	4219
104	9999
105	1009
106	50
115	30
116	10
130	20
131	2329
132	9759
133	979
134	70
