Mass Spectrum: Hydroxytoluic Acid
Formula: C8 H8 O3
CAS: 83-40-9
Molecular weight: 152
Origin: Japan AIST/NIMC Database- Spectrum MS-NW- 399
m/z	RELATIVE INTENSITY
17	10
18	30
26	70
27	429
28	109
29	99
37	139
38	319
39	969
40	99
41	99
42	30
43	80
44	40
45	169
47	20
49	80
50	539
51	1509
52	909
53	499
54	60
55	129
57	30
61	80
62	179
63	399
64	99
65	90
66	149
67	379
69	20
73	40
74	149
75	129
76	389
77	2049
78	2679
79	319
80	20
81	20
84	20
85	20
86	30
88	20
89	80
90	30
91	20
92	80
95	20
104	40
105	2579
106	9619
107	889
108	90
120	99
132	30
133	439
134	9999
135	1129
136	109
138	50
149	20
150	50
151	40
152	6759
153	609
154	80
