Mass Spectrum: 5-Amino-1-naphthol
Formula: C10 H9 N O
CAS: 83-55-6
Molecular weight: 159
Origin: NIST Mass Spectrometry Data Center
m/z	RELATIVE INTENSITY
26	10
27	50
29	20
37	30
38	90
39	200
40	10
41	40
42	20
43	10
49	30
50	320
51	771
52	390
53	190
54	70
55	40
57	30
61	90
62	240
63	450
65	751
70	20
73	40
74	280
75	350
76	410
77	1381
78	320
79	701
85	40
86	100
87	130
88	120
89	170
90	80
91	90
92	20
93	10
97	10
98	70
99	50
100	40
101	210
102	821
103	1842
104	480
105	60
106	10
107	10
109	10
110	20
111	10
112	10
113	150
114	230
115	370
116	140
117	390
118	510
119	50
127	20
128	240
129	130
130	8287
131	1962
132	170
133	30
140	90
141	110
142	20
144	80
156	30
157	10
158	581
159	9999
160	1181
161	80
