Mass Spectrum: Rotenone
Formula: C23 H22 O6
CAS: 83-79-4
Molecular weight: 394
Origin: MASS SPECTROMETRY CENTER, UNIV. OF UTAH, EPA-PTSEL, 6000
m/z	RELATIVE INTENSITY
15	261
17	110
18	127
26	11
27	261
28	150
29	234
38	106
39	577
40	123
41	310
43	307
44	66
45	73
50	187
51	380
52	127
53	349
55	251
57	31
59	167
62	80
63	273
64	131
65	594
66	110
67	12
69	522
74	38
75	90
76	216
77	629
78	333
79	248
80	54
81	27
89	182
90	154
91	344
92	127
93	500
94	13
95	77
102	89
103	267
104	41
105	190
106	381
107	125
108	29
110	30
115	125
117	87
118	172
119	96
121	420
128	40
130	36
131	243
132	10
133	30
134	216
135	11
145	123
146	118
147	265
148	38
149	309
151	9
159	50
161	206
162	58
163	14
164	20
173	9
174	23
175	115
176	93
177	1777
178	255
179	82
187	136
190	238
191	3057
192	9999
193	1481
194	157
203	172
236	12
363	13
379	38
392	189
393	62
394	2049
395	530
396	90
