Mass Spectrum: Furo[2,3-b]quinoline, 4,7,8-trimethoxy-
Formula: C14 H13 N O4
CAS: 83-95-4
Molecular weight: 259
Origin: NIST Mass Spectrometry Data Center
m/z	RELATIVE INTENSITY
37	30
38	70
50	170
51	210
52	120
53	190
62	290
63	370
64	300
65	250
66	190
72	80
74	220
75	591
76	430
77	290
78	250
79	160
87	440
88	380
89	310
90	270
91	150
92	150
93	110
99	150
100	390
101	490
102	480
103	260
104	210
105	120
106	250
107	240
108	110
113	170
114	651
115	621
116	591
117	520
118	190
119	150
120	260
122	1621
126	100
127	360
128	520
129	320
130	1221
131	200
132	140
133	80
134	60
141	120
142	310
143	520
144	591
145	510
146	120
151	70
156	500
157	230
158	300
159	120
160	180
162	40
168	70
169	80
170	280
171	300
172	831
173	1131
174	160
175	70
182	50
184	651
185	500
186	450
187	200
188	290
189	60
197	100
198	751
199	1551
200	1011
201	2572
202	390
211	90
212	320
213	2772
214	831
215	1201
216	2532
217	350
225	50
226	170
227	480
228	2472
229	2893
230	5715
231	801
232	80
240	190
241	130
242	1261
243	711
244	9999
245	1461
246	180
256	240
258	2502
259	6045
260	991
261	100
