Mass Spectrum: 1H-Indole-3-propanoic acid
Formula: C11 H11 N O2
CAS: 830-96-6
Molecular weight: 189
Origin: Japan AIST/NIMC Database- Spectrum MS-NW-2598
m/z	RELATIVE INTENSITY
26	10
27	50
28	10
37	10
38	30
39	139
40	10
41	10
42	20
43	10
44	50
45	70
50	80
51	159
52	50
53	10
55	20
57	40
58	99
59	10
61	20
62	70
63	169
64	50
65	90
66	10
70	80
71	99
72	30
74	50
75	80
76	80
77	509
78	60
85	20
86	30
87	40
88	40
89	199
90	119
91	90
94	20
101	50
102	199
103	459
104	60
113	30
114	60
115	489
116	149
117	229
118	80
127	30
128	149
129	249
130	9999
131	1049
132	50
140	30
141	40
142	269
143	559
144	439
145	50
146	90
170	30
171	50
188	70
189	2919
190	369
191	30
