Mass Spectrum: Acetic acid, 4-nitrophenyl ester
Formula: C8 H7 N O4
CAS: 830-03-5
Molecular weight: 181
Origin: Japan AIST/NIMC Database- Spectrum MS-NW-3587
m/z	RELATIVE INTENSITY
14	60
15	369
26	60
27	40
28	99
29	20
30	249
37	50
38	229
39	369
40	10
41	10
42	179
43	9999
44	219
45	20
49	10
50	159
51	80
52	60
53	70
54	30
55	10
61	50
62	139
63	459
64	269
65	669
66	40
68	10
73	10
74	70
75	70
76	60
77	20
79	10
80	10
81	189
82	10
92	50
93	389
94	30
107	30
109	609
110	40
122	40
123	259
124	20
139	869
140	60
181	389
182	40
