Mass Spectrum: Acetic acid, dichloro-, heptyl ester
Formula: C9 H16 Cl2 O2
CAS: 83004-97-1
Molecular weight: 226
Origin: V.G.Zaikin, Petrochem. Synth. Inst., Moscow
m/z	RELATIVE INTENSITY
26	210
27	1381
28	240
29	2262
30	60
31	70
35	60
36	390
38	270
39	1351
40	350
41	5185
42	2252
43	5285
44	1021
45	110
47	130
48	350
49	110
50	220
51	180
52	110
53	390
54	460
55	3253
56	4494
57	9999
58	420
59	80
65	110
67	190
68	771
69	2222
70	4034
71	480
72	70
73	70
75	60
76	681
77	100
78	210
79	60
81	130
82	80
83	1511
84	110
85	851
86	60
87	90
97	150
98	561
111	150
113	120
