Mass Spectrum: Butyl pentyl carbonate
Formula: C10 H20 O3
CAS: 83073-03-4
Molecular weight: 188
Origin: S. GRIFF, 5 OAKWOOD TERRACE, ROCKAWAY, N.J., USA
m/z	RELATIVE INTENSITY
27	2300
28	900
29	4700
31	600
39	1400
41	6700
42	3200
43	8200
44	600
45	400
55	4000
56	3700
57	9999
58	500
63	7000
69	1400
70	4000
71	6600
72	400
73	700
87	300
89	300
103	300
118	700
119	1300
120	100
133	200
