Mass Spectrum: Phenol, 4-phenoxy-
Formula: C12 H10 O2
CAS: 831-82-3
Molecular weight: 186
Origin: Japan AIST/NIMC Database- Spectrum MS-IW-3875
m/z	RELATIVE INTENSITY
26	60
27	269
28	40
29	30
37	20
38	119
39	659
40	40
41	10
42	10
43	20
50	269
51	1079
52	189
53	349
54	109
55	149
61	20
62	80
63	299
64	179
65	389
66	70
67	10
69	10
70	10
71	10
74	70
75	70
76	90
77	1469
78	929
79	119
80	30
81	629
82	109
84	30
89	20
90	10
91	20
92	30
93	249
94	80
101	10
102	70
103	119
104	30
105	50
109	1439
110	529
111	30
115	349
116	80
117	20
118	20
126	10
127	139
128	319
129	739
130	169
131	249
132	40
139	70
140	60
141	109
142	10
143	10
144	20
145	10
155	30
157	889
158	659
159	70
160	10
167	30
168	30
169	50
170	10
171	10
184	60
185	419
186	9999
187	1329
188	129
