Mass Spectrum: 1-Propanone, 1-(2,4-dimethoxyphenyl)-
Formula: C11 H14 O3
CAS: 831-00-5
Molecular weight: 194
Origin: SERL) BSR 0401
m/z	RELATIVE INTENSITY
39	200
50	100
51	500
53	200
55	100
57	100
62	100
63	600
64	300
65	200
76	100
77	1000
78	200
79	600
91	200
92	500
94	100
107	900
109	100
122	1000
135	300
150	400
165	9999
166	1000
194	800
