Mass Spectrum: Phenanthrene, 4-methyl-
Formula: C15 H12
CAS: 832-64-4
Molecular weight: 192
Origin: CONTINENTAL OIL CO., PONCA CITY, OKLAHOMA, USA
m/z	RELATIVE INTENSITY
25	1
26	16
27	103
28	26
29	19
30	2
38	18
39	99
40	25
41	24
42	4
43	35
44	1
50	68
51	73
52	8
54	7
55	39
56	8
57	38
58	5
62	56
63	145
64	19
65	18
66	3
68	6
69	33
70	13
71	19
72	2
74	68
75	88
76	53
77	19
78	4
80	15
81	88
82	204
83	380
84	19
85	45
86	119
87	7
88	20
89	117
90	10
91	23
92	6
93	4
94	16
95	851
96	415
97	46
98	16
99	76
100	39
101	35
102	32
103	6
104	2
105	24
106	4
109	29
110	53
111	88
112	19
113	70
114	18
115	117
116	19
117	1
119	18
120	5
121	9
122	39
123	32
124	19
125	39
126	23
127	28
128	25
129	9
130	1
131	1
132	7
133	19
134	19
135	20
136	1
137	53
138	28
139	185
140	23
141	18
142	4
148	5
149	39
150	185
151	189
152	268
153	44
154	19
155	1
163	21
164	215
165	1852
166	243
167	19
168	1
176	21
177	94
178	395
179	68
180	5
185	19
186	48
187	188
188	331
189	2846
190	1740
191	6433
192	9999
193	1662
194	117
