Mass Spectrum: 2-Propenoic acid, 3-(4-methoxyphenyl)-, methyl ester
Formula: C11 H12 O3
CAS: 832-01-9
Molecular weight: 192
Origin: NIST Mass Spectrometry Data Center
m/z	RELATIVE INTENSITY
14	10
15	240
26	20
27	60
28	30
29	130
30	30
31	50
32	10
37	30
38	130
39	290
40	40
42	10
43	20
44	10
45	30
46	10
49	20
50	310
51	450
52	100
53	140
54	20
55	40
56	10
59	130
60	10
61	70
62	340
63	1101
64	561
65	160
66	80
67	10
68	10
69	50
73	20
74	190
75	270
76	260
77	991
78	150
79	440
80	250
82	100
85	30
86	40
87	70
88	60
89	1862
90	1341
91	170
92	510
93	50
94	20
95	10
96	50
97	10
98	40
99	10
100	10
101	200
102	480
103	460
105	110
106	60
108	40
109	20
117	380
118	1421
119	370
120	40
121	330
122	40
123	10
129	10
132	861
133	3213
134	1531
135	200
136	20
137	10
138	10
146	130
149	250
150	30
161	9999
162	1151
163	50
164	20
176	20
177	110
178	10
191	280
192	6496
193	771
194	90
195	10
