Mass Spectrum: 2,4,6-Trimethoxyacetophenone
Formula: C11 H14 O4
CAS: 832-58-6
Molecular weight: 210
Origin: NIST Mass Spectrometry Data Center
m/z	RELATIVE INTENSITY
13	20
15	1261
16	20
17	10
18	20
26	40
27	200
28	90
29	160
30	30
31	40
37	70
38	210
39	460
40	50
41	140
43	1351
44	40
45	40
49	50
50	340
51	420
52	190
53	550
54	80
55	110
56	10
57	10
59	400
60	10
61	80
62	280
63	450
64	210
65	290
66	390
67	130
69	861
70	30
73	10
74	70
75	120
76	60
77	440
78	230
79	460
80	100
81	220
82	40
83	80
85	10
86	10
89	40
90	60
91	210
92	190
93	220
94	140
95	160
96	150
97	40
103	10
104	10
105	70
106	160
107	290
108	110
109	480
110	40
111	40
118	10
119	30
120	30
121	190
122	300
123	110
124	80
125	40
133	30
134	30
135	210
137	1301
138	130
139	100
147	10
148	20
149	80
150	160
151	220
152	1141
153	100
154	10
162	10
163	90
164	90
165	240
166	40
167	110
168	10
177	10
180	1491
181	170
182	20
191	10
193	180
195	9999
196	1101
197	130
198	10
210	1561
211	170
212	20
