Mass Spectrum: 1-(6-Methyl-2-piperidyl)propan-2-one
Formula: C9 H17 N O
CAS: 83285-66-9
Molecular weight: 155
Origin: W.V. BROWN, CSIRO, BLACK MOUNTAIN, CANBERRA CITY, AUSTRALIA
m/z	RELATIVE INTENSITY
36	87
37	145
38	319
39	1710
40	493
41	2667
42	4058
43	9855
44	1594
45	435
46	174
47	145
50	145
51	261
52	232
53	609
54	4928
55	3246
56	1710
57	348
58	3913
59	203
65	174
66	87
67	464
68	1420
69	9999
70	2000
71	406
77	116
78	87
79	203
80	493
81	696
82	6087
83	580
84	464
85	348
93	116
94	319
95	203
96	2290
97	6957
98	9188
99	986
100	87
110	174
111	116
112	1536
113	290
126	87
138	116
140	1913
141	203
154	319
155	870
156	116
