Mass Spectrum: Stilbene, .alpha.-methyl-, (E)-
Formula: C15 H14
CAS: 833-81-8
Molecular weight: 194
Origin: H. GUSTEN
m/z	RELATIVE INTENSITY
39	200
50	100
51	420
52	100
63	250
65	200
75	100
76	310
77	580
78	100
82	110
83	290
87	100
88	110
89	690
91	710
92	100
96	310
97	180
102	170
103	800
106	100
115	1870
116	600
117	170
139	200
151	210
152	480
153	120
163	100
165	1050
166	200
167	110
176	320
177	300
178	3500
179	7350
180	1020
181	100
190	110
191	380
192	290
193	1800
194	9999
195	1030
196	120
