Mass Spectrum: 10,11-Dihydro-5H-dibenzo(a,d)cycloheptene
Formula: C15 H14
CAS: 833-48-7
Molecular weight: 194
Origin: Japan AIST/NIMC Database- Spectrum MS-IW-4677
m/z	RELATIVE INTENSITY
26	10
27	90
28	90
29	30
30	40
31	239
38	10
39	229
40	20
41	40
42	10
43	20
44	40
45	139
46	60
50	80
51	219
52	60
53	20
57	20
61	10
62	70
63	299
64	50
65	209
66	20
68	10
69	159
70	40
71	10
74	70
75	129
76	469
77	269
78	90
79	70
81	189
82	679
83	439
84	20
86	90
87	80
88	249
89	1659
90	80
91	509
92	50
93	99
94	489
95	399
96	909
97	259
98	20
99	20
100	10
101	30
102	99
103	179
104	30
110	10
111	10
113	50
114	30
115	2349
116	2099
117	859
118	70
125	10
126	70
127	99
128	429
129	80
137	20
138	10
139	209
140	30
141	169
142	20
149	10
150	80
151	229
152	679
153	259
154	50
155	10
161	10
162	30
163	209
164	189
165	1439
166	489
167	169
168	20
174	10
175	30
176	379
177	419
178	4719
179	6469
180	959
181	70
189	949
190	419
191	999
192	509
193	6159
194	9999
195	1569
196	119
