Mass Spectrum: Ametryn
Formula: C9 H17 N5 S
CAS: 834-12-8
Molecular weight: 227
Origin: MASS SPECTROMETRY CENTER, UNIV. OF UTAH EPA-PTSEL 0120
m/z	RELATIVE INTENSITY
15	444
18	354
28	914
29	867
30	959
31	465
40	178
41	95
42	1040
43	1213
44	4117
45	1619
46	678
47	296
53	115
54	193
55	512
56	595
57	415
58	4680
59	658
60	30
61	28
67	298
68	2815
69	1963
70	282
71	1625
72	288
73	288
74	1077
75	175
76	30
80	93
82	34
83	428
84	167
85	1058
86	164
91	147
92	29
93	219
94	476
95	300
96	918
97	206
98	2813
99	552
100	168
101	66
102	161
103	31
105	286
106	1078
109	36
110	336
111	482
112	205
113	239
115	87
116	335
117	124
122	657
123	645
124	41
127	243
128	335
136	122
137	275
138	976
139	457
140	172
141	279
142	673
143	154
144	519
152	418
153	180
155	1286
156	510
157	694
158	170
164	90
166	199
169	662
170	2894
171	643
172	228
179	30
181	744
182	191
183	40
184	1666
185	2560
186	527
187	86
196	247
198	203
199	261
210	120
212	6373
213	843
214	563
225	40
226	761
227	9999
228	1466
229	422
