Mass Spectrum: Acetonitrile, bromochloro-
Formula: C2 H Br Cl N
CAS: 83463-62-1
Molecular weight: 153
Origin: NIST Mass Spectrometry Data Center
m/z	RELATIVE INTENSITY
12	330
13	170
14	80
16	20
18	10
24	130
25	200
26	210
27	170
28	320
32	170
35	681
36	60
37	240
38	871
39	941
40	20
44	20
47	1061
48	190
49	400
50	60
59	30
60	30
61	10
62	10
74	9999
75	390
76	3273
77	70
79	1421
81	1491
82	100
91	571
92	120
93	601
94	100
105	20
106	10
114	20
116	40
118	781
120	741
121	20
126	150
128	210
130	50
153	1611
155	2012
156	80
157	440
158	10
