Mass Spectrum: Naphazoline
Formula: C14 H14 N2
CAS: 835-31-4
Molecular weight: 210
Origin: NIST Mass Spectrometry Data Center, 1990.
m/z	RELATIVE INTENSITY
15	112
27	140
28	250
30	85
39	174
40	116
41	133
42	253
43	89
44	295
50	175
51	257
52	86
54	138
58	92
62	146
63	517
64	92
65	157
68	87
70	45
71	69
74	208
75	391
76	585
77	377
78	57
81	390
83	49
86	111
87	191
88	128
89	468
90	170
91	216
92	44
98	77
99	69
100	57
101	111
102	154
103	103
104	240
113	195
115	2537
116	259
125	56
126	302
127	439
128	276
129	61
137	64
138	119
139	1118
140	633
141	2403
142	368
150	147
151	359
152	1330
153	1243
154	340
164	123
165	237
166	772
167	529
168	205
178	62
179	90
180	590
181	817
182	224
193	130
195	887
196	131
205	88
206	222
207	475
208	1898
209	9999
210	3221
211	406
