Mass Spectrum: Methanone, bis(2-hydroxyphenyl)-
Formula: C13 H10 O3
CAS: 835-11-0
Molecular weight: 214
Origin: Japan AIST/NIMC Database- Spectrum MS-NW-4445
m/z	RELATIVE INTENSITY
15	10
18	10
26	50
27	139
28	20
29	70
37	90
38	329
39	1969
40	129
41	60
42	30
43	60
44	50
45	10
49	30
50	239
51	419
52	80
53	499
54	30
55	99
56	30
57	40
58	10
60	10
61	90
62	249
63	769
64	629
65	3329
66	359
67	50
68	30
69	139
70	149
71	30
73	30
74	149
75	219
76	169
77	279
78	60
79	50
80	30
81	20
83	10
84	149
85	20
86	60
87	80
88	50
89	109
90	40
91	70
92	1499
93	2129
94	1039
95	70
97	30
98	80
99	20
100	10
101	50
102	90
103	50
104	40
105	40
106	30
107	239
108	10
109	10
110	20
111	10
113	90
114	70
115	149
116	20
117	20
118	20
119	20
120	2619
121	9999
122	829
123	70
126	30
127	139
128	259
129	109
130	20
131	80
132	20
133	20
137	50
138	50
139	479
140	90
141	80
142	10
147	10
151	20
152	10
155	20
157	90
158	20
160	30
161	70
166	10
167	50
168	229
169	60
170	10
171	40
173	20
179	10
180	10
181	20
182	10
183	10
184	50
185	99
186	30
195	50
196	829
197	5619
198	809
199	90
200	10
212	70
213	3689
214	5209
215	779
216	90
