Mass Spectrum: Phenol, 2,4'-isopropylidenedi-
Formula: C15 H16 O2
CAS: 837-08-1
Molecular weight: 228
m/z	RELATIVE INTENSITY
27	651
29	240
38	270
39	2082
40	400
41	1081
43	571
44	130
48	150
50	330
51	931
52	270
53	861
55	721
62	210
63	801
64	370
65	1792
66	751
67	300
69	230
70	160
71	130
73	150
74	350
76	500
77	1271
78	350
79	500
80	100
81	170
82	500
83	260
84	340
85	130
88	410
89	490
90	440
91	5095
92	520
93	110
94	1211
95	420
97	520
98	140
99	1141
100	220
101	270
102	160
103	300
104	120
105	470
106	300
107	1471
114	220
115	881
116	190
117	280
118	170
119	8788
120	911
121	480
127	200
128	260
129	120
131	190
133	340
134	2893
135	2762
139	230
141	250
144	120
145	120
147	120
151	170
152	410
153	180
157	110
159	290
165	751
166	240
167	170
168	170
169	240
176	140
177	140
181	220
183	150
184	100
194	130
195	270
197	310
198	170
199	210
200	110
211	611
212	270
213	9999
214	1341
215	160
225	160
226	100
227	100
228	4094
229	671
