Mass Spectrum: 2-Dibenzofuransulfonic acid
Formula: C12 H8 O4 S
CAS: 83863-63-2
Molecular weight: 248
Origin: Japan AIST/NIMC Database- Spectrum MS-NW-6978
m/z	RELATIVE INTENSITY
17	119
18	509
26	20
27	30
28	50
29	20
32	10
36	10
37	20
38	50
39	209
40	10
41	30
43	20
44	30
45	20
48	20
49	10
50	139
51	159
52	10
53	40
54	20
55	70
56	80
57	50
58	10
59	10
60	10
61	50
62	179
63	469
64	99
65	80
66	10
67	30
68	10
69	539
70	80
71	20
72	20
73	40
74	209
75	259
76	70
77	149
78	20
79	30
80	20
81	30
82	20
83	40
84	30
85	60
86	259
87	299
88	139
89	309
90	30
92	40
93	20
95	10
96	10
97	20
98	80
99	80
100	50
101	149
102	70
104	10
107	10
109	30
110	80
111	109
112	60
113	409
114	80
115	50
116	20
117	20
119	10
121	20
122	10
124	40
125	30
126	139
127	489
128	249
129	30
130	10
131	20
132	10
133	10
134	10
135	20
136	10
137	239
138	369
139	2729
140	399
141	30
142	10
143	10
145	10
149	40
154	10
155	1469
156	199
157	30
158	10
164	10
165	10
166	199
167	1669
168	419
169	50
170	10
171	30
172	10
181	10
182	10
183	839
184	589
185	90
187	30
199	30
200	90
201	20
215	60
216	10
217	10
219	50
220	10
231	40
232	30
237	10
240	10
245	10
247	60
248	9999
249	1469
250	639
251	80
252	10
