Mass Spectrum: o-Terphenyl
Formula: C18 H14
CAS: 84-15-1
Molecular weight: 230
Origin: Japan AIST/NIMC Database- Spectrum MS-NW-8149
m/z	RELATIVE INTENSITY
27	10
39	50
50	30
51	90
52	20
62	20
63	80
65	20
74	50
75	80
76	80
77	50
81	10
86	20
87	70
88	169
89	60
93	20
94	159
95	30
98	20
99	30
100	199
101	599
102	60
106	90
107	359
108	60
111	10
112	119
113	639
114	819
115	309
125	10
126	50
127	30
128	20
139	40
149	10
150	80
151	109
152	129
153	20
162	10
163	70
164	40
165	169
166	20
174	30
175	30
176	99
177	30
178	30
187	60
188	40
189	149
190	30
191	10
198	10
199	20
200	189
201	179
202	719
203	269
204	40
211	10
212	10
213	149
214	70
215	2289
216	429
217	30
223	10
224	129
225	149
226	1149
227	929
228	2439
229	4709
230	9999
231	1879
232	169
233	10
