Mass Spectrum: Hexestrol
Formula: C18 H22 O2
CAS: 84-16-2
Molecular weight: 270
Origin: NIST Mass Spectrometry Data Center, 2010
m/z	RELATIVE INTENSITY
27	40
29	50
38	10
39	110
40	10
41	310
42	10
43	20
50	10
51	60
52	20
53	60
55	80
62	10
63	50
64	20
65	150
66	40
67	20
68	10
69	10
70	10
75	20
76	30
77	440
78	100
79	140
80	10
81	20
82	40
83	10
84	10
88	10
89	60
91	390
92	50
93	20
94	90
95	120
96	10
97	40
101	10
102	20
103	80
104	10
105	110
107	4634
108	360
109	20
113	10
115	210
116	50
117	40
118	40
119	140
120	350
121	100
122	10
126	10
127	40
128	40
129	10
131	90
132	30
133	180
134	1541
135	9999
136	1001
137	70
139	30
140	10
141	20
142	10
144	10
145	10
146	10
147	10
150	10
151	20
152	70
153	50
154	10
155	20
157	10
163	10
164	20
165	130
166	30
167	10
168	20
169	10
176	10
177	20
178	20
179	10
181	70
182	20
183	10
189	10
193	20
194	20
195	10
197	40
198	10
199	50
200	10
207	10
210	20
211	60
212	110
213	20
223	10
225	10
239	10
240	10
241	10
270	80
271	20
