Mass Spectrum: Dienestrol
Formula: C18 H18 O2
CAS: 84-17-3
Molecular weight: 266
Origin: Patti Price, Georgia Bureau of Investigation, Decatur, Georgia
m/z	RELATIVE INTENSITY
41	20
50	50
51	210
52	70
53	160
55	340
56	20
58	10
62	50
63	310
64	80
65	330
66	100
67	10
68	10
69	30
71	10
73	10
74	60
75	170
76	220
77	1441
78	210
79	410
80	40
81	60
82	70
83	60
84	50
85	10
86	20
87	60
88	160
89	470
90	100
91	680
92	40
93	130
94	250
96	30
97	170
98	50
99	50
100	60
101	330
102	180
103	690
104	180
105	550
107	2001
108	170
109	220
110	70
111	60
112	70
113	60
114	120
115	1231
116	350
117	190
118	440
119	290
120	70
121	3042
122	280
123	60
124	40
125	120
126	100
127	800
128	660
129	380
130	60
131	860
132	200
133	710
134	100
135	20
137	10
139	180
140	30
141	210
142	80
143	190
144	500
145	2662
146	360
147	70
149	10
151	170
152	590
153	280
154	60
155	170
156	100
157	1231
158	890
159	550
160	150
162	10
163	60
164	90
165	500
166	150
167	60
168	40
169	40
170	20
171	270
172	590
173	790
174	100
175	20
176	150
177	130
178	310
179	150
180	40
181	500
182	110
183	40
185	10
186	10
187	20
189	340
190	230
191	260
192	80
193	50
194	280
195	290
196	70
198	20
199	40
200	30
201	290
202	300
203	180
204	50
205	250
206	130
207	510
208	380
209	420
210	1581
211	300
212	40
213	20
214	10
215	400
216	150
217	70
218	580
219	480
220	170
221	220
222	200
223	460
224	90
225	20
226	10
229	30
230	10
231	220
232	140
233	550
234	490
235	470
236	1481
237	3312
238	700
239	100
247	110
248	50
249	560
250	640
251	4714
252	740
253	70
264	20
265	450
266	9999
267	1891
268	230
