Mass Spectrum: Tetrahydrozoline
Formula: C13 H16 N2
CAS: 84-22-0
Molecular weight: 200
Origin: NIST Mass Spectrometry Data Center, 1990.
m/z	RELATIVE INTENSITY
15	163
18	97
26	81
27	408
28	399
29	176
30	293
38	100
39	652
40	251
41	614
42	867
43	347
44	2294
45	111
50	277
51	830
52	300
53	368
54	177
55	211
58	174
62	199
63	736
64	305
65	609
66	110
68	140
69	313
71	2245
72	133
74	198
75	357
76	427
77	1510
78	633
79	328
81	107
82	251
84	2502
85	379
86	122
87	161
88	142
89	718
90	107
91	2759
92	369
95	130
97	588
98	150
99	292
101	274
102	708
103	667
104	226
105	107
113	146
115	3300
116	1510
117	437
118	98
126	297
127	1434
128	2874
129	2275
130	1178
131	2415
132	338
139	119
140	201
141	316
142	289
143	257
144	256
153	144
154	259
155	189
156	267
157	217
158	234
159	131
167	107
168	159
169	304
170	107
171	4460
172	683
173	132
183	236
185	9999
186	1395
197	533
199	6275
200	8383
201	1169
