Mass Spectrum: Syrosingopine
Formula: C35 H42 N2 O11
CAS: 84-36-6
Molecular weight: 666
Origin: AAFS Toxicology Section MS DB Committee, U. Alberta, Canada
m/z	RELATIVE INTENSITY
41	630
42	510
43	770
44	940
45	600
50	190
51	200
52	140
53	550
54	300
55	1121
56	510
57	980
58	220
59	790
60	150
63	200
65	1151
66	620
67	1741
68	600
69	1391
70	660
71	1171
72	230
73	270
75	630
76	140
77	1020
78	470
79	1241
80	600
81	1741
82	1090
83	1351
84	1020
85	1070
86	240
87	170
89	240
90	140
91	1131
92	310
93	1791
94	880
95	1301
96	600
97	1681
99	420
100	170
101	240
102	240
103	320
104	380
105	1010
106	660
107	940
108	1111
109	1901
110	940
111	1271
112	380
113	320
114	320
115	520
116	440
117	480
118	330
119	400
120	360
121	940
122	1010
123	1331
124	300
125	570
126	600
127	770
128	410
129	600
130	800
131	450
132	560
133	630
134	720
135	690
136	560
137	1231
138	810
139	690
140	410
141	580
142	480
143	1070
144	860
145	540
146	350
147	520
148	300
149	520
150	770
151	950
152	1381
153	2432
154	1010
155	1000
156	600
157	420
158	870
159	560
160	850
161	360
162	300
163	270
164	160
165	350
166	480
167	620
168	960
169	690
170	820
171	800
172	1181
173	1631
174	2232
175	390
176	190
177	180
178	190
179	450
180	310
181	9999
182	1421
183	1651
184	1521
185	990
186	3292
187	1090
188	400
189	160
191	150
192	190
193	240
194	190
195	380
196	340
197	860
198	4103
199	5414
200	3993
201	1241
202	300
204	170
205	170
206	200
207	190
208	320
209	990
210	520
211	530
212	820
213	1211
214	3693
215	800
216	160
217	150
218	140
219	200
220	190
221	320
222	390
223	450
224	560
225	950
226	700
227	1221
228	550
229	320
234	200
235	320
236	780
237	740
238	660
239	1181
240	420
241	770
242	190
247	170
248	160
249	380
250	440
251	2572
252	860
253	2161
254	1451
255	460
256	160
257	190
260	160
261	220
262	300
263	320
264	420
265	1521
266	360
267	1401
268	380
269	160
270	220
271	220
272	160
274	160
275	180
276	140
277	280
279	550
280	240
281	260
285	130
286	150
287	360
288	190
289	360
290	230
291	270
293	160
294	140
295	350
296	200
297	660
298	200
299	340
300	160
301	580
302	230
303	310
305	410
306	200
307	300
311	160
313	220
314	140
321	270
322	180
323	560
325	170
333	170
335	230
337	720
338	250
339	240
341	220
348	180
349	300
351	240
352	140
353	240
359	350
360	320
361	200
362	190
363	630
364	250
365	1841
366	590
367	320
368	320
369	550
379	210
380	220
381	3813
382	980
383	230
393	210
394	160
395	3383
396	2131
397	4474
398	1441
399	240
411	190
413	1251
414	310
483	210
593	260
594	240
651	490
652	240
665	1151
666	1751
667	650
668	150
