Mass Spectrum: 9,10-Anthracenedione, 2-amino-3-chloro-
Formula: C14 H8 Cl N O2
CAS: 84-46-8
Molecular weight: 257
Origin: A.I. Gren, Phys.-Chem. Inst., Acad. Sci. Ukraine, Odessa, Ukraine
m/z	RELATIVE INTENSITY
50	380
51	210
52	230
62	280
63	430
69	550
74	240
75	340
76	460
77	270
82	910
83	590
87	240
89	230
90	210
91	210
97	230
100	1020
101	340
114	890
115	240
116	290
137	250
138	670
139	1040
140	320
164	650
165	370
166	640
167	220
173	270
194	210
201	1270
202	280
203	440
228	440
229	1450
230	360
257	9999
258	1820
259	3440
260	550
