Mass Spectrum: 1,2-Benzenedicarboxylic acid, bis(2-methylpropyl) ester
Formula: C16 H22 O4
CAS: 84-69-5
Molecular weight: 278
Origin: D.HENNEBERG, MAX-PLANCK INSTITUTE, MULHEIM, WEST GERMANY
m/z	RELATIVE INTENSITY
26	57
27	316
28	118
29	1212
30	28
31	19
32	2
37	5
38	16
39	273
40	39
41	1053
42	64
43	118
44	16
49	3
50	160
51	76
52	18
53	35
54	15
55	143
56	550
57	1326
58	67
59	3
63	12
64	14
65	315
66	36
70	11
71	9
72	7
73	17
74	26
75	54
76	435
77	112
78	11
79	11
91	20
92	18
93	255
94	18
95	4
100	4
101	3
103	8
104	492
105	206
106	24
107	16
108	8
109	4
115	7
119	5
120	7
121	216
122	126
123	95
124	6
129	4
131	4
132	84
133	24
134	4
135	41
136	11
147	10
148	22
149	9999
150	928
151	107
152	7
159	3
160	26
161	11
162	13
163	8
165	3
167	174
168	18
176	7
177	9
178	11
179	7
188	4
189	12
193	4
203	6
204	5
205	465
206	74
207	17
215	1
221	3
222	4
223	967
224	134
225	20
233	5
236	3
263	4
277	3
278	81
279	14
