Mass Spectrum: 1,2-Benzenedicarboxylic acid, butyl cyclohexyl ester
Formula: C18 H24 O4
CAS: 84-64-0
Molecular weight: 304
Origin: V.G. Zaikin, R.S.Borisov, TIPS RAS, Moscow, Russia
m/z	RELATIVE INTENSITY
27	20
29	90
38	30
39	50
41	230
42	20
43	20
50	30
53	20
54	70
55	270
56	60
57	130
65	90
67	180
76	140
77	50
79	30
81	40
82	110
83	110
93	100
104	190
105	130
121	100
122	80
123	70
132	20
135	30
148	20
149	9999
150	811
151	80
167	170
205	270
206	120
223	761
224	90
