Mass Spectrum: Anthraflavic acid
Formula: C14 H8 O4
CAS: 84-60-6
Molecular weight: 240
Origin: Japan AIST/NIMC Database- Spectrum MS-NW-9632
m/z	RELATIVE INTENSITY
27	20
28	70
29	10
37	20
38	50
39	99
41	10
42	10
43	10
50	80
51	339
52	20
53	119
55	40
56	10
57	20
61	40
62	149
63	569
64	409
65	119
66	30
67	10
69	99
70	30
71	30
73	10
74	109
75	199
76	109
77	329
78	189
79	80
81	10
83	99
84	50
85	30
86	50
87	70
88	30
89	60
90	20
91	119
92	959
93	90
97	40
98	70
99	60
100	30
101	159
102	179
103	20
104	10
105	50
106	349
109	10
110	20
111	30
112	10
113	40
114	20
115	20
117	10
118	10
119	60
120	169
121	40
122	10
125	30
126	269
127	599
128	909
129	139
130	50
131	20
137	40
138	60
139	299
140	70
141	10
142	10
145	10
151	10
153	10
154	50
155	1079
156	369
157	40
158	20
166	20
167	239
168	209
169	30
179	10
182	10
183	559
184	2909
185	389
186	40
194	20
195	549
196	279
197	40
207	40
208	10
211	769
212	2799
213	399
214	40
222	20
223	1539
224	749
225	109
226	30
237	20
239	999
240	9999
241	1629
242	209
243	10
