Mass Spectrum: Dicyclohexyl phthalate
Formula: C20 H26 O4
CAS: 84-61-7
Molecular weight: 330
Origin: Virginia Division of Forensic Science
m/z	RELATIVE INTENSITY
27	180
28	30
29	250
39	330
40	50
41	1111
42	120
43	140
44	60
50	120
51	50
53	160
54	360
55	1901
56	100
57	120
65	290
66	40
67	670
68	40
69	20
71	20
74	20
75	40
76	450
77	140
79	110
80	40
81	230
82	340
83	700
84	50
93	220
94	20
98	20
99	190
100	60
104	420
105	180
121	200
122	240
123	40
129	20
132	20
133	20
147	30
149	9999
150	1431
151	150
167	3132
168	280
169	30
231	60
232	40
249	450
250	70
