Mass Spectrum: 1,2-Benzenedicarboxylic acid, diphenyl ester
Formula: C20 H14 O4
CAS: 84-62-8
Molecular weight: 318
Origin: V.G. Zaikin, R.S.Borisov, TIPS RAS, Moscow, Russia
m/z	RELATIVE INTENSITY
39	100
50	90
51	120
63	30
65	210
66	20
74	20
75	40
76	470
77	1341
78	70
93	20
104	370
105	60
115	180
139	70
141	150
152	140
153	380
154	60
168	60
169	40
181	20
196	40
197	100
225	9999
226	1551
227	150
