Mass Spectrum: 1,2-Benzenedicarboxylic acid, butyl octyl ester
Formula: C20 H30 O4
CAS: 84-78-6
Molecular weight: 334
Origin: RADIAN CORP
m/z	RELATIVE INTENSITY
27	250
29	740
39	310
41	1600
42	280
43	940
44	20
50	150
51	70
52	10
53	80
54	70
55	590
56	460
57	730
58	30
63	10
64	20
65	310
66	30
67	70
68	40
69	200
70	130
71	240
72	20
74	10
75	60
76	480
77	160
78	20
79	20
81	20
82	30
83	90
84	70
91	20
92	20
93	290
94	20
97	10
104	400
105	240
106	20
112	40
113	20
121	290
122	130
123	90
132	40
133	10
135	20
147	20
149	9999
150	940
151	100
160	30
167	70
176	30
178	10
205	410
206	80
223	790
224	110
225	10
261	80
262	20
279	120
280	20
334	40
335	30
