Mass Spectrum: 1,2-Cyclohexanedicarboxylic acid, bis(2-ethylhexyl) ester
Formula: C24 H44 O4
CAS: 84-71-9
Molecular weight: 396
Origin: Zaikin V.G., TIPS RAS, Moscow, Russia
m/z	RELATIVE INTENSITY
27	30
29	140
39	20
41	380
42	50
43	661
53	30
54	50
55	310
56	90
57	1661
58	70
67	160
69	120
70	691
71	1621
72	90
80	80
81	901
82	220
83	240
84	110
99	20
108	250
109	651
110	70
112	851
113	2482
114	220
125	50
126	1531
127	450
128	260
129	60
140	20
153	30
154	1411
155	9999
156	871
157	120
168	50
172	220
173	861
174	70
238	130
239	20
240	20
266	140
267	390
268	60
284	80
285	851
286	140
396	70
397	60
