Mass Spectrum: Perazine
Formula: C20 H25 N3 S
CAS: 84-97-9
Molecular weight: 339
Origin: Finnigan MAT: Toxicological Library (LIBR-TX)
m/z	RELATIVE INTENSITY
43	3667
44	8763
56	782
58	1101
70	6580
71	1421
83	392
84	387
85	628
97	309
98	689
99	573
111	714
113	9969
114	1010
127	1380
128	91
139	408
141	4233
142	399
154	284
166	196
167	404
179	298
180	1186
181	194
198	1992
199	2414
200	396
212	1861
213	1233
214	298
224	410
225	700
226	830
238	2323
239	1613
240	401
256	309
282	201
295	311
339	9999
340	3135
341	706
