Mass Spectrum: 2,4-Diethyl-5-methyloxazole
Formula: C8 H13 N O
CAS: 84027-88-3
Molecular weight: 139
Origin: W.Jennings, T.Shibamoto
m/z	RELATIVE INTENSITY
38	70
41	1291
42	190
43	4924
54	190
55	470
56	6746
57	591
68	70
69	8237
70	460
82	460
83	190
84	2092
96	1621
110	190
124	9999
125	1792
126	70
137	70
138	3113
139	8017
140	1481
