Mass Spectrum: 2-iso-Propyl-4-ethyl-5-methyloxazole
Formula: C9 H15 N O
CAS: 84027-96-3
Molecular weight: 153
Origin: W.Jennings, T.Shibamoto
m/z	RELATIVE INTENSITY
27	70
29	70
39	70
41	1391
42	270
43	7237
44	70
51	70
54	190
55	3153
56	4524
67	681
68	991
69	6186
70	2833
71	70
79	450
80	70
82	380
83	270
84	3443
85	180
94	380
95	70
96	7337
97	681
110	7847
111	1381
120	70
123	270
124	270
125	380
136	70
137	180
138	9999
139	3994
140	270
152	2632
153	7457
154	2833
155	70
