Mass Spectrum: Benzhydryl piperazine
Formula: C17 H20 N2
CAS: 841-77-0
Molecular weight: 252
Origin: NIST Mass Spectrometry Data Center
m/z	RELATIVE INTENSITY
27	50
29	180
30	150
39	100
41	80
42	360
43	150
44	140
50	40
51	160
52	30
53	10
54	100
55	130
56	2803
57	250
58	651
59	20
62	30
63	160
64	30
65	170
66	10
68	30
70	30
71	30
74	30
75	40
76	60
77	220
78	50
79	30
81	20
82	60
83	130
84	40
85	3283
86	180
87	60
88	20
89	200
90	60
91	671
92	50
101	10
102	70
103	60
104	210
105	100
106	20
113	50
114	20
115	400
116	70
117	90
118	150
119	30
120	80
125	10
126	60
127	60
128	250
129	30
130	60
131	20
132	90
133	20
137	10
138	20
139	300
140	40
141	120
142	10
144	10
145	10
146	180
147	300
148	30
150	30
151	210
152	2072
153	300
154	20
161	10
162	20
163	250
164	400
165	4184
166	1421
167	9999
168	1511
169	100
173	20
175	881
176	110
177	10
178	40
179	60
180	190
181	40
182	400
183	50
192	20
193	40
194	1421
195	661
196	1591
197	230
198	10
206	1021
207	5705
208	1241
209	140
210	220
211	30
220	20
221	10
222	520
223	120
224	30
237	240
238	40
249	10
251	80
252	841
253	160
254	10
