Mass Spectrum: 2-Naphthalenol, 1-(phenylazo)-
Formula: C16 H12 N2 O
CAS: 842-07-9
Molecular weight: 248
Origin: Japan AIST/NIMC Database- Spectrum MS-NW-8089
m/z	RELATIVE INTENSITY
16	10
26	20
27	139
28	149
29	10
37	30
38	109
39	589
40	50
41	60
43	10
50	229
51	929
52	139
53	40
54	10
55	10
57	10
61	30
62	169
63	509
64	199
65	679
66	90
67	10
69	30
74	129
75	439
76	239
77	2759
78	239
79	10
86	40
87	99
88	239
89	679
90	80
91	50
92	99
93	99
94	30
95	10
98	20
99	40
100	60
101	679
102	299
103	70
104	10
105	339
106	20
110	10
113	249
114	849
115	5729
116	619
117	30
124	189
125	10
126	99
127	109
128	699
129	149
130	40
131	10
139	30
140	20
141	10
142	219
143	9119
144	1149
145	119
146	10
151	20
152	40
153	10
156	129
157	30
158	10
159	50
163	30
164	30
165	189
166	30
167	10
168	10
169	10
170	10
171	2229
172	269
173	20
176	30
177	10
178	20
179	10
181	10
187	10
188	20
189	339
190	189
191	339
192	139
193	40
194	10
200	30
201	159
202	129
203	109
204	80
205	50
206	10
216	10
217	40
218	209
219	729
220	489
221	99
222	20
229	99
230	40
231	269
232	60
233	60
234	10
245	10
246	20
247	1299
248	9999
249	1849
250	179
251	10
