Mass Spectrum: 2,3,4,6-Tetrafluorophenyl isothiocyanate
Formula: C7 H F4 N S
CAS: 84348-86-7
Molecular weight: 207
Origin: NIST Mass Spectrometry Data Center, 1994
m/z	RELATIVE INTENSITY
12	56
31	3451
32	928
34	52
36	86
37	279
38	92
44	793
45	141
46	65
48	41
49	67
50	52
51	239
55	302
56	430
57	43
58	380
59	11
60	136
61	442
62	236
63	1580
64	34
65	54
67	49
68	506
69	1026
70	1829
71	75
72	98
73	11
74	519
75	1628
76	251
79	721
80	853
81	251
82	230
86	399
87	489
88	48
89	35
92	113
93	1018
94	449
95	45
98	494
99	4917
100	590
101	65
102	35
103	763
105	195
106	687
107	80
110	71
111	107
112	94
113	757
114	67
117	361
118	187
124	262
125	116
129	39
130	245
131	110
132	97
137	523
138	150
144	648
145	54
148	139
149	1023
150	80
155	49
156	94
157	220
162	169
163	472
164	45
175	4747
176	476
180	146
181	69
187	226
188	134
207	9999
208	985
209	420
