Mass Spectrum: Benzene, 1,1'-[sulfonylbis(methylene)]bis[4-chloro-
Formula: C14 H12 Cl2 O2 S
CAS: 84355-05-5
Molecular weight: 314
Origin: Div. of Experiment Therapeutics WRAIR, WRAMC, Washington DC 20307
m/z	RELATIVE INTENSITY
41	25
42	45
45	27
49	56
50	41
51	94
62	82
63	366
64	88
65	77
73	105
75	90
77	29
84	38
85	7
86	42
87	30
88	40
89	924
90	331
91	36
97	24
99	365
100	29
101	117
111	7
122	14
124	75
125	9999
126	842
127	3330
128	224
149	47
150	206
151	15
165	7
178	30
179	14
250	928
251	149
252	613
253	99
254	96
255	7
314	195
315	35
316	139
317	25
318	19
