Mass Spectrum: Hexanoic acid, 3-hexenyl ester
Formula: C12 H22 O2
CAS: 84434-19-5
Molecular weight: 198
Origin: Insect Chem. Ecol. Lab., USDA, Beltsville, MD 20705
m/z	RELATIVE INTENSITY
41	1891
42	558
43	1853
44	70
45	85
50	25
51	72
52	48
53	365
54	408
55	1724
56	272
57	133
58	13
59	27
60	273
61	47
63	10
65	115
67	5984
68	391
69	371
70	114
71	1452
72	57
73	226
74	28
75	9
77	49
78	8
79	125
80	46
81	541
82	9999
83	2111
84	140
85	25
86	48
87	124
88	8
89	26
93	11
95	14
96	36
97	105
98	15
99	3904
100	258
101	54
109	7
113	13
114	75
115	91
116	70
117	515
118	33
121	8
124	7
127	13
128	6
129	35
136	10
138	7
142	30
143	6
157	13
181	7
196	13
197	12
198	307
199	39
200	9
