Mass Spectrum: 3-Chloro-2,6-dibromo-4-methylaniline
Formula: C7 H6 Br2 Cl N
CAS: 84483-22-7
Molecular weight: 297
Origin: NIST Mass Spectrometry Data Center
m/z	RELATIVE INTENSITY
12	50
13	40
14	20
15	250
16	30
17	70
18	150
25	100
26	510
27	821
28	1111
29	50
30	130
35	130
36	180
37	911
38	891
39	591
40	100
41	160
42	80
43	40
44	30
47	110
48	120
49	741
50	2843
51	4494
52	3343
53	440
54	390
55	80
57	90
58	40
60	290
61	911
62	861
63	510
64	210
65	380
66	120
69	1041
72	250
73	691
74	1321
75	2672
76	2442
77	1601
78	631
79	520
80	230
81	480
82	220
83	110
84	270
85	561
86	921
87	550
88	460
89	330
91	520
92	490
94	30
95	90
96	290
97	390
98	160
99	430
100	550
101	280
102	1601
103	1311
104	1772
105	230
106	180
107	100
109	1121
110	1311
111	911
112	751
113	210
114	250
115	60
116	50
117	80
118	70
119	120
120	40
121	60
122	30
123	40
124	70
125	30
128	90
129	110
130	170
131	180
132	130
133	40
135	30
136	100
137	360
138	1291
139	1191
140	561
141	420
142	80
143	60
145	20
149	340
150	190
152	40
153	50
154	80
155	160
156	120
157	130
158	70
165	20
166	20
167	30
168	30
169	30
180	30
182	550
183	400
184	520
185	380
186	30
190	110
191	260
192	200
193	290
194	70
195	70
203	30
216	210
218	3263
219	811
220	3703
221	420
222	1001
223	70
262	951
264	1782
265	210
266	921
267	60
273	30
296	1752
297	4644
298	4024
299	9999
300	3553
301	6816
302	1081
303	1381
304	120
