Mass Spectrum: 4-Dimethylamino-2-methoxybenzaldehyde
Formula: C10 H13 N O2
CAS: 84562-48-1
Molecular weight: 179
Origin: NIST Mass Spectrometry Data Center
m/z	RELATIVE INTENSITY
12	100
13	120
15	3693
16	80
17	30
18	40
20	20
28	450
29	500
30	220
32	40
37	290
38	801
39	1491
40	280
41	561
42	2853
43	70
44	561
46	60
50	1031
51	1381
52	711
53	881
54	250
55	340
56	100
59	230
61	340
62	671
63	2002
64	1161
65	1682
66	901
67	591
68	490
69	520
70	40
72	90
74	250
75	691
76	781
77	1501
78	771
79	891
80	310
81	210
82	220
87	40
89	260
90	280
91	1061
92	1962
93	540
94	190
95	80
102	110
103	290
104	681
105	540
106	731
107	1611
108	981
109	130
117	280
118	871
119	1391
120	1031
121	470
122	1822
123	190
127	40
132	480
133	1011
134	2312
135	2692
136	721
137	90
145	130
146	300
148	2752
149	651
150	1822
151	320
160	230
161	801
162	2722
163	971
164	460
165	50
176	130
178	9168
179	9999
180	1131
181	80
