Mass Spectrum: Boldenone
Formula: C19 H26 O2
CAS: 846-48-0
Molecular weight: 286
Origin: NIST Mass Spectrometry Data Center
m/z	RELATIVE INTENSITY
27	100
28	10
29	170
30	10
31	40
38	10
39	240
40	50
41	671
42	50
43	370
44	40
45	40
50	20
51	130
52	90
53	400
54	70
55	721
56	50
57	300
58	40
59	10
62	10
63	50
64	30
65	320
66	80
67	490
68	100
69	130
70	20
71	50
72	10
75	10
76	20
77	741
78	190
79	711
80	120
81	380
82	60
83	80
84	20
85	30
86	10
87	10
89	50
90	30
91	1782
92	370
93	801
94	210
95	300
96	50
97	190
98	20
99	10
100	10
101	10
102	40
103	180
104	90
105	741
106	180
107	851
108	731
109	340
110	190
111	50
112	10
113	10
115	350
116	130
117	310
118	80
119	420
120	250
121	2002
122	9999
123	1111
124	100
125	10
126	10
127	90
128	230
129	240
130	90
131	310
132	110
133	420
134	571
135	340
136	70
137	40
138	10
139	10
140	10
141	100
142	60
143	100
144	90
145	330
146	150
147	881
148	140
149	60
150	30
151	180
152	60
153	50
154	20
155	60
156	30
157	110
158	90
159	250
160	140
161	150
162	30
163	40
164	30
165	120
166	30
167	20
168	10
169	40
170	20
171	100
172	80
173	140
174	50
175	30
176	10
177	10
178	20
179	20
181	20
182	10
183	30
184	20
185	60
186	40
187	30
188	10
189	10
191	10
193	10
195	10
196	10
197	40
198	20
199	60
200	20
201	10
202	10
209	10
210	10
211	30
212	20
213	20
214	20
215	10
224	10
225	50
226	10
227	90
228	20
229	10
235	10
239	20
240	20
241	10
242	10
243	10
251	20
253	50
254	10
258	10
268	20
269	10
271	10
286	200
287	40
288	10
