Mass Spectrum: 4-Methyl-3-hexanol acetate
Formula: C9 H18 O2
CAS: 84612-71-5
Molecular weight: 158
Origin: NIST Mass Spectrometry Data Center, 1990.
m/z	RELATIVE INTENSITY
15	135
26	85
27	677
28	84
29	970
31	128
39	709
41	1857
43	9999
44	276
45	326
53	232
54	114
55	980
56	531
57	1337
58	202
59	406
61	111
67	156
69	2994
70	759
71	140
72	972
73	210
83	297
85	188
87	125
98	826
99	120
100	505
101	3144
102	200
129	202
130	155
