Mass Spectrum: 3-Amino-1-methyl-5-methylthio-1,2,4-triazole
Formula: C4 H8 N4 S
CAS: 84827-78-1
Molecular weight: 144
Origin: NIST Mass Spectrometry Data Center, 1994
m/z	RELATIVE INTENSITY
12	104
13	229
14	764
15	4639
16	269
17	81
18	86
26	3
27	429
28	4401
29	239
30	333
31	3
32	319
33	87
38	64
39	87
40	208
41	477
42	9999
43	6739
44	764
45	2178
46	1288
47	1349
48	150
49	74
53	1025
54	332
55	600
56	553
57	204
58	1071
59	720
60	541
61	117
67	66
69	209
70	852
71	945
72	480
73	617
74	3056
75	171
76	152
80	62
82	62
85	2385
86	1191
87	2938
88	331
89	191
97	286
98	724
99	635
100	42
101	345
102	93
111	9143
112	605
116	61
129	907
130	62
131	48
143	1349
144	8499
145	651
146	393
