Mass Spectrum: Benzo[f]quinoline, 3-methyl-
Formula: C14 H11 N
CAS: 85-06-3
Molecular weight: 193
Origin: A.E.WILLIAMS ICI DYESTUFFS DIVISION, BLACKLEY, MANCHESTER, UK
m/z	RELATIVE INTENSITY
14	75
27	101
36	58
39	135
50	110
51	178
52	52
62	84
63	333
74	185
75	341
76	474
77	154
81	51
82	222
84	73
86	63
87	150
88	73
89	120
95	304
96	222
97	85
98	72
99	124
100	97
101	94
102	69
113	110
114	57
115	122
125	152
126	341
127	141
137	56
138	59
139	400
140	304
141	51
149	102
150	830
151	1326
152	770
153	158
163	296
164	407
165	1415
166	326
167	1022
176	112
177	552
178	518
179	93
190	415
191	75
193	9999
194	1563
