Mass Spectrum: Benzo[f]quinoline
Formula: C13 H9 N
CAS: 85-02-9
Molecular weight: 179
Origin: NIST Mass Spectrometry Data Center, 1998.
m/z	RELATIVE INTENSITY
26	10
27	20
37	10
38	40
39	110
40	10
49	10
50	230
51	210
52	70
61	80
62	230
63	580
64	40
65	10
73	40
74	370
75	710
76	1190
78	30
85	50
86	140
87	200
88	30
89	620
97	20
98	190
99	210
100	140
101	120
102	130
103	20
109	10
110	50
111	70
112	30
113	80
114	30
115	50
116	10
121	10
122	50
123	50
124	60
125	230
126	530
127	160
128	80
129	10
137	20
138	10
139	100
140	80
141	10
148	10
149	150
150	1260
151	2330
152	1570
153	460
154	50
164	30
165	10
175	60
176	150
177	650
178	3230
179	9999
180	1640
181	110
