Mass Spectrum: Phenanthrene
Formula: C14 H10
CAS: 85-01-8
Molecular weight: 178
Origin: NIST Mass Spectrometry Data Center, 1990.
m/z	RELATIVE INTENSITY
27	64
28	22
38	70
39	199
50	315
51	272
61	94
62	288
63	646
64	39
74	500
75	728
76	1379
85	65
86	222
87	442
88	937
89	1011
98	281
99	184
100	76
101	63
102	93
110	89
111	98
113	79
115	48
122	72
123	49
125	85
126	212
127	71
128	95
139	158
149	137
150	779
151	912
152	1324
153	165
163	55
174	245
175	321
176	2021
177	1217
178	9999
179	1503
180	111
184	57
