Mass Spectrum: Chlorfenac
Formula: C8 H5 Cl3 O2
CAS: 85-34-7
Molecular weight: 238
Origin: MASS SPECTROMETRY CENTER, UNIV. OF UTAH. EPA-PTSEL 3460
m/z	RELATIVE INTENSITY
15	63
17	13
18	44
26	133
27	62
28	100
29	341
35	322
36	1196
37	878
38	750
39	629
40	29
42	96
43	1018
44	691
45	1868
47	248
48	159
49	689
50	902
51	638
52	60
53	78
60	819
61	2087
62	1921
63	1642
64	94
71	88
72	428
73	2225
74	851
75	1522
76	137
77	324
78	647
79	689
80	306
83	283
84	564
85	1174
86	1253
87	1830
88	329
89	361
95	25
96	668
97	1926
98	564
99	654
101	51
105	71
107	646
108	157
109	827
110	139
111	1448
112	381
113	421
114	109
120	108
121	267
122	178
123	6362
124	689
125	2075
126	215
131	143
133	569
134	19
135	345
137	18
139	192
141	43
145	135
146	169
147	292
148	107
149	155
157	1828
158	3039
159	9132
160	2512
161	5219
162	699
163	798
164	23
167	273
168	188
169	360
170	21
171	47
174	149
175	861
176	171
177	530
179	90
192	104
193	8615
194	1273
195	8482
196	1271
197	2704
198	454
199	310
200	37
202	70
203	9999
204	968
205	6386
206	609
207	1058
208	77
237	165
238	4461
239	557
240	4267
241	439
242	1399
243	106
244	148
