Mass Spectrum: Benzoic acid, 2-hydroxy-3-nitro-
Formula: C7 H5 N O5
CAS: 85-38-1
Molecular weight: 183
Origin: Japan AIST/NIMC Database- Spectrum MS-NW- 286
m/z	RELATIVE INTENSITY
16	30
17	219
18	1049
25	20
26	70
27	299
28	179
29	99
30	409
31	20
32	20
36	20
37	259
38	509
39	859
40	50
41	109
42	40
43	109
44	60
45	339
46	40
48	20
49	70
50	269
51	679
52	289
53	759
54	90
55	249
56	40
57	99
60	60
61	249
62	689
63	2159
64	579
65	299
66	149
67	50
68	40
69	109
70	40
71	60
73	70
74	119
75	109
76	80
77	139
78	70
79	409
80	70
81	349
82	40
83	60
84	20
85	40
87	20
88	10
90	60
91	2209
92	519
93	119
94	20
95	30
96	30
97	40
98	20
99	10
100	20
101	40
104	20
105	20
107	3319
108	249
109	30
110	10
111	20
113	10
118	30
119	1109
120	269
121	209
122	20
123	20
125	10
129	20
134	10
135	299
136	40
137	20
139	40
149	779
150	70
151	10
153	80
165	9999
166	959
167	139
168	10
169	10
183	5099
184	429
185	70
