Mass Spectrum: 1,2,3,6-Tetrahydrophthalimide
Formula: C8 H9 N O2
CAS: 85-40-5
Molecular weight: 151
Origin: W. LORENZ, INST. OKOLOGISCHE CHEM., NEUHERBERG, GERMANY
m/z	RELATIVE INTENSITY
41	320
43	380
44	380
50	740
51	1360
52	810
53	740
54	600
63	310
65	430
77	2760
78	1800
79	9999
80	6140
81	510
96	470
105	440
106	540
107	510
108	470
122	1320
123	1840
124	300
151	5260
152	550
