Mass Spectrum: 1,3-Isobenzofurandione, hexahydro-
Formula: C8 H10 O3
CAS: 85-42-7
Molecular weight: 154
Origin: H. Fales, LC, NHLBI, NIH, Bethesda, MD 20892
m/z	RELATIVE INTENSITY
41	6726
42	33
43	4075
45	6717
46	238
47	282
49	409
50	438
51	1331
53	4136
54	3662
55	3875
56	584
57	630
59	1039
60	299
61	135
63	213
65	662
66	1456
67	5085
68	1795
69	694
70	241
71	439
73	1193
74	206
75	30
77	1192
79	3425
80	4729
81	9999
82	2490
83	410
84	330
85	316
86	661
87	642
88	28
89	9
91	56
92	34
94	267
95	332
97	1147
98	20
99	1290
100	347
101	89
105	25
108	4971
109	919
110	176
111	574
112	353
113	263
114	67
117	70
118	23
121	11
123	35
124	82
126	6451
127	511
128	358
129	25
131	33
132	8
136	225
138	46
139	742
140	124
141	9
152	8
153	27
154	2106
155	1161
156	88
157	15
