Mass Spectrum: 1,3-Isobenzofurandione, 3a,4,7,7a-tetrahydro-
Formula: C8 H8 O3
CAS: 85-43-8
Molecular weight: 152
Origin: TAT 0005
m/z	RELATIVE INTENSITY
26	400
27	1001
29	200
38	500
39	1702
40	500
41	400
43	200
44	300
50	801
51	1101
52	601
53	601
54	300
63	300
65	601
66	100
75	200
77	1501
78	1301
79	9999
80	5105
81	400
123	400
124	3503
125	300
152	100
