Mass Spectrum: 1,2-Benzenedicarboxylic acid, butyl 2-ethylhexyl ester
Formula: C20 H30 O4
CAS: 85-69-8
Molecular weight: 334
Origin: RADIAN CORP
m/z	RELATIVE INTENSITY
26	20
27	340
29	1010
30	30
39	300
41	1680
42	260
43	970
50	110
51	70
52	10
53	80
54	60
55	480
56	340
57	580
58	30
64	10
65	290
66	30
67	70
68	10
69	120
70	60
71	180
75	30
76	370
77	120
78	10
79	20
83	50
91	20
92	20
93	270
94	20
104	290
105	200
106	20
112	40
113	10
121	280
122	130
123	90
132	30
147	20
149	9999
150	920
151	100
160	30
167	80
176	30
205	380
206	70
223	650
224	90
261	60
279	70
280	10
334	20
335	20
