Mass Spectrum: Phthalylsulfathiazole
Formula: C17 H13 N3 O5 S2
CAS: 85-73-4
Molecular weight: 403
Origin: Finnigan MAT: Toxicological Library (LIBR-TX)
m/z	RELATIVE INTENSITY
45	2110
50	2292
55	2191
63	688
64	678
65	6093
66	863
74	715
75	578
76	4124
91	400
92	9999
93	1866
104	3913
108	5905
109	485
119	182
140	1372
148	696
156	7851
157	693
158	387
166	190
190	499
191	6163
192	708
222	1083
223	304
239	204
255	1172
256	206
286	199
320	191
321	496
322	98
385	200
