Mass Spectrum: Phthalic acid, butyl ester, ester with butyl glycolate
Formula: C18 H24 O6
CAS: 85-70-1
Molecular weight: 336
Origin: Japan AIST/NIMC Database- Spectrum MS-NW- 389
m/z	RELATIVE INTENSITY
17	10
18	70
27	169
28	70
29	899
30	20
31	30
39	159
40	20
41	909
42	179
43	80
44	10
49	40
50	159
51	60
52	20
53	20
54	20
55	229
56	829
57	1389
58	60
59	10
60	80
61	40
63	10
64	10
65	229
66	90
69	10
71	10
73	20
74	30
75	60
76	549
77	1589
78	50
79	20
81	10
87	10
91	10
92	20
93	229
94	20
101	20
103	10
104	869
105	499
106	40
114	20
115	10
116	20
117	20
119	10
120	10
121	239
122	119
123	40
132	369
133	1939
134	129
135	40
147	20
148	30
149	9999
150	949
151	99
157	40
160	159
161	20
162	70
163	30
167	20
169	10
176	10
177	10
178	30
179	10
188	20
190	10
191	10
192	10
202	30
203	20
204	50
205	469
206	80
207	709
208	80
209	10
221	10
223	149
224	20
235	10
236	10
262	10
263	4229
264	669
265	99
278	50
279	10
281	409
282	60
283	10
321	40
336	279
337	50
338	10
