Mass Spectrum: Benzoic acid, 2-[[(3-methylphenyl)amino]carbonyl]-
Formula: C15 H13 N O3
CAS: 85-72-3
Molecular weight: 255
Origin: NIST Mass Spectrometry Data Center, 1994
m/z	RELATIVE INTENSITY
15	70
17	36
18	45
26	112
27	426
28	268
37	151
38	356
39	1258
40	153
41	140
44	31
50	3230
51	1484
52	596
53	310
54	63
61	62
62	229
63	743
64	392
65	1198
66	160
70	31
73	98
74	779
75	1387
76	7793
77	1952
78	737
79	237
83	28
86	50
87	59
88	128
89	999
90	2405
91	1261
92	149
102	564
104	2546
105	374
106	71
107	128
113	46
115	101
116	62
118	490
119	231
126	44
127	79
128	50
129	44
130	469
131	64
132	316
133	56
139	91
140	96
151	154
152	329
153	144
154	58
163	31
165	1268
166	564
167	186
177	99
178	371
179	136
180	248
181	54
190	149
192	2347
193	6898
194	1107
195	94
207	48
208	155
209	79
219	218
220	59
222	75
237	9999
238	1659
239	200
254	40
255	150
256	26
