Mass Spectrum: [1,1'-Biphenyl]-2-ol, 3-chloro-
Formula: C12 H9 Cl O
CAS: 85-97-2
Molecular weight: 204
Origin: J.E. WILKINSON S-CUBED, SAN DIEGO, CA.
m/z	RELATIVE INTENSITY
45	2
47	12
49	145
50	718
51	1237
52	151
53	195
55	64
56	43
57	309
58	1
60	4
61	77
62	739
63	1839
64	140
65	266
66	16
67	4
68	2
69	3772
72	3
73	425
74	635
75	804
76	291
77	359
78	27
79	3
81	1
83	8
84	1088
85	106
86	375
87	606
88	327
89	865
90	31
91	205
92	30
97	27
98	108
99	111
100	21
101	113
102	567
103	58
109	3
110	27
111	66
112	8
113	682
114	607
115	2455
116	152
123	9
125	17
126	57
127	8
136	1
137	55
138	155
139	5507
140	1086
141	4161
142	356
143	1
149	275
150	63
151	166
152	73
165	8
167	99
168	3471
169	2267
170	135
175	77
176	34
177	14
178	36
189	14
202	19
203	2636
204	9999
205	1998
206	3111
207	279
