Mass Spectrum: Methyl 3-amino-4-methylthiophene-2-carboxylate
Formula: C7 H9 N O2 S
CAS: 85006-31-1
Molecular weight: 171
Origin: NIST Mass Spectrometry Data Center
m/z	RELATIVE INTENSITY
11	30
12	40
13	60
14	300
15	1692
18	60
25	10
26	30
27	330
28	911
29	490
30	230
32	20
37	280
38	540
39	1672
40	530
41	801
42	540
43	10
44	430
45	2933
46	130
47	130
50	160
51	360
52	741
53	500
54	450
55	20
56	30
57	210
58	611
59	711
60	310
65	120
66	591
67	691
68	1742
69	791
70	671
71	1201
72	1551
73	220
78	520
80	240
81	50
82	40
83	671
84	3944
85	1672
86	300
95	60
96	40
97	10
109	60
110	1561
111	4734
112	2242
113	691
114	140
139	9999
140	4974
141	831
142	180
171	7967
172	781
173	440
