Mass Spectrum: 4-Iodopentylbenzene
Formula: C11 H15 I
CAS: 85017-60-3
Molecular weight: 274
Origin: NIST Mass Spectrometry Data Center, 1994
m/z	RELATIVE INTENSITY
14	16
15	154
18	49
26	235
27	2271
28	280
29	2746
30	70
37	44
38	333
39	2229
40	340
41	2354
42	219
43	349
50	980
51	1339
52	367
53	253
55	242
56	55
57	620
61	79
62	439
63	1623
64	624
65	964
66	70
67	62
69	49
73	45
74	380
75	383
76	552
77	1425
78	886
79	228
86	75
87	141
89	3382
90	4797
91	5212
92	423
93	33
101	60
102	344
103	860
104	692
105	627
106	58
115	688
116	219
117	458
118	118
119	60
127	307
128	92
147	343
148	52
204	170
217	9999
218	1434
219	76
230	40
231	96
245	40
274	5059
275	618
