Mass Spectrum: 2,5-Difluorobenzophenone
Formula: C13 H8 F2 O
CAS: 85068-36-6
Molecular weight: 218
Origin: NIST Mass Spectrometry Data Center, 1994
m/z	RELATIVE INTENSITY
4	21
17	4
18	35
20	16
26	47
27	298
28	50
31	101
37	88
38	163
39	247
40	10
44	13
49	94
50	1403
51	3322
52	170
53	89
55	12
56	56
57	222
61	150
62	372
63	2218
64	144
68	185
69	127
70	36
72	20
73	83
74	561
75	355
76	380
77	6093
78	394
79	25
80	38
81	177
82	54
83	15
85	184
86	87
87	129
88	44
91	11
92	92
93	243
94	201
95	170
98	64
99	71
100	15
101	21
102	8
105	9999
106	750
107	63
109	54
110	40
111	51
112	8
113	2492
114	184
117	23
118	18
119	14
122	29
123	48
124	14
125	29
131	26
133	13
138	38
139	19
141	2893
142	239
143	46
144	33
149	37
150	33
151	50
157	12
162	48
163	11
164	20
167	16
168	79
169	129
170	115
171	28
175	15
181	11
186	17
187	34
188	166
189	86
190	94
191	10
198	233
199	60
201	32
218	3286
219	533
220	46
