Mass Spectrum: Benzeneacetic acid, 3,5-bis(trifluoromethyl)-
Formula: C10 H6 F6 O2
CAS: 85068-33-3
Molecular weight: 272
Origin: NIST Mass Spectrometry Data Center, 1994
m/z	RELATIVE INTENSITY
14	29
15	38
17	86
18	89
20	67
27	145
28	342
29	306
31	191
37	70
38	215
39	500
40	65
42	111
44	173
45	2397
50	322
51	441
57	374
59	44
61	147
62	496
63	914
69	914
74	195
75	829
76	63
77	166
78	61
79	73
80	81
81	321
83	109
85	84
86	227
87	486
88	345
89	365
93	130
94	129
95	151
99	384
100	63
101	135
103	37
104	155
105	116
106	131
107	467
108	264
109	613
111	74
112	154
113	211
114	132
117	73
118	71
119	467
120	103
125	204
126	162
127	816
128	88
131	58
132	368
133	50
136	56
137	467
138	971
139	500
140	116
143	107
144	128
145	245
155	92
156	323
157	502
158	1133
159	7461
160	689
161	61
163	256
167	57
169	156
175	109
176	311
177	2032
178	186
181	107
182	102
187	1432
188	214
189	129
195	290
205	330
206	113
207	585
208	1549
209	214
213	85
225	313
227	9999
228	4089
229	319
230	105
253	3328
254	476
255	77
272	4387
273	494
