Mass Spectrum: 1-Propanone, 1-(2,4-difluorophenyl)-
Formula: C9 H8 F2 O
CAS: 85068-30-0
Molecular weight: 170
Origin: NIST Mass Spectrometry Data Center
m/z	RELATIVE INTENSITY
13	10
14	40
15	80
16	10
17	10
20	10
26	180
27	651
28	170
29	400
31	110
32	10
33	10
37	50
38	40
39	60
42	30
44	10
49	30
50	200
51	90
53	30
55	90
56	70
57	270
60	10
61	110
62	290
63	1541
64	90
68	180
69	100
70	20
71	10
73	30
74	180
75	180
76	20
77	30
79	10
80	30
81	140
82	20
83	10
85	10
86	30
87	60
88	40
92	60
93	230
95	60
96	10
98	10
99	40
100	10
101	100
102	10
105	20
107	40
113	2572
114	200
115	30
119	20
120	10
121	20
122	30
123	10
125	50
126	10
127	100
133	10
138	10
139	50
141	9999
142	731
143	50
150	10
151	40
170	941
171	90
