Mass Spectrum: 1-Propanone, 1-(2,6-difluorophenyl)-
Formula: C9 H8 F2 O
CAS: 85068-31-1
Molecular weight: 170
Origin: NIST Mass Spectrometry Data Center, 1994
m/z	RELATIVE INTENSITY
13	13
14	45
15	113
17	11
18	17
20	20
25	24
26	289
27	1130
28	237
29	790
30	30
33	22
37	112
38	73
39	139
42	69
44	2
49	40
50	240
51	133
53	45
54	9
55	130
56	133
57	431
58	18
60	18
61	141
62	343
63	1995
64	112
68	295
69	162
70	46
73	34
74	177
75	213
76	26
77	43
79	14
80	41
81	165
82	18
83	16
85	18
86	52
87	121
88	69
89	9
92	98
93	302
94	199
95	65
96	16
98	20
99	55
100	16
101	130
102	12
103	9
105	19
107	42
110	13
111	35
112	214
113	2465
114	223
115	16
119	23
120	9
121	21
122	29
123	27
125	41
126	12
127	93
128	8
131	8
133	15
138	20
141	9999
142	796
143	57
151	32
170	1038
171	117
