Mass Spectrum: 2,4-Difluorobenzamide
Formula: C7 H5 F2 N O
CAS: 85118-02-1
Molecular weight: 157
Origin: NIST Mass Spectrometry Data Center, 1994
m/z	RELATIVE INTENSITY
16	271
17	87
18	38
28	164
31	533
37	274
38	140
39	90
40	62
44	1676
45	95
49	117
50	572
51	188
52	77
56	178
57	389
61	322
62	710
63	2672
64	77
65	389
68	468
69	254
70	100
73	139
74	412
75	331
76	62
79	45
80	83
81	290
82	96
83	45
86	63
87	160
88	206
92	210
93	418
94	308
95	61
100	92
101	254
102	34
108	61
111	73
112	441
113	5434
114	718
120	96
128	81
139	96
141	9999
142	803
157	6325
158	512
159	17
