Mass Spectrum: 2,5-Difluorobenzyl bromide
Formula: C7 H5 Br F2
CAS: 85117-99-3
Molecular weight: 206
Origin: Japan AIST/NIMC Database- Spectrum MS-NW-7774
m/z	RELATIVE INTENSITY
18	20
20	10
26	20
27	20
28	70
31	249
32	10
33	20
36	20
37	90
38	119
39	169
43	20
44	30
45	10
49	50
50	299
51	299
52	20
53	30
55	10
56	99
57	559
58	20
59	10
61	119
62	179
63	249
64	20
68	99
69	80
70	90
73	10
74	99
75	319
76	90
77	359
78	20
79	70
80	99
81	329
82	60
83	99
84	20
85	50
86	50
87	50
88	40
89	10
92	20
93	40
94	60
95	30
96	70
99	90
100	80
101	1089
102	70
103	30
104	40
105	80
106	40
107	669
108	109
109	20
113	10
115	30
123	30
124	10
125	449
126	229
127	9999
128	779
129	30
143	10
144	20
162	10
205	20
206	519
207	60
208	519
209	40
