Mass Spectrum: Benzamide, 2,5-difluoro-
Formula: C7 H5 F2 N O
CAS: 85118-03-2
Molecular weight: 157
Origin: NIST Mass Spectrometry Data Center, 1994
m/z	RELATIVE INTENSITY
16	364
18	7
25	34
26	66
27	57
33	41
36	69
37	443
38	251
39	146
40	30
43	192
44	3069
45	134
46	33
49	204
50	884
51	261
52	114
53	55
55	97
56	366
57	768
58	50
60	53
61	668
62	1063
63	4497
64	390
67	32
68	733
69	427
70	168
72	32
73	212
74	731
75	458
76	83
77	46
78	31
79	51
80	129
81	560
82	148
83	94
86	153
87	248
88	386
89	41
92	362
93	710
94	544
95	86
99	52
100	102
101	345
102	35
108	131
109	53
110	90
111	98
112	35
113	6899
114	1310
115	63
120	105
128	53
137	56
138	25
139	279
140	25
141	9999
142	819
143	53
157	7185
158	585
159	22
