Mass Spectrum: Benzamide, 3,4-fluoro-
Formula: C7 H5 F2 N O
CAS: 85118-04-3
Molecular weight: 157
Origin: Japan AIST/NIMC Database- Spectrum MS-NW-9582
m/z	RELATIVE INTENSITY
28	70
31	90
37	60
38	40
39	40
44	599
45	20
49	20
50	149
51	40
52	20
53	10
55	10
56	50
57	109
61	109
62	279
63	1349
64	90
65	339
68	159
69	90
70	30
71	70
73	30
74	139
75	119
76	10
79	10
80	30
81	109
82	20
83	20
86	10
87	70
88	109
92	60
93	219
94	109
95	30
99	10
100	20
101	109
102	10
108	20
110	10
111	30
112	239
113	6349
114	679
115	30
120	10
121	10
122	10
123	20
128	60
129	10
131	10
138	10
139	80
140	99
141	9999
142	769
143	40
157	8459
158	719
159	40
