Mass Spectrum: 2-Acetyl-1-pyrroline
Formula: C6 H9 N O
CAS: 85213-22-5
Molecular weight: 111
Origin: P.Scieberle ET AL. J.Agr.Food.Chem.,35,252(1987)
m/z	RELATIVE INTENSITY
37	230
38	120
39	1101
41	5355
42	2422
43	9999
44	1081
45	110
52	110
53	90
55	230
66	140
67	90
68	901
69	941
82	110
83	1331
94	70
111	510
