Mass Spectrum: cis-Bicyclo[4.3.0]-3-nonene
Formula: C9 H14
CAS: 85236-78-8
Molecular weight: 122
Origin: F. TURECEK,HEYROVSKY INST PHYS CHEM & ELECTROCHEM,PRAGUE,CZECH
m/z	RELATIVE INTENSITY
27	1600
29	800
39	4700
40	500
41	3600
42	600
43	600
50	300
51	800
52	300
53	2200
54	2700
55	1100
56	300
57	600
62	200
63	300
65	1100
66	1100
67	8200
68	5200
69	500
70	300
77	2300
78	900
79	7100
80	9999
81	7600
82	700
83	400
91	1300
92	600
93	7100
94	5400
95	700
96	400
97	200
105	400
107	1700
108	400
109	200
121	400
122	6900
123	900
