Mass Spectrum: 1,2-Dimethoxy-3,4,6-trichloro-benzene
Formula: C8 H7 Cl3 O2
CAS: 85298-07-3
Molecular weight: 240
Origin: ASES Database, Dalian Institute, P.R. China
m/z	RELATIVE INTENSITY
51	100
53	400
61	500
77	690
84	1090
96	610
97	490
109	810
118	100
119	1301
121	480
131	790
133	2091
134	90
143	390
145	490
147	1601
154	590
161	1891
162	4784
163	1301
164	3292
166	1491
167	500
169	400
175	590
179	390
182	2492
184	2292
186	690
194	190
197	1281
199	1090
225	8898
227	8517
229	2592
240	9999
242	9298
244	3002
