Mass Spectrum: Ethanone, 1-(4-methoxyphenyl)-, (2,4-dinitrophenyl)hydrazone
Formula: C15 H14 N4 O5
CAS: 854-04-6
Molecular weight: 330
m/z	RELATIVE INTENSITY
38	300
39	701
40	100
41	500
42	500
43	3003
44	601
50	500
51	1201
52	300
53	200
62	300
63	1301
64	1201
65	1501
66	300
74	200
75	500
76	701
77	4504
78	500
79	1301
80	100
89	500
90	1001
91	1802
92	2502
93	300
101	200
102	400
103	701
104	500
105	701
106	300
107	2002
108	500
115	300
118	500
119	1301
120	200
121	500
122	200
132	200
133	9809
134	2502
135	2702
136	200
148	4304
149	1201
150	1001
151	3003
152	701
153	400
154	400
155	200
164	300
165	1501
166	701
167	300
168	200
176	300
177	200
178	500
179	300
180	300
181	300
182	300
193	300
194	1201
195	500
196	701
197	100
205	200
206	200
207	400
208	500
209	300
210	300
211	300
221	300
222	701
223	400
224	200
235	300
236	200
237	601
238	300
239	300
240	300
242	300
252	400
253	500
254	200
266	200
267	200
268	500
269	300
270	200
295	400
296	200
300	300
329	1001
330	9999
331	2002
332	200
