Mass Spectrum: 2-Methylcyclosarin
Formula: C8 H16 F O2 P
CAS: 85473-32-1
Molecular weight: 194
Origin: VERIFINN
m/z	RELATIVE INTENSITY
26	120
27	1311
28	280
29	1121
39	1591
40	320
41	1832
42	380
43	280
47	300
53	791
54	1241
55	2642
56	210
57	290
65	230
66	350
67	2943
68	2502
69	270
77	240
78	90
79	601
80	90
81	9999
82	440
91	100
95	651
96	5345
97	631
98	220
99	9879
101	100
125	540
137	260
151	60
