Mass Spectrum: Decanoic acid, 3-hexenyl ester, (Z)-
Formula: C16 H30 O2
CAS: 85554-69-4
Molecular weight: 254
Origin: W.Jennings, T.Shibamoto
m/z	RELATIVE INTENSITY
41	70
43	1091
54	280
55	2692
56	70
57	1291
60	70
66	70
67	7597
68	681
69	280
71	1481
73	70
81	791
82	9999
83	3823
84	190
85	791
86	280
87	70
95	390
114	190
129	70
137	70
155	2092
156	190
172	70
173	190
