Mass Spectrum: Octanoic acid, 2-hexenyl ester, (E)-
Formula: C14 H26 O2
CAS: 85554-72-9
Molecular weight: 226
Origin: W.Jennings, T.Shibamoto
m/z	RELATIVE INTENSITY
26	791
28	70
29	280
31	70
33	190
37	390
39	190
41	1792
42	190
43	2292
44	70
53	70
54	681
55	5515
56	591
57	9999
58	591
59	190
60	480
61	70
65	190
66	70
67	3683
68	190
69	280
70	70
71	390
73	190
81	390
82	4314
83	3323
84	591
85	190
87	70
91	1892
92	1291
93	70
94	190
96	70
97	480
98	190
99	480
100	480
101	190
109	480
122	480
125	390
127	7086
128	791
142	70
143	70
144	70
145	70
155	280
197	190
226	190
