Mass Spectrum: Methyl 4,4,4-trifluorocrotonate
Formula: C5 H5 F3 O2
CAS: 85694-31-1
Molecular weight: 154
Origin: NIST Mass Spectrometry Data Center, 1994
m/z	RELATIVE INTENSITY
12	54
13	126
14	336
15	3111
16	28
20	41
24	38
25	224
26	1286
27	200
28	77
29	1513
30	291
31	1716
33	98
36	28
37	105
38	84
39	111
41	118
42	76
43	33
44	158
45	441
46	30
47	22
50	164
51	376
53	709
54	216
55	278
56	220
57	154
58	22
59	834
60	27
63	65
64	66
69	6243
70	83
71	72
72	27
73	658
74	163
75	1850
76	878
77	123
81	19
83	25
85	5040
86	241
87	31
90	286
91	93
93	63
95	3622
96	137
101	284
102	29
103	90
104	240
105	20
106	20
107	992
108	47
109	16
121	32
123	9999
124	459
125	36
135	398
136	25
