Mass Spectrum: 13-Tetradecenal
Formula: C14 H26 O
CAS: 85896-31-7
Molecular weight: 210
Origin: T. Jones, LC, NHLBI, NIH, Bethesda, MD 20892
m/z	RELATIVE INTENSITY
41	7576
42	1775
43	4043
44	2099
45	357
46	24
47	30
48	21
49	102
50	49
51	180
52	109
53	1258
54	3105
55	9999
56	2534
57	3927
58	456
59	165
60	13
61	8
62	11
63	28
64	13
65	299
66	556
67	6095
68	4058
69	5964
70	3048
71	1468
72	562
73	133
74	15
75	11
76	4
77	213
78	167
79	1765
80	1530
81	5478
82	4452
83	4205
84	2542
85	923
86	392
87	63
88	16
89	9
91	166
92	86
93	1499
94	1377
95	3707
96	3098
97	3260
98	4105
99	486
100	128
101	25
102	8
103	10
104	9
105	46
107	935
108	849
109	1356
110	1630
111	2041
112	1163
113	160
114	112
115	25
116	9
117	11
118	3
119	21
120	38
121	2006
122	633
123	475
124	596
125	570
126	208
127	61
128	87
129	19
130	4
131	14
132	5
133	23
134	38
135	995
136	355
137	207
138	252
139	225
140	96
141	42
142	30
143	10
144	6
145	8
146	6
147	17
149	411
150	174
151	91
152	32
153	143
154	82
155	31
156	12
157	9
158	7
159	9
160	6
161	10
162	3
163	233
164	105
165	36
166	216
167	156
168	50
169	20
170	11
171	7
172	2
173	9
174	2
175	8
176	8
177	32
178	8
179	52
180	14
181	83
182	32
183	7
184	4
185	6
186	8
187	6
188	9
189	7
190	7
191	11
192	141
193	26
194	10
195	27
196	8
197	6
198	2
199	6
200	5
201	6
202	7
203	3
204	7
205	5
206	3
207	14
208	11
209	13
210	29
211	9
212	6
213	4
