Mass Spectrum: 2-Chloro-4-fluorobenzenesulphonyl chloride
Formula: C6 H3 Cl2 F O2 S
CAS: 85958-57-2
Molecular weight: 228
Origin: NIST Mass Spectrometry Data Center, 1994
m/z	RELATIVE INTENSITY
12	43
16	226
18	50
20	29
25	61
26	114
31	717
32	137
33	80
34	29
35	874
36	386
37	1006
38	534
39	173
44	202
45	257
47	228
48	2404
49	584
50	2845
51	272
53	78
55	100
56	357
57	876
58	54
60	155
61	928
62	835
63	1537
64	1484
65	154
66	129
67	335
68	1989
69	1456
70	204
71	116
72	243
73	876
74	2696
75	1083
76	93
79	212
80	140
81	690
82	440
83	329
84	482
85	301
86	163
87	204
88	85
89	42
90	69
91	407
92	744
93	3811
94	3230
95	662
96	221
97	172
99	159
100	67
101	51
102	131
103	290
104	93
105	260
106	50
107	89
108	50
109	2876
110	289
111	1004
112	73
113	175
114	130
115	48
116	48
117	1074
118	88
119	324
125	51
126	379
127	141
128	48
129	9944
130	1247
131	3178
132	389
133	49
145	3036
146	249
147	1009
148	90
149	246
151	94
160	68
161	57
162	104
163	57
164	380
166	219
168	51
177	205
178	39
179	96
193	9999
194	719
195	3720
196	252
197	154
228	2060
229	193
230	1402
231	101
232	270
