Mass Spectrum: o-Methoxybenzoic acid, 2-chlorophenyl ester
Formula: C14 H11 Cl O3
CAS: 85965-92-0
Molecular weight: 262
Origin: Zaikin V.G., TIPS RAS, Moscow, Russia
m/z	RELATIVE INTENSITY
28	10
38	30
39	40
50	60
51	130
62	30
63	200
64	220
73	70
75	50
76	90
77	1111
78	90
79	70
92	621
93	40
99	110
101	30
105	70
120	130
128	40
135	9999
136	711
137	60
