Mass Spectrum: Benztropine
Formula: C21 H25 N O
CAS: 86-13-5
Molecular weight: 307
Origin: Japan AIST/NIMC Database- Spectrum MS-NW-9102
m/z	RELATIVE INTENSITY
14	20
15	709
16	10
26	10
27	80
28	279
29	109
30	159
31	439
32	169
33	10
34	10
39	139
40	20
41	309
42	1199
43	159
44	229
45	30
46	10
48	149
49	20
50	40
51	139
52	30
53	60
54	80
55	339
56	199
57	249
58	80
62	10
63	50
64	90
65	259
66	60
67	689
68	249
69	109
70	179
71	30
74	10
75	10
76	30
77	379
78	469
79	929
80	80
81	509
82	5529
83	8719
84	1699
85	90
86	10
89	40
90	10
91	99
92	10
93	70
94	289
95	139
96	2229
97	1709
98	609
99	40
100	80
101	20
102	10
105	299
106	40
107	30
108	30
109	20
110	359
111	40
112	169
113	30
114	10
115	90
122	119
123	40
124	2809
125	2179
126	219
127	20
128	60
129	10
138	10
139	60
140	9999
141	979
142	70
149	10
151	40
152	449
153	90
154	20
155	20
163	30
164	50
165	739
166	289
167	1059
168	259
169	20
172	169
173	60
181	20
182	60
183	20
184	50
200	30
201	2329
202	369
203	20
216	189
217	30
306	60
307	689
308	169
309	20
