Mass Spectrum: Thiambutene
Formula: C16 H21 N S2
CAS: 86-14-6
Molecular weight: 291
Origin: Finnigan MAT: Toxicological Library (LIBR-TX)
m/z	RELATIVE INTENSITY
42	2046
44	927
45	906
56	728
69	297
70	830
72	311
77	432
91	571
97	1138
100	1019
109	398
111	4969
112	606
121	295
134	506
135	581
171	502
179	290
186	312
192	302
203	301
219	3077
220	501
221	307
262	388
276	9999
277	1820
278	905
291	394
292	98
