Mass Spectrum: 9H-Carbazole, 9-ethyl-
Formula: C14 H13 N
CAS: 86-28-2
Molecular weight: 195
Origin: Japan AIST/NIMC Database- Spectrum MS-NW-2424
m/z	RELATIVE INTENSITY
14	189
15	60
26	10
27	99
28	20
29	40
38	20
39	159
40	109
41	30
43	30
44	30
50	80
51	119
52	30
53	10
55	20
56	10
57	50
61	20
62	90
63	229
64	40
65	30
69	40
70	10
71	30
74	90
75	149
76	159
77	139
78	10
81	10
82	40
83	80
84	10
85	20
86	60
87	90
88	70
89	109
90	159
91	10
95	40
96	20
97	239
98	60
99	30
100	20
101	50
102	30
103	10
109	10
110	10
111	20
112	20
113	119
114	70
115	119
116	70
117	10
125	20
126	60
127	129
128	40
137	50
138	90
139	369
140	489
141	60
142	10
149	10
150	70
151	339
152	1269
153	359
154	50
163	20
164	169
165	129
166	659
167	379
168	70
169	10
176	20
177	70
178	239
179	259
180	9999
181	1439
182	99
190	30
191	80
192	129
193	169
194	299
195	5019
196	789
197	50
