Mass Spectrum: Brompheniramine
Formula: C16 H19 Br N2
CAS: 86-22-6
Molecular weight: 318
Origin: Virginia Division of Forensic Science
m/z	RELATIVE INTENSITY
15	100
16	10
24	10
26	20
27	110
28	20
29	130
30	490
31	10
38	20
39	160
40	20
41	120
42	1321
43	370
44	210
45	20
46	10
50	200
51	450
52	230
53	60
54	40
56	480
58	6365
59	260
60	10
61	10
62	80
63	240
64	70
65	100
66	20
67	10
68	10
70	150
71	290
72	1941
73	100
74	90
75	190
76	180
77	360
78	460
79	200
80	60
81	20
83	20
84	90
86	30
87	80
88	90
89	260
90	180
91	100
92	50
93	150
94	20
96	10
97	20
98	10
99	20
100	20
101	90
102	210
103	260
104	120
105	20
106	60
107	10
110	10
111	10
112	10
113	110
114	140
115	370
116	160
117	270
118	210
119	60
121	30
122	10
124	10
125	10
126	50
127	70
128	80
129	30
130	50
131	20
132	10
133	10
134	10
135	10
137	20
139	490
140	350
141	140
142	30
143	30
144	10
150	20
151	80
152	200
153	90
154	70
155	30
156	10
163	20
164	90
165	200
166	910
167	3693
168	2001
169	340
170	20
171	70
172	10
175	10
178	170
179	160
180	1020
181	330
182	120
183	20
184	90
185	10
190	10
191	70
192	90
193	110
194	100
195	40
196	10
245	190
246	1611
247	9999
248	2812
249	9488
250	1261
251	60
252	10
258	70
260	230
261	40
262	170
263	20
271	10
272	30
273	20
274	150
275	20
276	120
277	10
301	10
303	10
305	10
318	10
320	10
