Mass Spectrum: Amodiaquine
Formula: C20 H22 Cl N3 O
CAS: 86-42-0
Molecular weight: 355
Origin: R.E.Ardrey ET AL.Pharmaceutical Mass Spectra,L.,1985
m/z	RELATIVE INTENSITY
27	601
28	1301
29	1101
30	6606
39	100
41	200
42	500
43	200
44	2502
51	100
56	300
58	9999
59	300
72	2302
73	2803
74	1702
75	100
77	100
86	200
95	100
99	200
109	100
124	100
127	100
135	200
162	100
163	100
170	400
171	200
177	100
190	100
191	100
205	100
216	100
217	200
218	1201
219	601
220	200
227	100
228	100
229	100
234	100
239	200
246	100
247	500
248	300
253	1601
254	1101
255	601
256	300
268	100
270	200
282	7006
283	2502
284	3703
285	1001
286	400
355	3203
356	801
357	1101
358	200
