Mass Spectrum: Hydralazine
Formula: C8 H8 N4
CAS: 86-54-4
Molecular weight: 160
Origin: Japan AIST/NIMC Database- Spectrum MS-NW-3557
m/z	RELATIVE INTENSITY
14	10
16	80
17	99
18	40
26	60
27	139
28	1079
29	159
30	50
31	179
32	90
39	479
40	50
41	40
42	20
43	50
44	10
48	10
49	80
50	739
51	619
52	249
53	60
54	10
55	10
57	20
58	30
60	10
61	129
62	409
63	689
64	269
65	169
66	20
67	10
72	10
73	60
74	289
75	589
76	1279
77	839
78	169
79	60
80	149
85	20
86	50
87	119
88	789
89	1539
90	299
91	60
98	20
99	40
100	50
101	129
102	569
103	3799
104	1189
105	159
106	20
113	10
114	629
115	2209
116	349
117	139
118	30
128	399
129	789
130	1329
131	2499
132	289
133	40
143	10
144	20
145	199
146	30
159	279
160	9999
161	1049
162	50
