Mass Spectrum: 1-Naphthalenamine, N,N-dimethyl-
Formula: C12 H13 N
CAS: 86-56-6
Molecular weight: 171
Origin: Japan AIST/NIMC Database- Spectrum MS-NW-2731
m/z	RELATIVE INTENSITY
14	10
15	119
26	10
27	50
28	109
29	10
37	10
38	40
39	139
40	10
41	30
42	1759
43	80
44	169
49	10
50	159
51	299
52	40
53	10
56	30
57	10
58	229
61	40
62	109
63	349
64	319
65	80
66	10
70	10
71	40
72	60
73	10
74	169
75	249
76	129
77	519
78	99
79	10
83	169
84	269
85	249
86	70
87	99
88	60
89	129
90	30
91	20
98	50
99	50
100	40
101	259
102	169
103	40
104	10
111	10
113	99
114	90
115	559
116	80
117	30
122	10
125	40
126	479
127	1669
128	2519
129	1239
130	169
131	40
139	40
140	199
141	269
142	99
143	40
144	99
145	10
152	20
153	80
154	1579
155	849
156	529
157	99
158	10
166	20
167	80
168	709
169	429
170	7479
171	9999
172	1279
173	80
