Mass Spectrum: 1-Naphthalenecarbonitrile
Formula: C11 H7 N
CAS: 86-53-3
Molecular weight: 153
Origin: Japan AIST/NIMC Database- Spectrum MS-NW-5958
m/z	RELATIVE INTENSITY
26	20
27	40
28	10
37	50
38	80
39	179
40	20
44	10
49	40
50	419
51	319
52	99
53	10
55	10
60	10
61	129
62	249
63	759
64	70
65	20
73	50
74	409
75	429
76	509
77	239
78	50
84	10
85	50
86	109
87	139
88	70
89	40
97	20
98	129
99	259
100	259
101	169
102	149
103	80
104	10
110	20
111	30
112	30
113	20
114	30
115	10
121	10
122	20
123	40
124	70
125	369
126	1509
127	539
128	50
138	10
150	10
151	209
152	559
153	9999
154	1319
155	80
