Mass Spectrum: Fluorene
Formula: C13 H10
CAS: 86-73-7
Molecular weight: 166
Origin: Japan AIST/NIMC Database- Spectrum MS-NW-1806
m/z	RELATIVE INTENSITY
14	10
26	10
27	60
28	10
37	20
38	60
39	299
40	10
41	10
44	20
50	199
51	229
52	40
55	40
56	30
61	60
62	269
63	599
64	70
65	90
67	20
68	40
69	599
70	80
73	20
74	269
75	209
76	90
77	50
81	469
82	1239
83	799
84	10
85	60
86	209
87	289
88	99
89	249
90	20
91	20
97	10
98	109
99	70
100	30
101	20
102	30
109	20
110	70
111	80
112	30
113	199
114	50
115	459
116	40
122	20
123	10
126	70
127	20
128	10
134	10
135	10
137	119
138	109
139	809
140	99
141	10
150	20
161	40
162	149
163	1179
164	989
165	8449
166	9999
167	1409
168	249
169	20
