Mass Spectrum: 1,5-Pentanediamine, N-(6-methoxy-8-quinolinyl)-N'-(1-methylethyl)-
Formula: C18 H27 N3 O
CAS: 86-78-2
Molecular weight: 301
Origin: Finnigan MAT: Toxicological Library (LIBR-TX)
m/z	RELATIVE INTENSITY
41	1066
44	755
56	703
57	290
58	678
70	277
72	2430
84	1358
86	300
98	300
112	2671
116	416
117	301
126	3566
127	310
130	302
131	300
143	723
144	1879
145	578
158	402
159	911
160	302
173	484
174	4022
175	2863
186	823
187	9999
188	1266
199	390
201	1184
213	606
227	603
229	289
230	288
241	5113
242	4706
243	1207
286	293
301	2793
302	507
