Mass Spectrum: Quinoline, 4,7-dichloro-
Formula: C9 H5 Cl2 N
CAS: 86-98-6
Molecular weight: 197
Origin: NIST Mass Spectrometry Data Center, 1998.
m/z	RELATIVE INTENSITY
25	10
26	30
27	20
28	30
35	30
36	20
37	150
38	130
39	50
40	10
43	10
47	50
48	30
49	310
50	840
51	370
52	110
53	10
54	10
55	10
60	100
61	380
62	520
63	420
65	10
67	220
68	120
71	20
72	110
73	350
74	1250
75	910
76	310
77	40
78	10
81	350
82	120
84	160
85	980
86	660
87	290
88	70
89	10
95	10
96	50
97	200
98	770
99	2450
100	910
101	120
102	30
107	20
108	100
109	230
110	100
111	130
112	50
113	30
114	10
119	10
120	10
121	40
122	20
123	90
124	140
125	70
126	1090
127	1390
128	130
129	10
131	10
132	10
133	120
134	150
135	1190
136	180
137	390
138	40
159	10
160	50
161	330
162	5909
163	710
164	1930
165	190
166	10
169	30
170	60
171	30
172	40
173	10
174	10
197	9999
198	1090
199	6469
200	670
201	1070
202	110
203	10
