Mass Spectrum: 1H-Tetrazole-5-thiol, 1-phenyl-
Formula: C7 H6 N4 S
CAS: 86-93-1
Molecular weight: 178
Origin: Japan AIST/NIMC Database- Spectrum MS-NW-8194
m/z	RELATIVE INTENSITY
14	10
15	10
26	60
27	249
28	499
29	40
30	10
32	109
33	30
34	60
36	40
37	169
38	419
39	739
40	109
41	179
42	10
43	109
44	139
45	119
46	199
47	279
48	10
49	50
50	599
51	2169
52	329
53	80
54	20
55	10
57	10
58	30
59	109
60	40
61	80
62	169
63	679
64	1169
65	839
66	90
67	50
69	80
70	50
71	20
73	30
74	149
75	329
76	299
77	5579
78	449
79	60
80	10
81	10
82	30
83	20
84	30
86	10
87	10
88	30
89	20
90	169
91	1589
92	169
93	40
94	10
95	30
96	289
97	50
98	20
101	10
102	10
103	90
104	849
105	139
106	40
107	20
108	119
109	129
110	30
117	359
118	1279
119	109
120	10
121	20
122	129
123	899
124	80
125	40
134	40
135	7939
136	719
137	379
138	30
142	10
149	50
150	259
151	20
152	10
176	10
177	20
178	9999
179	1019
180	489
181	40
