Mass Spectrum: Melibiose, octakis(trimethylsilyl)-
Formula: C36 H86 O11 Si8
CAS: 86087-85-6
Molecular weight: 918
Origin: O A MAMER, MCGILL UNIVERSITY, MONTRE
m/z	RELATIVE INTENSITY
11	18
13	28
14	123
15	325
16	66
25	20
26	57
27	45
28	125
29	28
30	16
31	21
39	34
40	11
41	58
42	13
43	63
44	55
45	222
46	18
47	67
50	16
51	5
52	5
53	44
54	56
55	74
56	3
58	42
59	155
60	20
61	48
66	29
67	18
68	10
69	58
72	99
73	8351
74	711
75	745
76	50
77	30
78	15
79	5
81	64
82	8
83	1
85	20
87	29
88	18
89	59
91	11
99	43
101	141
102	32
103	1147
104	112
105	48
109	10
113	71
114	19
115	70
116	102
117	385
118	47
119	38
125	1
127	36
128	20
129	2068
130	267
131	233
132	37
133	257
134	48
135	21
141	32
142	50
143	168
144	26
145	186
146	35
147	1655
148	253
149	211
150	30
151	21
153	15
155	82
156	20
157	149
158	24
159	35
161	85
163	35
169	272
170	47
171	47
173	44
174	15
175	61
176	19
177	36
183	23
187	28
189	270
190	93
191	2951
192	534
193	240
194	35
195	15
197	5
199	22
201	21
203	160
204	9999
205	2089
206	894
207	23
208	1
215	37
217	2156
218	544
219	259
220	48
221	35
222	8
223	6
229	66
230	71
231	188
232	49
233	67
234	17
241	18
243	262
244	74
245	95
246	27
247	82
248	18
257	22
259	48
263	30
265	36
271	187
272	50
273	31
278	16
279	17
289	21
291	121
292	34
293	25
304	20
305	217
306	89
307	46
317	87
318	46
319	153
320	49
321	34
331	89
332	55
333	47
334	15
343	1
345	27
361	776
362	251
363	129
364	28
393	19
407	16
435	36
451	195
452	81
453	45
569	92
570	47
571	25
583	64
584	31
585	16
