Mass Spectrum: Methane, nitroso-
Formula: C H3 N O
CAS: 865-40-7
Molecular weight: 45
Origin: DC-16-9
m/z	RELATIVE INTENSITY
13	300
14	801
15	3403
16	400
26	200
27	1301
28	2002
29	400
30	9999
31	100
42	500
43	1001
44	701
45	7006
46	801
47	100
