Mass Spectrum: 2-Pentanone, 3,3,4,4-tetramethyl-
Formula: C9 H18 O
CAS: 865-66-7
Molecular weight: 142
Origin: CARL DJERASSI DEPT OF CHEM STANFORD UNIV STANFORD CALIF 94305
m/z	RELATIVE INTENSITY
27	400
28	1400
29	1000
32	200
39	600
40	100
41	2200
42	100
43	5300
44	100
53	100
55	500
56	100
57	9999
58	500
67	100
69	200
71	2700
72	100
83	200
85	100
86	4100
87	200
99	1900
100	100
127	160
128	13
142	10
