Mass Spectrum: 2- Chloropropionic acid, decyl ester
Formula: C13 H25 Cl O2
CAS: 86711-78-6
Molecular weight: 248
Origin: Zaikin V.G., TIPS RAS, Moscow, Russia
m/z	RELATIVE INTENSITY
25	20
26	280
27	2192
28	20
29	2542
30	50
31	180
35	90
36	540
37	50
38	220
39	1091
40	260
41	6306
42	2602
43	9999
44	450
45	140
50	40
51	70
52	60
53	450
54	831
55	7837
56	6956
57	9318
58	400
61	40
62	110
63	3083
64	150
65	1011
66	100
67	941
68	1902
69	5345
70	6196
71	4114
72	230
73	250
74	290
75	160
77	60
78	30
79	180
81	390
82	2212
83	5425
84	3523
85	3673
86	220
90	60
91	1041
92	60
93	350
95	170
96	651
97	3433
98	1772
99	450
100	30
108	350
109	2722
110	420
111	2382
112	2913
113	240
121	30
125	30
135	30
138	70
139	30
140	1281
141	140
149	60
157	30
185	270
