Mass Spectrum: 2- Bromopropionic acid, pentyl ester
Formula: C8 H15 Br O2
CAS: 86711-73-1
Molecular weight: 222
Origin: Zaikin V.G., TIPS RAS, Moscow, Russia
m/z	RELATIVE INTENSITY
26	340
27	2352
28	20
29	1802
30	50
31	160
35	50
36	330
37	30
38	130
39	801
40	190
41	2592
42	2632
43	9999
44	480
45	160
50	60
51	90
52	130
53	190
54	110
55	3513
56	1321
57	701
58	50
67	60
68	70
69	761
70	8968
71	2752
72	140
73	220
74	170
75	80
78	20
79	220
80	80
81	40
82	70
85	60
87	80
97	80
106	40
107	1621
108	100
109	1541
110	50
115	150
134	30
135	1011
136	60
137	1021
138	20
153	1071
154	40
155	1041
165	30
167	40
