Mass Spectrum: 3,4-Diethyl-3-hexene
Formula: C10 H20
CAS: 868-46-2
Molecular weight: 140
Origin: NIST Mass Spectrometry Data Center, 1990.
m/z	RELATIVE INTENSITY
26	60
27	641
28	219
29	677
39	923
41	2637
42	201
43	464
44	37
50	57
51	216
52	110
53	657
54	37
55	3365
56	198
57	212
63	65
65	265
66	114
67	931
68	65
69	9999
70	700
71	57
77	293
78	60
79	354
80	54
81	433
82	82
83	425
84	89
91	91
93	41
95	118
96	44
97	86
98	89
109	32
111	2379
112	301
140	1156
141	110
