Mass Spectrum: Dimethyl 2,2'-dibromoadipate
Formula: C8 H12 Br2 O4
CAS: 868-72-4
Molecular weight: 330
Origin: NIST Mass Spectrometry Data Center, 1994
m/z	RELATIVE INTENSITY
12	9
13	72
15	9521
18	14
26	1416
27	8709
29	2128
30	474
31	782
33	104
37	121
38	377
39	2449
40	112
41	1872
42	707
43	743
44	36
45	865
49	80
50	616
51	1591
52	684
53	5162
54	765
55	7878
56	410
57	190
58	36
59	9999
60	205
61	83
65	156
66	74
67	419
68	452
69	550
70	92
71	1337
72	134
75	87
79	493
80	472
81	1604
82	452
83	430
84	427
85	484
86	87
87	913
93	225
94	126
95	378
96	130
97	426
99	129
101	1298
102	118
105	395
106	1451
107	882
108	1857
109	808
110	118
111	5862
112	1183
113	1058
114	128
119	350
120	259
121	401
122	192
123	277
125	242
129	287
131	543
132	174
133	1049
134	187
135	533
136	49
137	194
138	49
139	7878
140	774
141	201
149	970
151	1010
152	409
153	93
154	291
159	592
160	85
161	737
162	102
163	277
164	87
165	478
167	236
171	184
179	99
181	101
187	847
188	124
189	896
190	99
191	2209
192	255
193	1998
194	191
211	193
213	354
215	183
219	5405
220	586
221	5011
222	552
223	81
239	94
241	194
243	97
251	79
253	112
269	219
270	2048
271	483
272	4224
273	858
274	2326
275	348
298	1987
299	441
300	4122
301	909
302	2215
303	401
