Mass Spectrum: Butanoic acid, 2-methyl-, methyl ester
Formula: C6 H12 O2
CAS: 868-57-5
Molecular weight: 116
Origin: Japan AIST/NIMC Database- Spectrum MS-NW-1204
m/z	RELATIVE INTENSITY
14	40
15	1649
16	20
18	20
25	10
26	289
27	1889
28	919
29	5019
30	129
31	259
32	99
33	70
37	40
38	90
39	1159
40	159
41	5279
42	349
43	359
44	60
45	179
49	10
50	60
51	80
52	40
53	179
54	60
55	739
56	1779
57	9999
58	479
59	1909
60	109
61	159
62	10
63	50
65	20
67	10
68	10
69	789
70	40
71	40
73	189
74	649
75	30
83	40
84	40
85	3139
86	169
87	709
88	9429
89	439
90	50
99	10
101	2399
102	149
103	20
115	30
116	90
117	10
