Mass Spectrum: Dimethyl phosphite
Formula: C2 H7 O3 P
CAS: 868-85-9
Molecular weight: 110
Origin: Japan AIST/NIMC Database- Spectrum MS-NW- 989
m/z	RELATIVE INTENSITY
13	20
15	1799
17	20
18	119
28	339
29	659
30	119
31	1419
32	189
33	80
44	20
45	70
46	10
47	2959
48	319
49	709
50	70
51	60
58	20
62	40
63	90
64	50
65	579
72	20
73	40
77	209
78	109
79	9069
80	9999
81	209
82	40
93	119
94	10
95	1429
96	20
97	10
109	669
110	549
111	30
