Mass Spectrum: Carbonodithioic acid, S,S-dimethyl ester
Formula: C3 H6 O S2
CAS: 868-84-8
Molecular weight: 122
Origin: James Little,Eastman Chem.Co.,Kingsport,TN
m/z	RELATIVE INTENSITY
27	120
29	140
44	400
45	3673
46	1571
47	5875
48	430
49	360
60	340
61	490
62	70
64	230
75	9999
76	390
77	450
79	851
81	100
94	3453
95	160
96	350
122	4454
123	240
124	460
