Mass Spectrum: 3,3'-Bis(trifluoromethyl)diphenylmethane
Formula: C15 H10 F6
CAS: 86845-35-4
Molecular weight: 304
Origin: NIST Mass Spectrometry Data Center
m/z	RELATIVE INTENSITY
12	20
15	20
27	70
37	20
38	100
39	440
40	40
50	380
51	380
52	30
57	190
61	40
62	230
63	510
64	80
65	60
69	701
70	30
74	170
75	480
76	130
77	110
78	20
81	140
82	190
83	250
84	20
85	40
86	90
87	170
88	180
89	410
90	100
91	80
92	40
93	40
94	130
95	310
96	70
97	70
98	80
99	230
100	70
101	80
102	40
103	40
105	40
106	70
107	540
108	320
109	881
110	110
111	40
112	50
113	150
114	160
115	90
116	80
117	30
119	420
120	110
122	20
123	30
125	210
126	100
127	130
128	20
132	130
133	130
137	90
138	200
139	250
140	90
143	40
144	40
145	110
146	40
151	150
152	50
156	30
157	120
158	260
159	1151
160	130
161	30
162	50
163	190
164	290
165	2682
166	2162
167	270
168	40
169	90
170	70
171	20
175	100
176	30
177	40
181	80
182	160
183	350
184	70
186	30
187	50
188	90
192	20
193	90
194	110
195	270
196	210
197	30
199	20
200	30
201	150
202	30
206	50
207	70
209	40
211	20
212	100
213	90
214	1181
215	2572
216	420
217	50
219	50
220	70
225	30
231	30
232	260
233	931
234	601
235	9749
236	1601
237	120
243	60
245	50
250	30
251	70
261	20
263	240
264	480
265	190
269	40
281	40
282	120
283	831
284	230
285	2342
286	470
287	40
301	100
303	931
304	9999
305	1842
306	140
