Mass Spectrum: 2-Propene-1,1-diol, diacetate
Formula: C7 H10 O4
CAS: 869-29-4
Molecular weight: 158
Origin: Japan AIST/NIMC Database- Spectrum MS-NW-8372
m/z	RELATIVE INTENSITY
15	449
18	10
26	99
27	369
28	269
29	189
30	10
31	30
37	10
38	20
39	90
40	10
41	30
42	269
43	9999
44	249
45	70
55	1049
56	229
57	379
58	10
60	20
61	139
70	20
71	10
73	80
74	10
86	10
87	20
88	10
98	109
99	1069
100	70
101	10
103	70
115	309
116	199
117	10
