Mass Spectrum: 4-Methyl-7-ethoxycoumarin
Formula: C12 H12 O3
CAS: 87-05-8
Molecular weight: 204
Origin: NIST Mass Spectrometry Data Center, 1994
m/z	RELATIVE INTENSITY
13	13
14	9
15	82
16	1
17	6
18	6
26	198
27	982
28	70
29	924
30	28
37	33
38	153
39	614
40	64
41	145
42	38
43	110
46	20
50	326
51	709
52	242
53	165
54	23
55	76
61	51
62	232
63	516
64	158
65	933
66	104
67	60
68	23
69	347
70	16
73	17
74	141
75	161
76	209
77	617
78	181
79	182
80	57
81	26
85	17
86	42
87	73
88	47
89	331
90	186
91	1351
92	180
93	56
94	73
95	16
98	22
99	9
101	55
102	160
103	315
104	63
105	127
106	35
107	38
108	12
109	11
115	29
116	11
117	26
118	92
119	524
120	640
121	66
129	17
131	208
132	52
133	30
134	21
135	22
137	31
145	28
147	3639
148	9999
149	994
150	98
159	48
160	20
161	34
176	2522
177	292
178	26
189	18
204	7745
205	1015
206	66
207	2
