Mass Spectrum: Salicylanilide
Formula: C13 H11 N O2
CAS: 87-17-2
Molecular weight: 213
Origin: NIST Mass Spectrometry Data Center, 1998.
m/z	RELATIVE INTENSITY
26	10
27	40
28	30
29	10
37	40
38	170
39	1160
40	90
41	40
42	10
43	10
44	10
46	10
49	10
50	140
51	350
52	110
53	250
54	40
55	20
61	40
62	130
63	530
64	440
65	2430
66	590
67	70
68	10
69	10
70	10
73	10
74	50
75	60
76	50
77	320
78	50
79	10
80	10
82	10
83	10
87	10
88	10
89	20
90	30
91	120
92	640
93	9999
94	780
95	30
101	10
102	20
103	10
104	10
105	20
106	30
113	10
114	10
115	30
116	10
117	10
119	40
120	120
121	3360
122	260
123	30
126	10
127	20
128	40
129	30
130	10
139	30
140	20
141	10
154	30
155	10
156	10
164	10
165	10
166	40
167	40
168	10
169	10
183	10
184	20
194	20
195	20
196	10
211	10
212	40
213	2240
214	340
215	30
