Mass Spectrum: Caryophyllene
Formula: C15 H24
CAS: 87-44-5
Molecular weight: 204
Origin: NIST Mass Spectrometry Data Center, 1998.
m/z	RELATIVE INTENSITY
15	20
26	30
27	1030
29	940
30	20
37	10
38	70
39	2880
40	710
41	7699
42	460
43	850
44	30
50	170
51	820
52	630
53	2990
54	400
55	3560
56	760
57	580
58	60
59	30
60	10
62	40
63	250
64	100
65	1830
66	570
67	3870
68	950
69	7549
70	470
71	310
72	20
74	20
75	30
77	4390
78	1200
79	7639
80	1920
81	3860
82	1140
83	350
84	50
85	10
87	10
89	100
91	8589
92	2590
93	9999
94	2060
95	2160
96	300
97	120
98	10
101	10
102	60
103	510
104	250
105	6239
106	3420
107	4830
108	1180
109	2050
110	320
111	340
112	50
113	10
114	10
115	500
116	190
117	690
118	190
119	4060
120	4470
121	3050
122	870
123	600
124	90
125	10
127	50
128	160
129	150
130	60
131	420
132	90
133	9219
134	2440
135	1320
136	660
137	180
138	20
141	30
142	20
143	20
144	10
145	150
146	110
147	2890
148	2670
149	740
150	100
151	10
159	40
160	100
161	3300
162	940
163	280
164	30
173	10
174	10
175	990
176	610
177	80
189	1660
190	250
191	20
204	650
205	110
