Mass Spectrum: Pyrolan
Formula: C13 H15 N3 O2
CAS: 87-47-8
Molecular weight: 245
Origin: J. SHAW, BORRISTON RESEARCH, ROCKVILLE, MD, USA
m/z	RELATIVE INTENSITY
12	20
13	10
15	4094
16	100
17	250
18	2942
19	10
26	140
27	860
28	1481
29	150
30	60
31	10
32	10
37	70
38	280
39	2072
40	1611
41	340
42	1501
43	400
44	390
45	50
50	430
51	2002
52	240
53	80
54	150
56	790
57	50
58	20
61	10
62	50
63	190
64	200
65	220
66	40
67	200
68	150
69	60
72	9999
73	1181
74	140
75	60
77	3713
78	260
79	20
80	10
81	10
82	20
84	10
87	10
88	20
89	190
90	50
91	210
92	50
93	20
102	20
103	70
104	60
105	290
106	230
107	30
110	10
115	110
116	130
117	30
118	30
119	20
128	10
129	10
130	10
131	10
132	20
142	10
144	10
145	20
146	10
159	40
171	10
173	300
174	80
175	10
186	10
187	20
198	10
245	810
246	130
247	10
