Mass Spectrum: Indoleacetic acid
Formula: C10 H9 N O2
CAS: 87-51-4
Molecular weight: 175
Origin: Japan AIST/NIMC Database- Spectrum MS-NW-9602
m/z	RELATIVE INTENSITY
18	10
27	10
28	10
38	10
39	50
44	10
45	20
50	90
51	209
52	90
53	10
58	10
61	10
62	40
63	90
64	40
65	119
74	70
75	129
76	149
77	689
78	70
87	10
89	30
90	20
91	30
98	10
99	10
100	10
101	119
102	399
103	799
104	99
117	30
118	20
127	10
128	399
129	389
130	9999
131	1049
132	249
133	20
144	10
146	30
157	20
174	20
175	3109
176	349
177	30
