Mass Spectrum: Benzenamine, 2-chloro-6-methyl-
Formula: C7 H8 Cl N
CAS: 87-63-8
Molecular weight: 141
Origin: RADIAN CORP
m/z	RELATIVE INTENSITY
14	30
15	60
16	20
17	30
26	150
27	410
28	510
29	40
30	140
32	20
35	30
36	10
37	230
38	410
39	730
40	110
41	180
42	160
43	10
44	20
47	40
48	30
49	200
50	1060
51	1980
52	1750
53	490
54	310
55	30
57	20
60	60
61	270
62	510
63	840
64	280
65	410
66	210
67	60
71	80
72	90
73	380
74	450
75	630
76	550
77	3930
78	1540
79	1710
80	300
81	20
84	60
85	120
86	140
87	180
88	100
89	810
90	170
91	70
97	40
98	20
99	120
100	70
101	50
102	180
103	60
104	1700
105	400
106	9999
107	840
108	40
111	40
112	60
113	370
114	200
115	140
116	60
123	60
124	40
125	100
126	10
127	30
138	60
140	3460
141	6050
142	1590
143	2000
144	160
