Mass Spectrum: Benzene, 1,2,3-trichloro-
Formula: C6 H3 Cl3
CAS: 87-61-6
Molecular weight: 180
Origin: Chuck Anderson, Aldrich Chemical Co.
m/z	RELATIVE INTENSITY
25	18
26	46
27	13
35	208
36	157
37	682
38	248
39	67
47	132
48	54
49	341
50	330
51	68
54	192
55	205
56	44
60	92
61	176
62	98
63	57
71	44
72	325
73	535
74	1205
75	675
76	35
83	33
84	739
85	271
86	258
87	85
90	414
91	420
92	133
94	30
95	24
96	60
97	74
98	18
99	17
106	31
107	99
108	290
109	2321
110	452
111	733
112	111
118	59
119	113
120	100
121	72
122	39
131	38
133	32
143	80
144	360
145	3800
146	452
147	2346
148	176
149	381
150	19
154	15
156	14
179	13
180	9999
181	510
182	9182
183	529
184	2780
185	165
186	315
187	14
