Mass Spectrum: L-Sorbose
Formula: C6 H12 O6
CAS: 87-79-6
Molecular weight: 180
Origin: Japan AIST/NIMC Database- Spectrum MS-NW-1787
m/z	RELATIVE INTENSITY
12	90
13	219
14	819
15	4879
16	99
17	779
18	2539
19	159
24	40
25	169
26	669
27	1509
28	1229
29	5549
30	1379
31	9999
32	1159
33	459
36	20
37	80
38	99
39	439
40	169
41	609
42	2969
43	9089
44	2769
45	1639
46	50
47	169
49	299
50	20
51	30
52	30
53	149
54	149
55	919
56	499
57	1649
58	379
59	369
60	4859
61	6049
62	299
63	30
67	40
68	229
69	469
70	99
71	1879
72	3309
73	6329
74	519
75	99
76	30
77	259
78	10
79	20
80	20
81	60
82	30
83	80
84	119
85	909
86	659
87	149
88	70
89	309
90	949
91	319
92	10
94	10
95	60
96	129
97	149
98	80
99	20
100	30
101	149
102	279
103	1689
104	109
105	20
107	10
109	10
110	20
111	20
113	229
114	50
115	109
116	30
119	90
120	10
121	119
122	10
125	10
126	80
127	20
128	10
129	10
131	309
132	40
133	40
144	50
145	10
149	409
150	30
