Mass Spectrum: Benzene, hexamethyl-
Formula: C12 H18
CAS: 87-85-4
Molecular weight: 162
Origin: Japan AIST/NIMC Database- Spectrum MS-NW- 223
m/z	RELATIVE INTENSITY
15	60
26	10
27	529
28	80
29	259
38	40
39	759
40	99
41	929
42	40
43	40
50	119
51	409
52	159
53	609
54	40
55	309
56	20
57	20
58	50
62	40
63	249
64	109
65	469
66	109
67	129
69	30
70	20
71	60
72	10
74	50
75	60
76	40
77	739
78	189
79	429
80	60
81	109
82	10
86	10
87	20
88	10
89	80
90	20
91	1369
92	159
93	249
94	20
100	10
101	10
102	60
103	249
104	80
105	829
106	139
107	239
108	109
114	10
115	619
116	439
117	589
118	139
119	829
120	139
121	80
122	50
123	10
127	109
128	379
129	399
130	259
131	609
132	219
133	499
134	70
135	10
139	10
141	40
142	20
143	50
144	30
145	239
146	109
147	9999
148	1219
149	80
160	70
161	629
162	5679
163	799
164	50
