Mass Spectrum: Hydroquinone, tetrachloro-
Formula: C6 H2 Cl4 O2
CAS: 87-87-6
Molecular weight: 246
Origin: RADIAN CORP
m/z	RELATIVE INTENSITY
16	20
24	50
25	100
29	370
35	300
36	380
37	270
38	90
42	60
43	10
44	70
47	630
48	340
49	670
50	220
51	20
52	490
53	1010
54	50
56	40
57	40
59	790
60	1000
61	460
62	110
63	440
64	60
65	290
66	100
69	30
70	90
71	350
72	150
73	690
74	410
75	20
76	250
77	720
78	260
79	90
80	60
82	70
83	850
84	1150
85	580
86	390
87	6470
88	380
89	2100
90	110
91	420
92	370
93	140
94	640
95	750
96	560
97	310
98	120
99	30
100	40
105	450
106	530
107	250
108	110
109	30
111	1970
112	260
113	1020
114	100
115	130
118	1050
119	1270
120	820
121	880
122	350
123	570
124	480
125	260
126	10
130	240
131	90
132	160
133	50
134	20
135	110
141	50
143	10
146	20
147	3630
148	380
149	2470
150	210
151	410
153	410
154	1690
155	680
156	1650
157	390
158	560
159	100
160	50
165	110
167	100
175	1700
176	200
177	1080
178	130
179	190
181	390
182	2020
183	690
184	1930
185	440
186	710
187	110
188	210
190	190
192	60
197	30
209	300
210	1200
211	420
212	1450
213	250
214	660
215	60
216	230
217	160
218	130
219	190
220	50
221	80
244	280
245	180
246	8000
247	780
248	9999
249	800
250	4930
251	370
252	1060
253	60
254	80
