Mass Spectrum: 2-Butenoic acid, 3-(methylamino)-, ethyl ester
Formula: C7 H13 N O2
CAS: 870-85-9
Molecular weight: 143
Origin: D.H.WILLIAMS CHEMISTRY DEPT., UNIVERSITY OF CAMBRIDGE
m/z	RELATIVE INTENSITY
26	400
27	1300
28	520
29	1000
30	1600
31	1400
32	100
38	300
39	1000
40	400
41	1000
42	1000
43	500
44	500
45	700
46	400
51	100
52	200
53	100
54	1000
55	900
56	5700
57	400
58	500
66	100
67	300
68	400
69	600
70	1300
71	6100
72	500
73	200
82	1500
83	100
84	600
85	100
86	100
96	900
97	800
98	9999
99	900
100	300
113	100
114	300
115	400
116	100
126	100
128	200
129	100
143	4000
144	500
