Mass Spectrum: Stearic acid, TBDMS derivative
Formula: C24 H50 O2 Si
CAS: 87020-51-7
Molecular weight: 398
Origin: NIST Mass Spectrometry Data Center
m/z	RELATIVE INTENSITY
27	40
29	170
39	60
40	20
41	520
42	120
43	891
44	30
45	70
46	10
47	70
53	30
54	30
55	480
56	130
57	601
58	90
59	120
60	30
61	70
67	130
68	20
69	220
70	50
71	130
72	60
73	1031
74	140
75	3233
76	240
77	150
78	10
79	40
80	10
81	180
82	30
83	170
84	30
85	100
86	50
87	30
88	20
89	10
91	10
93	40
94	10
95	240
96	30
97	130
98	50
99	100
100	20
101	60
102	20
103	30
105	120
106	10
107	30
109	90
110	10
111	50
112	20
113	20
114	80
115	330
116	340
117	1241
118	150
119	60
120	10
121	30
123	30
125	20
127	10
129	2002
130	250
131	911
132	100
133	40
135	20
137	10
139	10
141	10
142	10
143	110
144	10
145	20
149	10
153	10
155	20
157	60
158	20
159	50
160	10
169	10
171	290
172	40
173	20
174	10
175	20
181	10
185	170
186	20
187	130
188	20
189	10
199	50
200	10
201	10
213	60
214	10
215	10
227	70
228	10
229	10
241	60
242	10
243	20
255	50
256	10
257	10
267	10
269	30
270	10
271	10
283	20
284	10
285	10
297	40
298	10
299	10
311	10
313	10
325	10
339	60
341	9999
342	2863
343	771
344	120
345	10
353	10
355	10
381	10
383	160
384	50
385	10
397	10
398	30
399	10
