Mass Spectrum: Butane, 1,1'-[ethylidenebis(oxy)]bis-
Formula: C10 H22 O2
CAS: 871-22-7
Molecular weight: 174
Origin: J.Little, Eastman Chem. Comp.,Kingsport
m/z	RELATIVE INTENSITY
15	50
27	831
28	1421
29	2903
31	230
32	420
39	390
41	2843
42	160
43	941
45	8107
46	100
55	420
56	711
57	9999
58	480
61	230
71	30
72	70
83	240
85	100
100	50
101	8608
102	530
103	440
117	30
159	1601
160	120
173	30
