Mass Spectrum: 1,7-Octadiyne
Formula: C8 H10
CAS: 871-84-1
Molecular weight: 106
Origin: Japan AIST/NIMC Database- Spectrum MS-IW-2920
m/z	RELATIVE INTENSITY
15	20
25	20
26	169
27	1249
28	139
29	109
31	20
36	10
37	239
38	579
39	4529
40	969
41	3719
42	179
43	149
44	50
45	40
49	80
50	749
51	1309
52	969
53	1239
54	1149
55	539
56	40
57	60
58	40
60	60
61	99
62	229
63	549
64	209
65	2629
66	1039
67	1039
68	379
69	50
70	99
71	50
73	40
74	129
75	80
76	109
77	1449
78	3949
79	2229
80	289
81	259
82	60
83	50
84	30
85	20
86	30
87	20
89	90
90	50
91	9999
92	839
93	80
94	139
95	70
96	20
97	30
98	30
99	10
101	10
102	60
103	659
104	129
105	3969
106	369
107	50
