Mass Spectrum: Pyridinium, 1,2-dimethyl-, iodide
Formula: C7 H10 I N
CAS: 872-73-1
Molecular weight: 235
m/z	RELATIVE INTENSITY
36	1100
38	500
39	1700
40	700
50	700
51	1300
52	800
53	500
63	600
64	400
65	1600
66	3700
67	800
78	1800
79	500
92	2100
93	9999
94	700
107	1200
127	3300
128	1100
141	1400
142	9999
