Mass Spectrum: 4-Pyridinecarboxaldehyde
Formula: C6 H5 N O
CAS: 872-85-5
Molecular weight: 107
Origin: NIST Mass Spectrometry Data Center, 1994
m/z	RELATIVE INTENSITY
12	20
13	28
14	19
16	16
17	15
18	5
24	29
25	136
26	517
27	246
28	510
29	936
30	21
31	37
36	83
37	377
38	359
39	248
40	43
41	24
48	107
49	596
50	2702
51	4398
52	2739
53	412
54	23
60	28
61	103
62	119
63	74
64	12
74	46
75	238
76	150
77	12
78	3834
79	536
80	31
104	31
106	3738
107	9999
108	705
109	46
