Mass Spectrum: Thiophene, 3-bromo-
Formula: C4 H3 Br S
CAS: 872-31-1
Molecular weight: 162
Origin: Japan AIST/NIMC Database- Spectrum MS-NW-1568
m/z	RELATIVE INTENSITY
24	30
25	109
26	129
27	20
28	10
32	80
33	30
34	10
36	119
37	699
38	1119
39	5219
40	179
41	80
43	10
44	189
45	3289
46	80
47	149
48	70
49	389
50	659
51	179
55	10
56	119
57	989
58	519
59	50
60	30
68	60
69	179
70	10
71	10
76	30
79	99
80	109
81	859
82	1029
83	5709
84	339
85	259
86	10
91	30
92	10
93	30
94	10
104	30
105	10
106	30
111	10
116	20
117	309
118	50
119	299
120	30
123	50
125	50
128	10
130	10
135	50
136	129
137	60
138	119
161	70
162	9919
163	609
164	9999
165	549
166	459
167	20
