Mass Spectrum: Bicyclo[2.2.1]heptane, 2-methyl-, exo-
Formula: C8 H14
CAS: 872-78-6
Molecular weight: 110
Origin: KONINKLIJKE SHELL LABORATORIUM AMSTERDAM
m/z	RELATIVE INTENSITY
36	12
37	213
38	614
39	6125
40	1225
41	6830
42	814
43	484
44	44
45	45
46	22
47	2
48	1
49	46
50	439
51	900
52	415
53	2155
54	2864
55	2605
56	1289
57	235
58	13
59	7
60	32
61	52
62	111
63	260
64	64
65	670
66	1439
67	9999
68	7575
69	2539
70	177
71	67
72	5
73	7
74	42
75	37
76	21
77	567
78	175
79	659
80	400
81	6830
82	5925
83	430
84	64
85	52
86	10
87	7
89	16
90	9
91	215
92	40
93	119
94	48
95	5064
96	395
97	33
98	21
99	15
100	4
101	5
102	7
103	12
104	8
105	52
106	11
107	12
108	10
109	149
110	1450
111	172
112	18
113	12
