Mass Spectrum: 2H-Imidazole-2-thione, 1,3-dihydro-
Formula: C3 H4 N2 S
CAS: 872-35-5
Molecular weight: 100
m/z	RELATIVE INTENSITY
32	470
38	270
39	200
40	621
41	2062
42	621
43	170
44	520
45	1411
46	741
47	320
48	100
49	70
50	1511
55	200
59	200
60	250
67	50
68	270
70	120
71	270
72	1441
73	1862
74	100
82	70
99	120
100	9999
101	300
102	270
