Mass Spectrum: 1,1-Dichloro-1-silacyclo-3-pentene
Formula: C4 H6 Cl2 Si
CAS: 872-46-8
Molecular weight: 152
Origin: V.A.KOPTYUG, ATLAS OF MASS SPECTRA OF ORGANIC COMPOUNDS
m/z	RELATIVE INTENSITY
39	1600
40	100
41	200
51	200
52	300
53	1000
54	9999
55	600
63	1500
64	100
65	600
98	400
99	300
100	300
101	200
115	200
116	3800
117	500
118	1300
119	100
124	300
126	200
152	1100
153	300
154	800
155	100
156	100
