Mass Spectrum: 5,5-Dimethyl-1,3-dioxane
Formula: C6 H12 O2
CAS: 872-98-0
Molecular weight: 116
Origin: NIST Mass Spectrometry Data Center
m/z	RELATIVE INTENSITY
14	30
15	250
16	20
26	110
27	1111
28	540
29	1772
30	180
31	611
37	50
38	150
39	1351
40	460
41	4444
42	280
43	540
44	561
45	490
50	70
51	100
52	30
53	210
54	80
55	881
56	9999
57	991
58	40
59	10
67	30
68	30
69	631
70	290
71	140
73	70
86	1261
87	330
88	10
98	30
115	971
116	621
117	40
