Mass Spectrum: Thiazole, 2-ethyl-4,5-dimethyl-
Formula: C7 H11 N S
CAS: 873-64-3
Molecular weight: 141
Origin: Philip Morris R&D
m/z	RELATIVE INTENSITY
36	15
37	30
38	62
39	445
40	81
41	399
42	495
43	45
44	54
45	945
46	77
47	128
48	8
49	25
50	89
51	198
52	141
53	626
54	213
55	43
56	116
57	64
58	298
59	862
60	83
61	42
62	4
63	40
64	10
65	45
66	41
67	29
68	34
69	225
70	111
71	3669
72	229
73	280
74	25
75	8
76	3
77	8
78	12
79	3
80	34
81	26
82	826
83	84
84	75
85	1322
86	4352
87	556
88	183
89	27
92	5
93	10
94	4
95	0
96	18
97	10
98	15
99	41
100	11
101	4
103	5
106	0
107	7
108	23
109	0
110	3
112	102
113	351
114	108
115	21
116	4
117	3
124	6
125	16
126	2417
127	199
128	108
129	6
138	24
139	23
140	5301
141	9999
142	1241
143	475
144	42
145	2
