Mass Spectrum: 2-Pyridinealdoxime
Formula: C6 H6 N2 O
CAS: 873-69-8
Molecular weight: 122
Origin: Japan AIST/NIMC Database- Spectrum MS-NW-1435
m/z	RELATIVE INTENSITY
12	10
14	20
16	70
24	10
25	50
26	549
27	619
28	569
29	30
30	99
31	10
32	50
36	40
37	289
38	529
39	1019
40	129
41	109
42	30
43	40
44	179
48	40
49	239
50	1369
51	2779
52	1829
53	319
54	20
57	10
60	20
61	90
62	149
63	419
64	379
65	5919
66	529
67	159
68	30
70	10
74	40
75	289
76	579
77	1279
78	2399
79	3369
80	189
90	30
91	239
92	2499
93	199
94	70
95	129
100	10
103	119
104	2569
105	429
106	70
107	10
120	30
121	749
122	9999
123	749
124	50
