Mass Spectrum: Cyclohexanone, 3,3,5-trimethyl-
Formula: C9 H16 O
CAS: 873-94-9
Molecular weight: 140
Origin: MYNARD C. HAMMING
m/z	RELATIVE INTENSITY
12	5
13	53
14	152
15	687
16	25
17	15
18	39
19	2
25	5
26	148
27	2047
28	693
29	1608
30	48
31	24
32	30
33	2
36	6
37	55
38	173
39	2611
40	521
41	4242
42	1449
43	901
44	34
45	23
46	17
49	6
50	100
51	229
52	108
53	622
54	203
55	4335
56	4230
57	968
58	56
62	19
63	48
64	5
65	100
66	53
67	322
68	100
69	5571
70	1958
71	230
72	48
78	5
79	92
80	26
81	134
82	247
83	9999
84	979
85	149
86	6
91	26
93	11
95	25
96	137
97	309
98	162
99	13
107	66
108	5
109	11
111	23
112	70
113	8
122	29
125	692
126	60
127	3
140	1391
141	124
142	12
