Mass Spectrum: Benzonitrile, 4-amino-
Formula: C7 H6 N2
CAS: 873-74-5
Molecular weight: 118
Origin: Japan AIST/NIMC Database- Spectrum MS-NW-1974
m/z	RELATIVE INTENSITY
14	10
15	10
26	50
27	70
28	20
29	10
30	10
36	20
37	229
38	229
39	369
40	139
41	429
42	50
43	10
44	40
45	90
46	10
49	30
50	179
51	159
52	389
53	60
54	99
58	40
59	209
60	10
61	90
62	199
63	639
64	909
65	339
66	109
67	109
68	10
73	20
74	50
75	109
76	90
77	30
78	119
79	40
86	10
87	20
88	60
89	70
90	679
91	2529
92	239
93	10
99	20
100	10
101	20
102	30
103	20
116	30
117	459
118	9999
119	859
120	30
