Mass Spectrum: Benzenemethanol, 4-bromo-
Formula: C7 H7 Br O
CAS: 873-75-6
Molecular weight: 186
Origin: Japan AIST/NIMC Database- Spectrum MS-NW-6607
m/z	RELATIVE INTENSITY
14	10
15	10
18	20
25	20
26	149
27	499
28	119
29	719
30	60
31	599
32	30
36	50
37	389
38	639
39	1089
40	90
41	30
42	30
43	179
44	129
45	70
48	30
49	249
50	2229
51	2489
52	679
53	1129
54	40
55	99
56	20
57	20
58	20
59	20
60	60
61	259
62	499
63	869
64	199
65	60
66	30
67	10
68	10
71	10
72	20
73	239
74	969
75	1299
76	1079
77	9859
78	3799
79	9499
80	629
81	80
82	90
83	10
84	30
85	90
86	119
87	99
88	70
89	1159
90	1029
91	189
92	149
93	119
94	30
103	10
104	20
105	479
106	159
107	9999
108	789
109	50
116	10
117	80
118	20
119	70
121	10
128	20
129	40
130	20
131	50
133	10
137	10
141	10
143	40
145	30
154	10
155	559
156	109
157	1509
158	169
159	969
160	80
167	20
168	30
169	859
170	149
171	849
172	129
178	10
183	359
184	159
185	1309
186	5789
187	1439
188	5609
189	469
190	30
