Mass Spectrum: Spiro[4.4]non-1-ene
Formula: C9 H14
CAS: 873-12-1
Molecular weight: 122
m/z	RELATIVE INTENSITY
39	2083
40	479
41	1666
43	1250
50	208
51	750
52	417
53	833
54	208
55	417
63	312
65	833
66	1000
67	1500
68	208
77	3166
78	833
79	7249
80	7458
81	1583
91	2187
92	500
93	9999
94	2000
107	583
121	167
122	2500
123	208
