Mass Spectrum: Neo-triangularine
Formula: C18 H25 N O5
CAS: 87392-67-4
Molecular weight: 335
Origin: J. ROITMAN,WEST. REG. RES. CENT.,US DEP. AGRIC.,BERKELEY,USA
m/z	RELATIVE INTENSITY
26	122
27	1300
29	1637
30	65
31	486
34	37
36	28
37	94
38	94
39	1300
40	19
41	3003
42	617
43	2152
44	19
45	309
46	47
47	47
49	75
50	178
51	346
52	374
53	1890
54	776
55	4892
56	851
57	2582
58	346
59	140
60	84
61	75
62	84
63	168
64	178
65	355
66	318
67	907
68	384
69	1104
70	599
71	1590
72	140
73	75
74	122
75	75
76	37
77	337
78	225
79	365
80	1646
81	1104
82	767
83	5893
84	524
85	898
86	94
87	206
88	84
89	402
90	533
91	365
92	374
93	8569
94	4079
95	1469
96	318
97	664
98	318
99	748
100	617
101	196
102	56
103	131
104	122
105	271
106	1132
107	365
108	571
109	552
110	271
111	533
112	215
113	225
114	103
115	65
116	168
117	1487
118	1048
119	3162
120	4640
121	1572
122	262
123	253
124	168
125	253
126	168
127	159
128	112
129	103
130	75
131	131
132	122
133	150
134	468
135	318
136	9999
137	1422
138	627
139	262
140	168
141	776
142	168
143	122
144	84
145	84
146	178
147	187
148	112
149	393
150	262
151	234
152	206
153	168
154	468
155	206
156	103
157	112
158	94
159	103
160	140
161	103
162	131
163	187
164	103
165	122
166	84
167	112
168	131
169	131
170	84
171	56
172	75
173	122
174	140
175	168
176	168
177	94
178	103
179	103
180	94
181	84
182	75
183	122
184	65
185	65
186	75
187	75
188	65
189	75
190	150
191	215
192	168
193	112
194	75
195	94
196	65
197	112
199	84
200	47
201	84
202	84
203	65
204	168
205	75
206	94
207	75
208	112
209	636
210	271
211	122
212	47
213	65
215	56
216	75
217	112
218	384
219	2816
220	3639
221	655
222	112
223	84
224	47
225	56
226	65
227	140
228	56
233	94
234	103
235	795
236	954
237	3321
238	608
239	122
240	94
241	112
242	75
243	65
245	65
247	47
248	37
252	56
253	56
254	47
256	56
258	65
259	56
260	56
261	37
264	47
265	56
266	56
272	37
274	65
279	9
281	56
291	56
299	65
304	65
335	655
336	168
