Mass Spectrum: Benzene, 1-ethyl-2,4-dimethyl-
Formula: C10 H14
CAS: 874-41-9
Molecular weight: 134
Origin: Japan AIST/NIMC Database- Spectrum MS-NW-3637
m/z	RELATIVE INTENSITY
15	50
26	20
27	239
28	20
29	50
37	10
38	40
39	459
40	50
41	429
42	10
50	109
51	359
52	99
53	179
54	10
55	30
57	80
58	50
59	20
61	20
62	70
63	199
64	99
65	369
66	119
67	30
74	40
75	50
76	40
77	589
78	209
79	259
80	20
86	20
87	20
89	80
90	20
91	1109
92	99
93	129
94	10
101	10
102	80
103	329
104	249
105	479
106	80
107	20
115	369
116	129
117	519
118	189
119	9999
120	979
121	50
127	20
128	40
129	20
131	50
132	30
133	179
134	2969
135	329
136	10
