Mass Spectrum: Benzonitrile, 4-(chloromethyl)-
Formula: C8 H6 Cl N
CAS: 874-86-2
Molecular weight: 151
Origin: James Little,Eastman Chem.Co.,Kingsport,TN
m/z	RELATIVE INTENSITY
27	2332
28	1341
35	1481
37	3733
38	4764
39	7006
43	510
49	1611
50	4874
51	4294
52	1561
61	2492
62	3914
63	5935
64	2492
65	901
74	811
75	1451
76	1291
85	430
86	761
87	1461
88	1772
89	4114
90	1361
99	280
114	731
115	671
116	9999
117	1061
123	230
151	340
152	110
153	220
