Mass Spectrum: Cyclohexanone, 2-acetyl-
Formula: C8 H12 O2
CAS: 874-23-7
Molecular weight: 140
Origin: NIST Mass Spectrometry Data Center, 1998.
m/z	RELATIVE INTENSITY
14	20
15	130
26	100
27	750
28	160
29	360
30	10
31	100
37	50
38	190
39	1750
40	400
41	2580
42	910
43	6919
44	210
45	130
46	10
47	40
48	10
49	30
50	250
51	550
52	280
53	930
54	280
55	3150
56	250
57	260
58	110
59	10
61	40
62	80
63	180
64	50
65	360
66	320
67	740
68	410
69	3150
70	1260
71	670
72	40
73	10
74	40
75	20
76	10
77	840
78	150
79	1710
80	200
81	270
82	110
83	860
84	1930
85	210
86	30
89	10
90	10
91	230
92	30
93	130
94	250
95	370
96	120
97	3550
98	1020
99	310
100	20
102	10
103	20
104	10
105	30
107	210
108	20
109	20
110	10
111	290
112	950
113	70
120	10
121	110
122	110
123	60
124	10
125	9999
126	780
127	70
138	20
139	260
140	5639
141	500
142	40
