Mass Spectrum: 2-Propanone, 1-cyclohexylidene-
Formula: C9 H14 O
CAS: 874-68-0
Molecular weight: 138
m/z	RELATIVE INTENSITY
39	3100
41	2800
43	9999
51	800
53	1500
55	2500
65	800
66	700
67	4800
77	1000
79	2100
80	4999
81	1800
91	800
93	700
95	5599
109	1300
110	900
123	3300
138	5299
139	700
