Mass Spectrum: 1-Cyclopentyl-2-propen-1-ol
Formula: C8 H14 O
CAS: 87453-54-1
Molecular weight: 126
Origin: NIST Mass Spectrometry Data Center, 1990.
m/z	RELATIVE INTENSITY
26	325
27	1711
28	4
29	1972
31	580
38	461
39	3965
40	918
41	6841
42	700
43	650
50	501
51	967
52	554
53	1285
54	527
55	2093
57	9999
58	8899
59	620
63	379
65	1210
66	1067
67	6730
68	3105
69	6088
70	540
77	2122
78	653
79	3208
80	1357
81	827
82	1200
83	772
85	1121
91	1564
93	3397
94	319
95	270
97	962
98	157
107	261
108	1518
