Mass Spectrum: 9-Methylpoxanthine
Formula: C6 H6 N4 O
CAS: 875-31-0
Molecular weight: 150
Origin: Div. of Experiment Therapeutics WRAIR, WRAMC, Washington DC 20307
m/z	RELATIVE INTENSITY
41	510
42	2096
43	215
44	30
45	18
47	9
50	12
51	93
52	169
53	483
54	197
55	167
56	45
57	120
64	45
65	139
66	120
67	331
68	799
69	230
70	30
71	25
75	118
76	8
77	66
78	39
79	108
80	181
81	523
82	202
83	30
84	10
92	9
93	59
94	420
95	484
96	141
97	8
106	25
107	131
108	120
109	42
110	10
111	9
120	13
121	272
122	780
123	575
124	42
131	22
133	33
134	27
135	18
147	34
148	189
149	2171
150	9999
151	1619
152	108
