Mass Spectrum: 3,4-Diethylphenol
Formula: C10 H14 O
CAS: 875-85-4
Molecular weight: 150
Origin: J.MACAK, DEP. COKE GAS TECH., PRAGUE INST. CHEM. TECH., CZEC
m/z	RELATIVE INTENSITY
38	100
39	1100
40	200
41	600
43	300
45	300
50	200
51	800
52	300
53	600
55	500
63	400
64	100
65	800
77	1500
78	400
80	800
89	200
91	2400
92	400
93	400
94	200
104	600
105	700
107	1300
108	200
115	800
116	200
117	900
119	200
120	500
121	2000
122	300
131	200
133	500
134	200
135	9999
136	1100
149	200
150	3700
151	500
