Mass Spectrum: 4-Hydroxy-2-methylacetophenone
Formula: C9 H10 O2
CAS: 875-59-2
Molecular weight: 150
Origin: Japan AIST/NIMC Database- Spectrum MS-NW-6559
m/z	RELATIVE INTENSITY
14	30
15	139
16	10
18	20
26	40
27	279
28	109
29	80
31	10
37	70
38	169
39	569
40	60
41	80
42	60
43	1029
44	80
45	20
46	10
49	30
50	259
51	599
52	299
53	399
54	30
55	219
56	10
57	20
58	30
59	20
60	50
61	80
62	149
63	329
64	70
65	159
66	80
67	119
68	20
69	10
73	20
74	159
75	70
76	50
77	1699
78	399
79	539
80	50
81	80
82	10
85	30
86	20
87	30
88	10
89	70
90	30
91	149
92	40
93	40
94	20
95	10
100	10
101	20
102	30
103	60
104	10
105	139
106	109
107	3339
108	329
109	20
115	20
118	10
119	20
120	20
121	129
122	20
125	10
128	10
129	10
130	10
131	70
132	70
133	20
134	60
135	9999
136	889
137	99
138	10
148	10
149	30
150	3599
151	379
152	30
