Mass Spectrum: 1H-Indole, 1,3-dimethyl-
Formula: C10 H11 N
CAS: 875-30-9
Molecular weight: 145
m/z	RELATIVE INTENSITY
36	10
37	90
38	210
39	661
40	100
41	160
42	300
43	30
44	180
45	10
46	10
47	10
48	10
49	40
50	470
51	781
52	250
53	80
54	20
55	20
56	20
57	40
58	50
59	30
60	10
61	70
62	210
63	490
64	150
65	210
66	60
67	10
68	10
69	10
70	10
71	60
72	420
73	110
74	270
75	360
76	350
77	1121
78	210
79	30
80	10
81	10
82	10
83	10
84	10
85	20
86	50
87	80
88	60
89	190
90	80
91	250
92	30
93	10
94	10
95	10
96	10
97	10
98	40
99	30
100	30
101	210
102	621
103	591
104	140
105	20
106	10
107	10
108	10
109	10
110	10
111	10
112	10
113	40
114	70
115	571
116	190
117	150
118	70
119	10
120	10
121	10
122	10
123	10
124	10
125	10
126	10
127	80
128	360
129	390
130	400
131	60
132	10
133	10
134	10
135	10
136	10
139	10
140	20
141	50
142	240
143	881
144	9999
145	7196
146	701
147	40
