Mass Spectrum: 2,2'-Dimethyl-4,4'-dinitrobibenzyl
Formula: C16 H16 N2 O4
CAS: 87517-98-4
Molecular weight: 300
Origin: Organic Synthesis Lab, MSU, Moscow.TRC 268
m/z	RELATIVE INTENSITY
40	230
41	40
43	30
44	250
50	30
51	80
52	30
53	40
55	50
57	80
63	100
65	80
66	40
67	40
69	110
70	30
71	50
73	110
74	60
75	90
76	120
77	460
78	641
79	80
81	60
82	60
83	80
84	30
85	40
87	30
88	30
89	270
91	1191
92	1832
93	150
94	40
95	80
96	160
97	70
98	60
99	30
101	50
102	200
103	951
104	781
105	140
109	30
111	50
112	30
115	300
116	60
117	70
119	50
120	1491
121	200
122	40
123	30
125	40
127	50
128	140
129	60
131	40
133	90
134	340
135	120
136	30
137	50
138	30
139	100
141	70
147	50
150	9999
151	941
152	240
153	70
154	40
155	40
156	30
163	60
164	50
165	240
166	80
167	60
168	40
176	70
177	90
178	270
179	90
181	40
189	180
190	100
191	230
192	150
193	140
194	40
202	40
203	40
205	40
207	510
208	120
209	90
253	80
254	450
256	70
267	70
281	140
282	40
283	40
284	80
285	40
300	2742
301	480
302	50
