Mass Spectrum: 1-Methyl-9-nitrophenanthrene
Formula: C15 H11 N O2
CAS: 87517-97-3
Molecular weight: 237
Origin: Organic Synthesis Lab, MSU, Moscow.TRC 259
m/z	RELATIVE INTENSITY
40	300
41	60
44	250
50	80
51	160
55	120
57	100
61	60
62	180
63	310
64	120
65	100
67	60
68	100
71	60
73	80
74	300
75	400
76	520
77	230
78	100
79	60
84	120
85	160
86	280
87	470
88	520
89	661
91	160
92	60
96	160
97	140
98	300
99	210
100	100
101	100
102	100
105	80
107	60
109	120
110	190
111	280
112	60
113	250
114	380
115	380
116	60
119	80
121	100
122	140
123	120
125	120
126	250
127	140
128	180
129	100
133	120
134	80
135	140
137	220
138	140
139	671
140	160
141	180
149	250
150	550
151	771
152	1271
153	390
154	330
155	80
161	220
162	370
163	1491
164	1071
165	4944
166	1131
167	230
168	220
169	160
173	60
174	160
175	220
176	1261
177	841
178	5445
179	8047
180	2092
181	1321
182	711
183	120
185	80
186	200
187	1591
188	1521
189	9999
190	4624
191	3133
192	1491
193	440
194	410
195	100
203	60
205	100
206	180
207	540
208	190
209	550
210	80
221	120
222	330
223	160
237	8878
238	1411
239	230
243	60
