Mass Spectrum: trans-Rose oxide
Formula: C10 H18 O
CAS: 876-18-6
Molecular weight: 154
Origin: A.Swigar, R.Silverstein, Monoterpenes,1981
m/z	RELATIVE INTENSITY
39	1541
40	430
41	3413
42	1541
43	1051
51	280
53	841
55	3493
56	941
57	430
65	320
67	1311
68	320
69	7627
70	540
79	340
81	540
82	641
83	2813
84	1541
85	1391
93	300
97	540
109	340
112	450
139	9999
154	1351
