Mass Spectrum: Acetic acid, 4-chlorophenyl ester
Formula: C8 H7 Cl O2
CAS: 876-27-7
Molecular weight: 170
Origin: Japan AIST/NIMC Database- Spectrum MS-NW-8395
m/z	RELATIVE INTENSITY
13	10
14	60
15	379
18	10
26	30
27	20
28	80
29	20
31	20
36	30
37	99
38	249
39	389
40	10
41	20
42	129
43	4399
44	99
45	10
47	30
49	70
50	179
51	90
53	60
55	20
60	20
61	99
62	199
63	539
64	359
65	889
66	60
72	40
73	499
74	129
75	349
76	40
77	20
79	10
84	10
85	30
87	10
89	20
91	10
92	99
93	179
94	40
97	10
98	10
99	499
100	519
101	189
102	159
103	10
107	10
111	119
112	10
113	40
127	109
128	9999
129	699
130	3179
131	209
132	10
170	859
171	80
172	279
173	20
