Mass Spectrum: 2,5-Diethylphenol
Formula: C10 H14 O
CAS: 876-20-0
Molecular weight: 150
Origin: J.MACAK, DEP. COKE GAS TECH., PRAGUE INST. CHEM. TECH., CZEC
m/z	RELATIVE INTENSITY
39	1200
41	700
43	500
45	700
50	300
51	900
52	300
53	600
55	500
59	200
63	400
65	800
66	200
67	200
73	200
75	200
77	1700
78	400
79	1100
87	100
89	400
90	100
91	2500
92	500
93	500
94	100
102	100
103	800
104	100
105	600
106	100
107	1200
108	200
115	600
116	300
117	400
120	500
121	2800
122	400
131	200
133	500
134	200
135	9999
136	1500
149	300
150	3500
151	400
