Mass Spectrum: 4-Hydroxy-3-methylacetophenone
Formula: C9 H10 O2
CAS: 876-02-8
Molecular weight: 150
Origin: Japan AIST/NIMC Database- Spectrum MS-NW-6576
m/z	RELATIVE INTENSITY
14	40
15	159
16	10
18	20
26	50
27	279
28	109
29	70
31	10
37	50
38	149
39	609
40	50
41	70
42	90
43	889
44	169
45	20
46	20
49	30
50	319
51	649
52	339
53	449
54	40
55	129
58	70
59	20
60	60
61	80
62	149
63	289
64	60
65	119
66	60
67	159
68	20
69	10
73	30
74	129
75	90
76	80
77	1859
78	469
79	1089
80	90
81	30
84	10
85	20
86	30
87	30
88	20
89	80
90	60
91	159
92	30
93	20
94	20
101	10
102	30
103	90
104	20
105	119
106	219
107	2049
108	319
109	30
113	10
114	30
115	30
116	10
117	20
118	10
119	20
120	30
121	139
122	20
130	10
131	129
132	319
133	50
134	109
135	9999
136	959
137	99
138	10
147	10
148	10
149	109
150	4199
151	439
152	40
