Mass Spectrum: Benzeneacetonitrile, 4-cyano-
Formula: C9 H6 N2
CAS: 876-31-3
Molecular weight: 142
Origin: N M M. NIBBERING
m/z	RELATIVE INTENSITY
26	100
27	200
28	200
37	300
38	400
39	600
40	100
49	100
50	700
51	600
52	200
61	200
62	500
63	700
64	600
65	200
74	200
75	600
76	500
79	100
86	100
87	300
88	800
89	400
90	200
99	100
100	100
102	300
113	100
114	1300
115	4200
116	700
141	1600
142	9999
143	1100
