Mass Spectrum: 1H-Pyrrole, 1-[tris(1-methylethyl)silyl]-
Formula: C13 H25 N Si
CAS: 87630-35-1
Molecular weight: 223
Origin: NIST Mass Spectrometry Data Center
m/z	RELATIVE INTENSITY
14	20
15	110
17	140
18	40
26	70
27	1211
28	320
29	230
31	170
32	40
37	60
38	130
39	831
40	190
41	1982
42	651
43	2953
44	490
45	1281
46	80
53	390
54	300
55	811
56	240
57	240
58	360
59	3703
60	270
61	190
62	320
65	70
66	330
67	2442
68	891
69	1491
70	470
71	1201
72	270
73	821
74	130
79	60
80	160
81	350
82	380
83	2532
84	591
85	1982
86	280
87	420
94	3743
95	1121
96	1401
97	1331
98	340
99	150
106	70
107	60
108	90
110	4554
111	1151
112	300
113	520
114	130
115	90
120	130
121	50
122	320
124	4244
125	801
126	190
134	110
136	400
138	2913
139	2883
140	430
141	150
150	100
152	5355
153	891
154	250
164	130
165	60
178	100
180	9999
181	3894
182	911
183	160
192	60
223	5775
224	1021
225	270
