Mass Spectrum: 6-Bromoquinaldine
Formula: C10 H8 Br N
CAS: 877-42-9
Molecular weight: 221
Origin: NIST Mass Spectrometry Data Center, 1994
m/z	RELATIVE INTENSITY
14	5
15	203
26	205
27	370
28	249
32	23
37	254
38	534
39	1050
40	175
41	115
42	193
43	50
44	34
49	172
50	1271
51	1027
52	370
53	64
55	74
58	907
61	383
62	890
63	1352
64	372
65	305
66	48
69	23
71	1345
73	231
74	1527
75	1537
76	569
77	155
78	89
79	66
81	65
82	31
84	34
85	180
86	352
87	612
88	587
89	945
90	279
91	118
92	24
98	427
99	610
100	773
101	420
102	293
103	46
104	35
110	567
111	518
113	754
114	1097
115	5182
116	1294
117	156
119	47
127	1067
128	154
129	30
130	25
138	36
140	1380
141	1230
142	3959
143	494
154	62
155	40
156	56
169	32
179	65
181	65
193	97
194	39
195	171
196	41
197	59
206	404
207	61
208	424
209	43
219	52
221	9732
222	1560
223	9999
224	1078
225	63
