Mass Spectrum: Benzene, pentachloromethyl-
Formula: C7 H3 Cl5
CAS: 877-11-2
Molecular weight: 262
Origin: Japan AIST/NIMC Database- Spectrum MS-IW-6719
m/z	RELATIVE INTENSITY
26	10
27	10
28	20
35	60
36	99
37	99
38	40
39	40
43	139
47	109
48	50
49	139
50	119
51	50
60	579
61	419
62	129
63	109
64	10
65	30
66	20
71	129
72	119
73	509
74	129
75	139
77	219
78	499
79	249
80	40
82	10
83	249
84	289
85	619
86	499
87	289
88	20
94	20
95	1129
96	1289
97	849
98	199
99	139
100	20
101	20
102	10
106	109
107	549
108	149
109	369
110	50
111	60
112	99
113	649
114	749
115	329
116	70
117	40
118	149
119	90
120	409
121	619
122	229
123	189
124	30
130	109
131	479
132	399
133	409
134	80
135	60
141	149
142	219
143	189
144	149
145	80
146	20
147	10
153	10
154	20
155	239
156	129
157	1249
158	159
159	719
160	60
161	109
162	10
165	70
167	209
168	20
169	159
170	10
171	50
177	60
178	10
179	60
180	30
181	30
182	10
189	10
190	20
191	2069
192	909
193	2049
194	839
195	679
196	259
197	109
201	129
203	139
204	10
205	60
206	10
207	10
212	30
214	40
215	10
216	20
218	10
225	99
226	739
227	7839
228	1539
229	9819
230	1189
231	4639
232	449
233	989
234	80
235	90
236	10
237	30
239	20
247	10
249	20
251	10
254	10
261	369
262	6389
263	1069
264	9999
265	1139
266	6259
267	599
268	1999
269	169
270	309
271	30
272	20
