Mass Spectrum: 7-Norbornadienyl t-butyl ether
Formula: C11 H16 O
CAS: 877-06-5
Molecular weight: 164
Origin: NIST Mass Spectrometry Data Center, 1994
m/z	RELATIVE INTENSITY
13	9
14	41
15	291
17	4
18	21
26	154
27	1015
29	2715
30	62
31	55
37	55
38	233
39	2088
40	55
41	4098
42	216
43	632
44	14
45	7
50	356
51	811
52	433
53	214
54	30
55	170
56	7
57	9999
58	444
59	34
61	19
62	100
63	301
64	104
65	863
66	57
71	9
74	41
75	33
77	896
78	726
79	1956
80	213
81	40
82	44
89	150
91	2151
92	160
105	71
107	635
108	872
109	64
149	77
