Mass Spectrum: Benzene, 1,2,4-triethyl-
Formula: C12 H18
CAS: 877-44-1
Molecular weight: 162
Origin: D.HENNEBERG, MAX-PLANCK INSTITUTE, MULHEIM, WEST GERMANY
m/z	RELATIVE INTENSITY
27	439
29	600
39	519
40	19
41	529
50	39
51	439
52	100
53	319
55	159
63	329
64	189
65	549
75	49
76	39
77	1179
78	239
79	609
80	19
89	100
91	2339
92	129
93	109
102	69
103	479
104	200
105	2949
106	169
115	1249
116	409
117	1629
118	249
119	3409
120	239
127	100
128	379
129	239
130	100
131	589
132	139
133	7429
134	669
145	179
146	19
147	9999
148	1009
149	9
161	59
162	4589
163	539
