Mass Spectrum: Aciphyllene
Formula: C15 H24
CAS: 87745-31-1
Molecular weight: 204
Origin: NIST Mass Spectrometry Data Center, 2010
m/z	RELATIVE INTENSITY
27	410
29	631
30	30
39	1692
40	360
41	3934
42	360
43	711
50	110
51	621
52	340
53	2172
54	260
55	3423
56	280
57	220
58	90
59	40
62	50
63	260
64	150
65	1772
66	470
67	4054
68	591
69	1772
70	130
72	30
76	70
77	4754
78	1091
79	8087
81	3603
82	440
83	190
91	6426
92	1251
93	5935
94	3703
95	9999
96	891
97	120
103	591
104	260
105	7747
106	2232
107	5045
108	2823
109	2252
110	300
115	921
116	380
117	1211
118	280
119	4764
120	2632
121	3023
122	1952
123	651
127	150
128	410
129	470
130	200
131	901
133	4954
134	2092
135	881
136	230
142	70
145	440
146	230
147	6156
148	1912
149	1251
150	190
151	30
152	30
153	20
155	10
161	3293
162	1181
163	250
173	40
175	1541
176	631
189	6446
190	981
191	80
204	5095
205	881
206	50
