Mass Spectrum: 4-Acetoxybenzaldehyde
Formula: C9 H8 O3
CAS: 878-00-2
Molecular weight: 164
Origin: NIST Mass Spectrometry Data Center, 1990.
m/z	RELATIVE INTENSITY
13	42
14	226
15	733
16	18
18	34
25	19
26	85
27	152
28	321
29	288
31	33
32	71
36	25
37	271
38	731
39	2418
40	189
41	102
42	19
43	8522
44	179
45	30
49	85
50	502
51	560
52	65
53	174
54	25
55	67
60	27
61	156
62	443
63	1021
64	530
65	2016
66	408
67	39
68	17
73	48
74	220
75	107
76	146
77	261
78	34
79	27
86	12
91	39
92	283
93	1429
94	351
95	34
104	23
105	91
107	32
118	29
121	9999
122	7688
123	614
124	54
135	19
136	76
164	1588
165	157
166	19
