Mass Spectrum: Cycloundecanone
Formula: C11 H20 O
CAS: 878-13-7
Molecular weight: 168
Origin: Japan AIST/NIMC Database- Spectrum MS-NW-9737
m/z	RELATIVE INTENSITY
15	40
26	70
27	1239
28	509
29	1779
30	40
31	70
32	20
34	20
37	10
38	30
39	1579
40	399
41	6479
42	2959
43	4249
44	139
45	90
46	20
47	20
48	70
50	40
51	119
52	60
53	679
54	1529
55	9999
56	3439
57	1599
58	6569
59	1659
60	60
62	10
63	30
64	10
65	179
66	289
67	2709
68	2949
69	4629
70	3069
71	5649
72	629
73	60
75	10
77	189
78	189
79	1599
80	729
81	3039
82	2479
83	4519
84	3759
85	1029
86	349
87	30
91	189
92	60
93	1319
94	989
95	1359
96	679
97	5209
98	8119
99	789
100	299
101	20
103	10
104	10
105	50
106	30
107	719
108	1339
109	509
110	2119
111	9209
112	3549
113	499
114	70
115	10
117	10
119	20
120	20
121	909
122	209
123	60
124	90
125	7229
126	869
127	239
128	30
129	10
133	10
135	449
136	50
137	20
138	10
139	589
140	109
141	20
148	10
149	40
150	149
151	20
153	199
154	30
166	20
167	20
168	3559
169	949
170	90
