Mass Spectrum: 1-Naphthalenecarbonyl chloride
Formula: C11 H7 Cl O
CAS: 879-18-5
Molecular weight: 190
Origin: Japan AIST/NIMC Database- Spectrum MS-NW-5172
m/z	RELATIVE INTENSITY
26	20
27	60
28	60
29	10
35	30
36	129
37	70
38	80
39	139
43	10
44	20
49	70
50	509
51	579
52	80
53	30
55	20
56	10
60	10
61	169
62	309
63	1169
64	149
65	10
68	30
69	20
72	10
73	70
74	589
75	719
76	379
77	939
78	119
81	209
82	80
84	20
85	70
86	149
87	229
88	40
89	30
91	10
95	10
97	30
98	209
99	169
100	149
101	539
102	60
104	10
109	10
110	10
111	20
113	10
115	10
117	10
120	10
121	10
122	40
123	10
124	10
125	129
126	1369
127	7319
128	919
129	60
139	20
146	10
153	30
154	60
155	9999
156	1169
157	90
158	10
161	30
162	119
163	20
164	40
172	99
173	20
174	20
190	1659
191	209
192	549
193	70
