Mass Spectrum: 2-Phenyl-4-methyl-oxadiazol-1,3,4-one-5
Formula: C9 H8 N2 O2
CAS: 879-60-7
Molecular weight: 176
Origin: ASES Database, Dalian Institute, P.R. China
m/z	RELATIVE INTENSITY
50	1090
51	2302
76	780
77	5054
78	790
103	790
104	2922
105	3282
106	580
131	2181
132	4484
133	700
176	9999
177	1291
