Mass Spectrum: Acetic acid, diethyl-
Formula: C6 H12 O2
CAS: 88-09-5
Molecular weight: 116
Origin: Japan AIST/NIMC Database- Spectrum MS-NW-1290
m/z	RELATIVE INTENSITY
14	30
15	189
16	10
17	20
18	70
26	219
27	2529
28	659
29	2579
30	60
31	179
32	129
36	10
37	50
38	149
39	1539
40	229
41	2999
42	589
43	9999
44	309
45	849
46	30
47	30
50	60
51	80
52	30
53	219
54	60
55	1739
56	139
57	209
58	10
59	169
60	269
61	30
62	20
63	20
65	20
66	10
67	40
68	99
69	749
70	379
71	2779
72	149
73	6619
74	369
75	40
81	10
83	99
85	20
86	50
87	3239
88	9009
89	449
90	40
97	10
98	50
99	80
101	529
102	20
117	30
