Mass Spectrum: Phenol, 2,4,6-trichloro-
Formula: C6 H3 Cl3 O
CAS: 88-06-2
Molecular weight: 196
Origin: Japan AIST/NIMC Database- Spectrum MS-NW- 282
m/z	RELATIVE INTENSITY
25	20
28	40
29	40
31	30
35	50
36	90
37	229
38	80
44	20
45	40
47	90
48	669
49	269
50	109
53	299
60	169
61	599
62	769
63	299
64	20
65	40
66	489
67	319
68	40
71	80
72	229
73	369
74	109
75	99
76	20
80	189
81	109
82	20
83	139
84	80
85	80
86	20
87	80
89	30
90	90
91	40
95	70
96	229
97	2549
98	529
99	1099
100	169
101	20
106	30
107	269
108	60
109	179
110	20
111	40
124	20
125	99
126	60
127	50
131	90
132	2439
133	539
134	1579
135	339
136	259
137	50
160	1289
161	119
162	879
163	70
164	139
167	219
168	20
169	199
171	70
195	70
196	9999
197	729
198	9509
199	679
200	3089
201	199
202	349
203	20
