Mass Spectrum: 2,4,6-Trihydroxytoluene
Formula: C7 H8 O3
CAS: 88-03-9
Molecular weight: 140
Origin: James Little,Eastman Chem.Co.,Kingsport,TN
m/z	RELATIVE INTENSITY
27	931
29	711
39	1792
41	951
42	561
43	1641
51	721
53	1441
54	550
55	2202
56	911
65	1521
66	1421
67	561
69	4844
70	1071
71	400
81	811
82	330
83	581
85	1541
93	831
94	1411
95	440
97	1181
98	250
105	230
110	490
111	3523
112	1021
121	931
122	2913
123	3623
124	320
138	5255
139	9829
140	9999
141	2622
142	380
