Mass Spectrum: Benzenamine, 2,4,6-trimethyl-
Formula: C9 H13 N
CAS: 88-05-1
Molecular weight: 135
Origin: Japan AIST/NIMC Database- Spectrum MS-NW- 756
m/z	RELATIVE INTENSITY
15	30
17	10
18	50
26	10
27	189
28	70
29	60
30	80
37	20
38	70
39	479
40	80
41	269
42	239
43	50
45	10
46	40
47	10
50	90
51	279
52	189
53	239
54	149
55	40
56	30
57	30
58	139
59	149
60	80
61	20
62	60
63	169
64	60
65	439
66	189
67	299
68	70
74	40
75	40
76	50
77	589
78	179
79	339
80	119
81	30
86	10
87	10
89	90
90	60
91	1049
92	209
93	279
94	149
95	50
101	10
102	70
103	259
104	129
105	209
106	219
107	179
108	60
109	10
115	329
116	129
117	489
118	439
119	429
120	7669
121	709
122	30
130	70
131	30
132	269
133	209
134	6009
135	9999
136	1039
137	40
