Mass Spectrum: Benzenesulfonamide, 2-methyl-
Formula: C7 H9 N O2 S
CAS: 88-19-7
Molecular weight: 171
Origin: Japan AIST/NIMC Database- Spectrum MS-NW-9139
m/z	RELATIVE INTENSITY
16	20
17	159
18	939
26	20
27	119
28	279
29	20
30	319
32	40
34	10
36	10
37	20
38	109
39	1209
40	109
41	339
42	20
43	30
44	60
45	70
46	20
47	10
48	30
49	10
50	209
51	589
52	159
53	109
54	20
55	10
58	10
61	50
62	199
63	909
64	479
65	3449
66	229
67	30
69	50
70	10
71	10
74	60
75	70
76	50
77	789
78	419
79	399
80	109
81	20
82	10
84	10
85	20
86	40
87	40
88	30
89	2439
90	9999
91	7269
92	559
93	30
94	10
95	10
96	10
97	10
104	50
105	50
106	7179
107	2139
108	349
109	209
110	40
111	60
121	70
122	30
123	10
125	10
126	30
134	40
136	249
137	1939
138	189
139	109
153	10
154	989
155	219
156	60
157	10
171	3589
172	329
173	179
174	10
