Mass Spectrum: 2-Furancarboxylic acid
Formula: C5 H4 O3
CAS: 88-14-2
Molecular weight: 112
Origin: NIST Mass Spectrometry Data Center
m/z	RELATIVE INTENSITY
14	20
17	10
24	20
25	80
26	160
27	180
28	280
29	631
30	20
33	60
36	170
37	1121
38	1892
39	5245
40	500
41	260
42	430
43	20
44	110
45	1051
46	20
47	60
49	90
50	70
51	130
52	40
53	330
54	50
55	1011
56	260
57	10
58	10
64	10
65	50
66	260
67	581
68	100
69	30
77	10
83	60
84	641
85	30
86	10
93	10
95	8568
96	480
97	50
112	9999
113	571
114	80
