Mass Spectrum: Benzenamine, 2-(trifluoromethyl)-
Formula: C7 H6 F3 N
CAS: 88-17-5
Molecular weight: 161
Origin: NIST Mass Spectrometry Data Center, 1994
m/z	RELATIVE INTENSITY
15	84
16	57
17	19
18	46
20	51
25	44
26	252
27	284
28	257
29	47
30	19
31	422
32	27
33	29
37	560
38	941
39	1437
40	301
41	508
42	119
43	17
44	63
45	90
46	228
48	31
49	120
50	815
51	683
52	964
53	139
54	132
56	134
57	427
58	45
59	25
60	17
61	367
62	547
63	1258
64	766
65	959
66	293
67	29
68	126
69	840
70	25
71	542
72	51
73	72
74	250
75	840
76	338
77	191
78	115
79	33
81	268
82	47
83	338
84	106
85	24
87	216
88	1058
89	215
90	245
91	505
92	142
93	98
94	157
95	280
96	84
97	105
99	157
100	128
101	123
102	521
103	52
106	43
107	55
108	27
109	49
110	61
111	165
112	135
113	27
114	9999
115	747
116	34
120	367
121	128
122	415
123	42
125	40
126	17
132	97
133	130
141	6429
142	1957
143	148
145	33
161	5590
162	461
