Mass Spectrum: Benzene, 1-chloro-2-(trifluoromethyl)-
Formula: C7 H4 Cl F3
CAS: 88-16-4
Molecular weight: 180
Origin: NIST Mass Spectrometry Data Center
m/z	RELATIVE INTENSITY
12	10
13	10
19	10
20	20
25	20
26	130
27	80
31	340
35	100
36	80
37	400
38	350
39	240
47	30
48	30
49	270
50	1571
51	591
52	40
53	10
55	20
56	70
57	200
60	70
61	220
62	340
63	260
67	20
68	160
69	971
70	50
71	20
72	230
73	360
74	1051
75	2422
76	360
77	50
80	450
81	250
84	150
85	240
86	90
87	150
88	50
90	50
91	70
92	50
93	170
94	200
95	1061
96	60
97	20
99	470
100	70
101	70
103	20
104	40
105	30
106	20
107	70
108	20
109	100
111	430
112	40
113	110
114	30
115	10
117	10
118	40
119	170
120	10
122	10
123	70
125	981
126	320
127	20
130	1862
131	160
132	581
133	50
135	30
137	10
141	40
143	190
145	6536
146	510
147	10
153	10
159	40
161	2843
162	250
163	961
164	70
176	10
180	9999
181	961
182	3313
183	260
