Mass Spectrum: Ethanone, 1-(2-thienyl)-
Formula: C6 H6 O S
CAS: 88-15-3
Molecular weight: 126
Origin: Japan AIST/NIMC Database- Spectrum MS-NW-3740
m/z	RELATIVE INTENSITY
12	10
13	10
14	70
15	409
17	10
18	80
25	20
26	60
27	90
28	99
29	20
32	30
33	10
36	20
37	169
38	289
39	2559
40	90
41	30
42	129
43	1439
44	60
45	709
46	20
47	40
48	20
49	90
50	169
51	129
52	30
53	129
54	10
55	50
56	20
57	509
58	379
59	40
60	30
61	40
62	50
63	60
64	10
65	20
66	10
68	30
69	199
70	30
71	30
72	10
73	10
74	20
76	10
77	20
80	20
81	199
82	239
83	1119
84	269
85	70
86	10
93	20
95	20
97	109
98	10
109	20
110	10
111	9999
112	659
113	489
114	30
125	10
126	4249
127	319
128	209
129	10
