Mass Spectrum: Aniline-o-sulfonic acid
Formula: C6 H7 N O3 S
CAS: 88-21-1
Molecular weight: 173
Origin: Japan AIST/NIMC Database- Spectrum MS-NW-7853
m/z	RELATIVE INTENSITY
14	30
15	90
16	50
17	50
18	199
26	99
27	349
28	689
29	129
30	70
31	80
32	129
33	30
34	129
35	90
36	719
37	199
38	729
39	2279
40	609
41	999
42	289
43	139
44	239
45	149
46	479
47	90
48	1059
49	30
50	429
51	579
52	1129
53	489
54	479
55	109
56	60
57	159
58	20
59	20
60	319
61	159
62	399
63	1179
64	2479
65	4369
66	3599
67	489
68	70
69	80
70	60
71	50
72	30
73	189
74	159
75	119
76	199
77	189
78	319
79	219
80	719
81	119
82	40
83	20
84	20
85	30
86	20
87	30
88	50
89	80
90	169
91	5069
92	2299
93	9999
94	819
95	50
96	60
97	50
98	40
99	50
100	30
101	20
102	20
103	20
104	20
105	30
106	189
107	80
108	769
109	309
110	50
111	20
112	20
113	20
115	20
117	20
118	20
119	20
120	20
121	10
122	50
123	30
124	30
125	70
126	40
127	50
128	10
129	20
130	10
131	10
133	10
134	10
135	20
138	459
139	60
140	70
141	30
142	20
144	20
145	20
151	10
152	10
153	10
154	20
155	2209
156	249
157	139
158	40
172	20
173	3769
174	339
175	239
176	10
