Mass Spectrum: 4-Nitro-3-(trifluoromethyl)phenol
Formula: C7 H4 F3 N O3
CAS: 88-30-2
Molecular weight: 207
Origin: NIST Mass Spectrometry Data Center, 1994
m/z	RELATIVE INTENSITY
12	66
13	39
14	54
16	212
17	96
18	157
20	98
25	114
26	546
27	336
28	314
29	854
30	8780
31	752
32	63
33	47
36	75
37	1015
38	1605
39	2164
40	144
41	69
42	343
43	16
44	101
45	16
46	1357
47	82
48	41
49	217
50	1144
51	1525
52	806
53	2072
54	281
55	466
56	433
57	2094
58	98
60	137
61	1178
62	2609
63	7835
64	1178
65	128
66	545
67	170
68	325
69	2033
70	169
71	260
72	58
73	372
74	633
75	2129
76	351
77	171
78	158
79	211
80	638
81	896
82	370
83	4521
84	278
85	40
86	81
87	564
88	735
89	139
90	107
91	333
92	564
93	443
94	304
95	446
96	50
97	143
98	40
99	1004
100	40
101	5191
102	398
103	47
104	107
105	50
106	222
107	417
110	97
111	133
113	8008
114	1194
115	124
119	122
120	120
121	1040
122	119
123	132
125	59
127	142
129	1920
130	246
131	227
132	1310
133	841
134	70
135	35
141	283
143	862
144	104
147	67
149	1814
150	125
157	48
158	38
159	182
160	38
161	5377
162	457
163	36
175	71
177	9999
178	793
179	74
188	475
191	593
192	47
207	6501
208	507
209	62
