Mass Spectrum: Benzene, 1-(1,1-dimethylethyl)-2-methoxy-4-methyl-
Formula: C12 H18 O
CAS: 88-40-4
Molecular weight: 178
Origin: Japan AIST/NIMC Database- Spectrum MS-NW-7485
m/z	RELATIVE INTENSITY
14	10
15	139
26	20
27	299
28	80
29	199
30	10
31	10
38	40
39	499
40	60
41	689
42	40
43	60
44	10
45	20
50	99
51	329
52	129
53	259
54	20
55	159
56	20
57	60
58	30
59	10
60	10
61	10
62	50
63	189
64	99
65	329
66	60
67	50
68	10
69	20
70	10
71	20
72	40
73	70
74	60
75	90
76	50
77	609
78	219
79	329
80	50
81	209
82	40
86	10
87	20
88	10
89	129
90	50
91	1049
92	129
93	179
94	20
95	10
98	10
101	20
102	80
103	239
104	109
105	2159
106	219
107	119
108	159
109	30
110	10
111	20
112	20
113	20
114	20
115	609
116	489
117	219
118	60
119	239
120	50
121	169
122	179
123	569
124	70
125	10
126	10
127	90
128	199
129	229
130	60
131	229
132	80
133	289
134	50
135	2119
136	229
137	30
138	10
141	10
144	10
145	70
146	30
147	179
148	459
149	209
150	20
151	10
157	10
158	10
159	10
160	10
161	30
162	40
163	9999
164	1269
165	109
166	10
176	10
177	10
178	2559
179	369
180	30
