Mass Spectrum: Benzenesulfonic acid, 2-amino-5-chloro-4-ethyl-
Formula: C8 H10 Cl N O3 S
CAS: 88-56-2
Molecular weight: 235
Origin: RADIAN CORP
m/z	RELATIVE INTENSITY
46	103
47	185
48	1478
49	103
50	657
51	1068
52	1437
53	534
54	390
56	103
58	575
61	349
62	780
63	1684
64	4024
65	2176
66	821
72	390
74	226
75	1622
76	801
77	1581
78	1006
79	246
80	554
84	903
86	452
88	472
89	1684
90	903
91	2608
92	472
93	287
94	287
98	226
99	205
100	328
101	328
102	862
103	595
104	1293
105	493
106	493
107	452
108	21
111	287
112	205
113	185
114	308
115	41
116	513
117	1027
118	1335
119	1027
120	1068
121	82
122	205
123	103
124	287
125	534
126	328
127	493
128	493
130	246
131	185
132	41
133	267
134	267
135	103
136	144
137	205
138	9999
139	1170
140	5482
141	575
142	801
147	123
150	82
151	370
152	719
153	1006
154	801
155	2669
156	1088
157	924
158	308
165	164
166	205
167	103
168	41
170	308
172	62
186	41
202	411
204	82
217	1006
219	390
220	246
235	7679
236	575
237	2874
238	287
239	41
