Mass Spectrum: 1,4-Benzenediol, 2,5-bis(1,1-dimethylethyl)-
Formula: C14 H22 O2
CAS: 88-58-4
Molecular weight: 222
Origin: Japan AIST/NIMC Database- Spectrum MS-NW-8128
m/z	RELATIVE INTENSITY
15	10
17	10
18	30
27	50
28	50
29	199
39	109
40	10
41	489
42	20
43	549
44	10
46	10
51	60
52	20
53	99
54	10
55	209
56	10
57	1659
58	80
59	20
60	10
63	20
64	20
65	70
66	40
67	129
68	20
69	229
70	10
71	409
72	40
73	20
74	50
75	10
77	139
78	30
79	109
80	30
81	219
82	319
83	80
86	10
87	10
89	20
91	179
92	20
93	60
94	10
95	70
96	119
97	40
102	10
103	60
104	20
105	119
106	10
107	99
108	20
109	80
110	20
111	60
115	129
116	40
117	40
118	10
119	70
120	10
121	90
122	30
123	239
124	30
125	20
127	30
128	60
129	60
130	30
131	90
132	40
133	90
134	20
135	90
136	40
137	409
138	50
139	10
141	20
143	10
144	30
145	50
146	20
147	80
148	20
149	129
150	50
151	349
152	40
153	30
155	10
157	20
158	20
159	80
160	20
161	40
162	10
163	169
164	60
165	139
166	20
173	40
174	70
175	20
177	219
178	30
179	299
180	30
189	60
190	10
191	269
192	279
193	70
205	80
206	40
207	9999
208	1449
209	139
210	10
220	40
221	40
222	5069
223	789
224	80
