Mass Spectrum: Phenol, 2-(1-methylethyl)-
Formula: C9 H12 O
CAS: 88-69-7
Molecular weight: 136
Origin: Japan AIST/NIMC Database- Spectrum MS-NW-5377
m/z	RELATIVE INTENSITY
18	60
27	329
28	129
38	129
39	769
40	99
41	339
43	60
45	60
50	179
51	519
52	139
53	179
55	129
59	50
60	159
62	99
63	289
64	80
65	509
66	139
67	119
74	60
75	109
76	60
77	1619
78	229
79	129
89	109
90	40
91	1179
92	169
93	559
94	169
95	99
101	60
102	169
103	2109
104	209
105	60
107	279
115	209
116	50
117	80
118	10
119	109
120	159
121	9999
122	899
123	60
135	60
136	3639
137	389
