Mass Spectrum: 1-(2'-Chloro-5'-sulfophenyl)-3-methyl-5-pyrazolone
Formula: C10 H9 Cl N2 O4 S
CAS: 88-76-6
Molecular weight: 288
Origin: Japan AIST/NIMC Database- Spectrum MS-NW-3819
m/z	RELATIVE INTENSITY
12	40
13	30
14	159
15	619
16	109
17	20
18	70
24	10
25	40
26	309
27	829
28	779
29	139
30	20
32	60
33	20
34	60
35	339
36	2789
37	329
38	929
39	3799
40	1479
41	9129
42	1789
43	279
44	369
45	219
46	10
47	70
48	409
49	339
50	779
51	779
52	569
53	289
54	2369
55	499
56	50
57	70
58	20
59	10
60	60
61	379
62	859
63	1679
64	759
65	799
66	129
67	559
68	409
69	709
70	60
71	60
72	119
73	1409
74	1189
75	2219
76	959
77	729
78	2099
79	639
80	239
81	129
82	609
83	99
84	289
85	199
86	249
87	289
88	849
89	329
90	1099
91	379
92	269
93	119
94	99
95	129
96	169
97	579
98	449
99	779
100	309
101	259
102	389
103	229
104	149
105	129
106	349
107	839
108	139
109	489
110	1199
111	529
112	989
113	1529
114	499
115	829
116	249
117	169
118	99
119	90
120	80
121	40
122	60
123	239
124	2779
125	599
126	1249
127	359
128	389
129	189
130	129
131	319
132	119
133	50
134	40
135	109
136	70
137	199
138	239
139	279
140	389
141	189
142	159
143	1429
144	409
145	549
146	90
147	30
148	50
149	50
150	50
151	139
152	99
153	139
154	80
155	60
156	109
157	889
158	249
159	99
160	50
161	40
162	30
163	30
164	50
165	249
166	159
167	129
168	90
169	129
170	40
171	929
172	309
173	379
174	139
175	99
176	60
177	60
178	389
179	1199
180	269
181	419
182	90
183	129
184	99
185	439
186	90
187	50
188	30
189	40
190	30
191	3389
192	1139
193	1299
194	439
195	109
196	30
197	50
198	20
199	169
200	179
201	30
202	30
203	20
204	20
205	5679
206	1419
207	3159
208	719
209	569
210	119
211	70
212	519
213	119
214	60
215	20
216	20
217	20
218	139
219	3449
220	449
221	1339
222	189
223	109
224	60
225	179
226	349
227	50
228	30
229	20
230	20
231	20
232	60
233	209
234	40
235	80
236	30
237	50
238	50
239	20
240	20
242	10
243	30
244	20
245	40
246	1279
247	149
248	479
249	70
250	50
251	109
252	299
253	9999
254	3319
255	849
256	199
257	40
258	20
259	149
260	219
261	80
262	99
263	20
264	20
265	40
266	10
267	10
268	10
270	60
271	20
272	40
273	20
274	20
275	10
276	10
280	10
281	10
282	10
284	10
286	20
287	80
288	7919
289	1099
290	2969
291	419
292	169
293	40
294	10
