Mass Spectrum: Dinoseb
Formula: C10 H12 N2 O5
CAS: 88-85-7
Molecular weight: 240
Origin: MASS SPECTROMETRY CENTER, UNIV. OF UTAH EPA-PTSEL 2760
m/z	RELATIVE INTENSITY
15	5
26	6
27	732
28	396
29	797
30	589
38	33
39	865
40	157
41	646
43	567
50	309
51	715
52	369
53	890
54	23
55	908
56	10
57	72
62	271
63	734
64	492
65	617
66	219
67	142
68	49
69	267
74	71
75	473
76	280
77	924
78	347
79	297
80	142
81	18
83	30
86	13
87	57
88	6
89	880
90	455
91	648
92	178
93	39
101	431
102	205
103	399
104	224
105	486
106	71
115	101
116	534
117	1913
118	686
119	438
120	28
128	6
130	251
131	355
132	60
133	251
134	16
135	121
144	6
145	14
146	401
147	2270
148	372
149	26
151	15
158	30
159	18
160	13
161	116
163	3952
164	452
165	104
166	5
175	177
176	225
177	668
178	21
191	12
193	359
194	266
195	57
197	204
205	597
206	20
210	387
211	9999
212	1042
213	123
222	54
223	175
224	22
225	403
240	1614
241	230
