Mass Spectrum: Benzoic acid, 2,3,5-triiodo-
Formula: C7 H3 I3 O2
CAS: 88-82-4
Molecular weight: 500
Origin: FDA, Los Angeles District Laboratory
m/z	RELATIVE INTENSITY
45	1200
49	750
50	550
53	300
61	700
62	1400
63	3050
64	250
72	450
73	4150
74	9999
75	2600
90	750
91	2900
92	250
119	450
126	200
127	3400
128	450
176	300
189	450
190	350
200	350
201	1400
217	350
218	2750
245	600
246	550
250	300
254	600
483	750
500	2650
501	300
