Mass Spectrum: Picric acid
Formula: C6 H3 N3 O7
CAS: 88-89-1
Molecular weight: 229
Origin: Japan AIST/NIMC Database- Spectrum MS-IW-2594
m/z	RELATIVE INTENSITY
16	10
25	10
26	20
27	30
28	219
29	80
30	2519
31	10
36	10
37	229
38	169
39	209
40	30
41	30
42	20
43	20
44	309
45	149
46	229
48	20
49	119
50	849
51	469
52	169
53	1119
54	109
55	80
56	10
57	30
60	40
61	819
62	2489
63	869
64	299
65	60
66	309
67	149
68	99
69	279
70	70
71	10
72	10
73	30
74	80
75	169
76	219
77	509
78	449
79	229
80	659
81	70
82	10
83	40
84	20
85	10
87	10
88	10
89	99
90	429
91	2199
92	509
93	60
94	80
95	40
96	20
97	10
102	10
103	10
104	10
105	289
106	109
107	50
108	80
109	10
119	90
120	179
121	40
122	30
123	20
124	10
132	10
136	309
137	199
138	10
149	20
150	10
151	10
152	189
153	40
155	90
166	109
167	20
171	159
172	10
183	30
196	10
199	639
200	50
209	30
213	159
214	10
229	9999
230	809
231	169
232	10
