Mass Spectrum: Phthalamide
Formula: C8 H8 N2 O2
CAS: 88-96-0
Molecular weight: 164
Origin: Japan AIST/NIMC Database- Spectrum MS-NW-4862
m/z	RELATIVE INTENSITY
15	10
16	259
17	369
18	189
26	20
27	109
28	139
29	10
36	10
37	99
38	149
39	309
40	20
41	30
42	20
43	30
44	589
45	20
49	50
50	869
51	729
52	189
53	40
54	10
59	10
60	10
61	20
62	30
63	90
64	90
65	929
66	129
73	40
74	229
75	319
76	1879
77	1479
78	199
79	10
80	10
90	149
91	109
92	699
93	70
94	10
100	10
101	30
102	809
103	989
104	1789
105	2089
106	149
107	10
114	10
117	10
118	30
119	60
120	269
121	199
122	20
128	109
129	20
130	2169
131	219
132	20
133	10
145	10
146	589
147	2429
148	9999
149	939
150	90
163	10
164	1779
165	189
166	10
