Mass Spectrum: [4.2.2]Propella-2,4,7,9-tetraene
Formula: C10 H8
CAS: 88090-34-0
Molecular weight: 128
Origin: T. TSUJI, DEP. CHEM., HOKKAIDO UNIV., SAPPORO, JAPAN
m/z	RELATIVE INTENSITY
38	98
39	489
49	98
50	1183
51	1478
52	409
61	153
62	357
63	1010
64	259
73	62
74	634
75	570
76	1161
77	579
78	557
85	38
86	95
87	152
88	28
89	105
90	10
97	21
98	122
99	58
100	60
101	377
102	4319
103	371
104	18
113	27
122	15
125	54
126	892
127	2490
128	9999
129	1067
130	59
