Mass Spectrum: Vanillin, acetate
Formula: C10 H10 O4
CAS: 881-68-5
Molecular weight: 194
Origin: NIST Mass Spectrometry Data Center
m/z	RELATIVE INTENSITY
14	30
15	280
26	60
27	90
29	150
31	30
37	60
38	150
39	310
40	10
41	270
42	170
43	4004
44	80
45	10
49	50
50	500
51	1191
52	771
53	490
54	50
55	120
61	80
62	220
63	450
64	120
65	591
66	90
67	150
68	10
69	20
73	10
74	60
75	60
76	70
77	410
78	70
79	821
80	370
81	751
82	40
91	110
92	140
93	110
94	30
95	360
96	20
104	10
105	80
106	20
107	60
108	260
109	1131
110	70
119	180
120	90
121	130
122	150
123	901
124	170
125	10
133	10
134	10
135	10
136	70
137	490
138	30
149	40
151	8237
152	9999
153	941
154	90
194	420
195	40
