Mass Spectrum: 3-Chloropropionic acid, octadecyl ester
Formula: C21 H41 Cl O2
CAS: 88168-99-4
Molecular weight: 360
Origin: V.Zaikin,Topchiev Inst.Petrochem.Synth.,Moscow
m/z	RELATIVE INTENSITY
27	1311
28	120
29	2492
30	30
31	110
36	40
37	40
38	50
39	1191
40	290
41	6005
42	1812
43	6035
44	360
45	100
47	30
49	20
51	50
52	120
53	440
54	871
55	9999
56	2232
57	4224
58	240
60	30
61	40
63	2392
65	761
66	200
67	911
68	1261
69	4414
70	2442
71	2272
72	120
73	2192
74	90
75	80
76	50
77	270
78	30
79	220
80	80
81	1201
82	2422
83	5855
84	2202
85	2412
86	270
87	30
89	30
91	3823
92	170
93	1131
94	150
95	901
96	1962
97	8227
98	2532
99	801
101	200
102	30
103	160
105	70
106	70
107	30
108	160
109	5925
110	1361
111	6496
112	1972
113	1321
114	831
115	240
119	120
121	70
122	30
123	190
124	631
125	1812
126	1281
127	1351
128	190
129	170
133	60
137	190
138	340
139	891
140	490
141	270
142	140
143	60
146	40
149	280
150	50
151	170
152	300
153	420
154	380
155	260
156	40
157	20
161	90
164	140
165	80
166	240
167	240
168	150
169	190
170	30
171	80
178	30
179	110
180	80
181	210
182	160
183	200
184	80
186	30
193	40
194	70
195	90
196	250
197	50
199	30
207	200
209	40
210	50
211	20
221	20
222	20
223	80
224	681
225	130
227	20
239	80
250	60
251	30
252	681
253	260
259	20
269	20
295	30
324	50
325	180
