Mass Spectrum: Benzene, 1,1'-(diazomethylene)bis-
Formula: C13 H10 N2
CAS: 883-40-9
Molecular weight: 194
m/z	RELATIVE INTENSITY
61	120
62	381
63	904
64	141
65	181
70	161
74	381
75	321
76	201
77	221
78	120
86	261
87	402
88	181
89	321
98	141
99	161
100	80
101	141
102	161
110	141
111	120
113	281
114	141
115	502
116	120
121	321
122	120
123	120
126	201
127	120
137	120
138	161
139	964
140	120
150	100
151	60
152	80
153	80
162	120
163	964
164	964
165	9999
166	7228
167	1185
168	141
194	2048
195	161
