Mass Spectrum: Benzothiazole, 2-phenyl-
Formula: C13 H9 N S
CAS: 883-93-2
Molecular weight: 211
Origin: NIST Mass Spectrometry Data Center, 1994
m/z	RELATIVE INTENSITY
17	8
18	29
26	49
27	103
28	30
32	6
37	160
38	392
39	1053
40	45
45	529
46	16
47	38
49	61
50	816
51	1123
52	193
53	30
54	20
57	112
58	955
60	46
61	142
62	410
63	1325
64	339
65	114
66	14
69	3069
70	221
71	198
73	51
74	197
75	410
76	569
77	612
78	71
79	49
80	24
81	334
82	1633
83	161
84	182
85	29
86	46
87	62
88	65
89	80
90	115
91	77
92	477
93	234
94	58
95	51
96	15
98	15
99	33
100	33
101	19
102	42
103	226
106	530
108	3582
109	319
110	188
111	21
113	25
114	22
115	21
116	18
120	16
121	66
122	47
123	11
125	9
126	13
127	17
128	16
133	49
134	74
135	29
138	26
139	155
140	89
141	18
145	14
150	18
151	39
152	51
159	18
160	25
164	40
165	27
166	85
167	209
168	37
176	11
177	57
178	56
179	43
182	21
183	124
184	591
185	122
186	47
196	12
210	2637
211	9999
212	1594
213	537
214	76
