Mass Spectrum: Benzoic acid, 4-hydroxy-3,5-dimethoxy-, methyl ester
Formula: C10 H12 O5
CAS: 884-35-5
Molecular weight: 212
Origin: W.T.RAINEY OAK RIDGE NATIONAL LABORATORY,OAK RIDGE,TN.USA
m/z	RELATIVE INTENSITY
15	679
39	1199
41	699
43	589
44	649
50	739
51	799
53	979
55	679
66	719
67	649
68	989
70	719
79	699
81	719
93	629
97	489
109	1119
111	329
112	459
123	459
127	1599
135	199
136	149
137	549
138	249
139	219
140	299
141	289
151	269
152	299
153	489
154	239
155	609
181	2069
182	199
183	839
184	219
185	49
196	509
197	9999
198	979
199	139
212	2109
213	249
214	39
