Mass Spectrum: 2-Chloro-4-fluorobenzamide
Formula: C7 H5 Cl F N O
CAS: 88578-90-9
Molecular weight: 173
Origin: NIST Mass Spectrometry Data Center, 1994
m/z	RELATIVE INTENSITY
16	281
17	64
18	43
26	58
28	231
29	77
31	321
32	25
35	63
36	135
37	364
38	231
39	91
40	57
43	150
44	1909
45	91
47	76
49	246
50	1031
51	222
52	92
55	147
56	128
57	259
60	75
61	353
62	369
63	414
64	112
65	53
66	46
67	64
68	666
69	273
70	57
71	36
72	36
73	413
74	1110
75	782
76	109
77	42
79	105
80	42
81	130
82	114
83	191
84	121
85	71
86	89
87	50
90	47
91	76
92	307
93	1217
94	1375
95	619
96	68
100	88
103	90
108	132
109	969
110	122
111	269
117	139
119	87
120	151
121	47
122	139
127	39
129	3739
130	525
131	1335
132	156
155	155
157	9999
158	867
159	3302
160	263
173	4695
174	421
175	1545
176	142
