Mass Spectrum: 1,4-Diphenyl-1,3-butadiene
Formula: C16 H14
CAS: 886-65-7
Molecular weight: 206
Origin: NIST Mass Spectrometry Data Center, 1990.
m/z	RELATIVE INTENSITY
15	22
26	76
27	398
28	8
29	25
37	34
38	137
39	966
40	80
41	125
44	23
50	640
51	1614
52	377
53	100
61	44
62	329
63	1095
64	236
65	1181
66	59
69	31
70	62
74	428
75	551
76	1172
77	1476
78	779
79	40
81	49
82	154
85	36
86	130
87	275
88	587
89	2154
90	36
91	7799
92	637
93	36
94	338
98	82
99	96
100	242
101	1536
102	1246
103	1095
104	227
110	35
113	135
115	2158
116	206
117	36
122	32
126	419
127	1726
128	4889
129	2561
130	268
137	30
139	230
140	37
141	145
142	29
149	24
150	154
151	285
152	515
153	126
162	32
163	129
164	248
165	1353
166	245
167	30
174	44
175	87
176	297
177	274
178	1275
179	834
180	134
187	30
189	1194
190	1617
191	3871
192	640
193	52
199	30
200	187
201	282
202	1798
203	2058
204	1467
205	4276
206	9999
207	1557
208	107
