Mass Spectrum: 2-Cyclopropen-1-one, 2,3-diphenyl-
Formula: C15 H10 O
CAS: 886-38-4
Molecular weight: 206
Origin: Japan AIST/NIMC Database- Spectrum MS-NW-7225
m/z	RELATIVE INTENSITY
26	10
27	40
28	229
37	10
38	30
39	209
40	10
49	10
50	189
51	279
52	99
55	10
59	10
61	60
62	139
63	379
64	30
65	40
73	20
74	259
75	309
76	1099
77	169
78	30
81	20
85	40
86	119
87	179
88	389
89	959
90	20
97	10
98	139
99	90
100	60
101	40
102	129
103	10
109	10
110	50
111	50
112	20
113	70
114	20
115	70
122	40
123	20
124	10
125	40
126	349
127	80
128	70
129	10
134	10
137	60
138	70
139	209
140	20
149	30
150	309
151	579
152	629
153	80
162	10
163	60
164	10
174	60
175	129
176	1249
177	739
178	9999
179	1539
180	119
206	20
