Mass Spectrum: 3,5-di(Trifluoromethyl)phenylhydrazine
Formula: C8 H6 F6 N2
CAS: 886-35-1
Molecular weight: 244
Origin: NIST Mass Spectrometry Data Center, 1994
m/z	RELATIVE INTENSITY
15	5
16	503
17	621
28	967
29	5257
30	1957
31	4616
32	62
36	43
37	239
38	575
39	278
40	152
41	54
42	61
43	275
44	52
46	118
49	104
50	826
51	753
52	293
53	56
54	52
55	42
56	187
57	686
60	35
61	335
62	703
63	1169
64	262
65	138
67	33
69	4709
70	182
72	34
73	116
74	763
75	2478
76	226
77	160
78	116
79	124
80	177
81	469
82	148
83	67
85	60
86	87
87	324
88	557
89	150
90	139
91	29
92	99
93	305
94	379
95	387
96	100
98	71
99	672
100	219
101	438
102	86
103	62
104	68
105	198
106	228
107	136
108	245
109	138
111	90
112	505
113	516
114	209
115	29
117	71
118	112
119	173
120	108
121	42
122	234
123	224
124	138
125	980
126	286
127	614
128	262
129	68
130	70
131	255
132	1254
133	150
135	38
136	48
137	97
138	397
139	1116
140	315
141	37
142	37
143	858
144	1484
145	1554
146	213
147	78
148	465
149	54
150	216
151	164
152	27
154	52
155	152
157	409
158	709
159	486
160	235
161	129
162	27
163	1636
164	296
165	66
169	60
170	45
173	59
175	1398
176	218
177	381
178	260
179	95
180	45
181	614
182	1433
183	124
185	117
188	1794
189	173
193	137
194	666
195	2290
196	392
197	364
198	56
199	56
200	306
201	228
205	41
206	68
207	265
208	969
209	217
210	157
213	1054
214	224
223	139
225	3127
226	350
227	1227
228	1962
229	1444
230	108
241	131
242	295
244	9999
245	925
246	55
