Mass Spectrum: .alpha.-(4-Bromophenylimino)-ortho-cresol
Formula: C13 H10 Br N O
CAS: 886-34-0
Molecular weight: 275
Origin: NIST Mass Spectrometry Data Center, 1994
m/z	RELATIVE INTENSITY
16	27
17	38
18	60
26	40
27	243
28	466
37	347
38	1078
39	2525
40	281
41	41
46	29
50	2914
51	3447
52	791
53	393
54	83
55	152
57	57
58	80
61	236
62	636
63	1732
64	1049
65	1234
66	478
67	61
68	32
70	240
71	352
74	692
75	2532
76	3429
77	2309
78	481
79	134
80	40
81	51
84	1500
85	87
86	66
87	138
88	189
89	358
90	304
91	959
92	466
93	142
94	483
95	55
98	941
100	45
101	93
102	842
103	188
104	90
105	183
106	47
107	43
111	32
113	146
114	222
115	594
116	167
117	158
118	32
119	594
120	2223
121	184
126	42
127	66
128	132
129	179
130	52
131	97
138	114
139	700
140	494
141	455
142	96
143	147
145	104
150	57
151	229
152	131
153	69
154	57
155	1920
156	399
157	1946
158	298
164	45
166	621
167	1571
168	572
169	133
170	45
171	50
177	137
178	149
179	189
180	54
181	45
182	548
183	45
184	546
185	47
194	197
195	1172
196	1335
197	248
198	43
220	42
221	33
222	38
230	100
232	85
246	318
247	78
248	302
249	49
258	557
259	233
260	512
261	212
274	7284
275	9396
276	8431
277	9999
278	1496
279	112
