Mass Spectrum: Terbutryn
Formula: C10 H19 N5 S
CAS: 886-50-0
Molecular weight: 241
Origin: NIST Mass Spectrometry Data Center, 1995
m/z	RELATIVE INTENSITY
15	541
16	46
18	253
27	1383
28	1418
29	2252
30	757
39	1021
41	3650
42	2680
43	4734
44	1610
45	459
46	343
47	591
48	125
49	79
51	26
52	47
53	359
54	257
55	1433
56	761
57	1472
58	951
59	213
60	77
61	120
67	437
68	4271
69	1286
70	557
71	2799
72	354
73	77
74	1926
75	111
76	138
78	35
79	37
80	183
81	134
82	270
83	2379
84	275
85	853
86	208
87	53
88	37
89	124
90	72
91	208
92	35
93	588
94	297
95	363
96	1829
97	459
98	287
99	690
100	196
101	93
102	215
103	183
104	43
105	37
106	1900
107	35
108	310
109	152
110	535
111	1182
112	312
113	1238
114	255
115	234
116	471
117	68
118	33
121	81
122	143
123	239
124	147
125	106
126	68
127	360
128	271
129	48
130	49
131	185
136	1321
137	241
138	1303
139	1126
140	219
141	213
142	676
143	187
144	608
145	55
146	40
149	23
150	122
151	172
152	489
153	197
154	109
155	178
156	847
157	1571
158	227
159	82
164	45
165	32
166	74
167	95
168	180
169	32
170	6291
171	577
172	356
173	43
178	148
179	74
180	102
181	57
182	125
183	313
184	1525
185	8385
186	1107
187	461
188	60
195	84
196	118
198	451
199	118
200	35
209	87
210	220
211	83
212	29
224	247
226	9999
227	1144
228	502
229	45
238	23
241	5584
242	835
243	338
244	38
