Mass Spectrum: 2-Acetyl-5-cyanothiophene
Formula: C7 H5 N O S
CAS: 88653-55-8
Molecular weight: 151
Origin: NIST Mass Spectrometry Data Center
m/z	RELATIVE INTENSITY
11	10
12	30
13	40
14	150
15	571
16	10
17	10
18	10
24	20
25	50
26	90
27	70
28	100
29	50
30	20
31	20
32	130
33	20
36	70
37	561
38	340
39	160
40	20
42	340
43	2752
44	170
45	530
46	40
47	30
48	50
49	130
50	250
51	230
52	70
53	120
54	30
56	80
57	911
58	210
59	50
60	40
61	100
62	170
63	300
64	2462
65	140
66	20
68	100
69	390
70	370
71	60
72	50
74	70
75	140
76	60
78	20
80	120
81	280
82	270
83	110
84	30
86	20
87	10
88	20
92	30
93	60
94	40
95	60
96	20
106	110
107	160
108	1021
109	220
110	60
111	10
122	80
136	9999
137	761
138	460
139	50
151	3493
152	320
153	190
