Mass Spectrum: 3-Chloropropanoic acid, 2-pentyl ester
Formula: C8 H15 Cl O2
CAS: 88736-67-8
Molecular weight: 178
Origin: V.Zaikin,Topchiev Inst.Petrochem.Synth.,Moscow
m/z	RELATIVE INTENSITY
25	30
26	300
27	1471
28	180
29	631
30	40
31	40
35	80
36	450
37	40
38	140
39	861
40	190
41	1271
42	1291
43	1682
44	40
45	290
49	50
52	280
53	280
54	130
55	3003
56	210
57	80
58	50
59	10
60	10
61	60
62	120
63	2542
64	100
65	831
66	40
67	250
68	160
69	220
70	4384
71	1682
72	120
73	310
74	30
75	20
77	120
81	80
82	40
83	30
84	20
85	20
86	50
87	190
89	40
90	20
91	9999
92	400
93	3333
94	130
95	30
96	40
97	20
99	540
100	40
105	10
106	60
107	20
108	330
109	470
110	110
111	150
113	30
115	50
119	10
121	10
124	10
127	410
128	40
133	20
134	60
135	2202
136	170
137	691
138	40
150	10
163	140
164	10
165	50
