Mass Spectrum: Benzenamine, N,N-dimethyl-4-[(phenylimino)methyl]-
Formula: C15 H16 N2
CAS: 889-37-2
Molecular weight: 224
Origin: Humboldt-Universitat zu Berlin, Department of Chemistry, Analytical Group
m/z	RELATIVE INTENSITY
13	17
14	57
15	1062
16	30
17	171
18	707
26	111
27	623
28	456
29	74
30	114
31	23
37	77
38	312
39	1270
40	134
41	245
42	2299
43	214
44	399
45	30
50	1042
51	3954
52	563
53	111
54	74
55	64
56	37
57	23
58	20
61	54
62	258
63	932
64	395
65	633
66	188
67	57
68	94
69	54
70	34
71	20
73	27
74	265
75	432
76	985
77	8310
78	1176
79	710
80	134
81	40
82	23
84	54
86	67
87	90
88	137
89	607
90	466
91	942
92	369
93	201
94	80
95	20
96	34
98	255
100	40
101	84
102	493
103	543
104	1950
105	968
106	241
107	44
111	727
112	1089
114	74
115	204
116	268
117	308
118	576
119	600
120	1019
121	261
122	27
125	34
126	77
127	114
128	194
129	412
130	298
131	305
132	194
133	34
134	40
139	90
140	94
141	47
142	44
143	245
145	1910
146	925
147	442
148	67
149	34
150	57
151	181
152	426
153	228
154	77
155	34
158	27
159	57
164	27
165	47
166	90
167	137
168	50
177	37
178	245
179	516
180	426
181	121
182	40
190	20
191	23
192	64
193	57
194	40
195	20
196	30
205	47
207	1903
208	623
209	154
210	27
221	101
223	9704
224	9999
225	1689
226	134
