Mass Spectrum: Benzenesulfonic acid, 2,4-dinitro-
Formula: C6 H4 N2 O7 S
CAS: 89-02-1
Molecular weight: 248
Origin: Japan AIST/NIMC Database- Spectrum MS-IW-3879
m/z	RELATIVE INTENSITY
16	30
18	20
26	90
27	80
28	699
29	109
30	9999
31	80
32	90
36	20
37	499
38	1019
39	979
40	90
41	40
42	50
43	30
44	329
45	349
46	1489
47	20
48	439
49	169
50	899
51	1299
52	999
53	3689
54	239
55	299
56	30
57	50
58	30
60	40
61	619
62	2599
63	6369
64	2529
65	3209
66	259
67	199
68	199
69	529
70	80
71	50
72	30
73	659
74	5339
75	5129
76	749
77	259
78	159
79	2149
80	939
81	159
82	129
83	60
84	20
85	20
86	30
87	90
88	129
89	40
90	479
91	4489
92	2899
93	709
94	99
95	199
96	90
97	20
98	20
99	10
104	30
105	60
106	60
107	829
108	749
109	99
110	30
111	99
112	10
120	99
121	799
122	979
123	80
124	30
127	10
135	179
136	20
137	99
138	529
139	80
140	10
149	10
150	10
151	159
152	20
154	1039
155	139
156	20
157	30
167	2049
168	4009
169	299
170	50
172	20
183	10
184	3719
185	299
186	90
187	10
200	30
201	30
202	119
203	70
204	10
218	99
219	20
230	30
231	129
232	319
233	30
234	20
248	7189
249	619
250	459
251	30
