Mass Spectrum: 1,2-Benzenedicarboxylic acid, butyl decyl ester
Formula: C22 H34 O4
CAS: 89-19-0
Molecular weight: 362
Origin: RADIAN CORP
m/z	RELATIVE INTENSITY
15	10
26	30
27	430
29	1240
30	40
39	300
41	1850
42	280
43	1320
50	60
51	60
53	80
54	80
55	610
56	330
57	590
58	30
65	250
66	20
67	100
69	160
70	40
71	100
76	260
77	110
79	30
81	30
83	40
85	100
92	10
93	260
94	10
97	20
98	20
104	210
105	190
106	20
111	20
112	20
121	270
122	110
123	80
132	20
140	20
141	20
149	9999
150	940
151	110
160	30
167	100
176	20
178	10
205	540
206	110
223	870
224	120
289	60
307	70
363	60
364	10
