Mass Spectrum: 3H-Pyrazol-3-one, 2,4-dihydro-5-methyl-2-phenyl-
Formula: C10 H10 N2 O
CAS: 89-25-8
Molecular weight: 174
Origin: NIST Mass Spectrometry Data Center, 1998.
m/z	RELATIVE INTENSITY
14	10
15	30
26	50
27	160
28	10
29	20
37	100
38	320
39	1310
40	340
41	1040
42	450
43	30
49	30
50	550
51	1980
52	380
53	70
54	340
55	90
61	50
62	130
63	770
64	1450
65	530
66	60
67	50
68	50
69	330
70	10
73	30
74	160
75	120
76	220
77	7269
78	990
79	60
80	10
81	10
82	80
83	10
87	120
88	30
89	30
90	160
91	7159
92	680
93	180
94	10
102	40
103	110
104	310
105	3690
106	350
107	40
108	10
115	80
116	30
117	90
118	60
119	110
120	10
128	10
129	80
130	50
131	130
132	1250
133	140
134	10
144	10
145	640
146	250
147	20
157	10
158	10
159	40
160	10
172	10
174	9999
175	1230
176	80
