Mass Spectrum: p-Menth-8-en-3-ol, acetate
Formula: C12 H20 O2
CAS: 89-49-6
Molecular weight: 196
Origin: Japan AIST/NIMC Database- Spectrum MS-NW-8961
m/z	RELATIVE INTENSITY
15	70
27	319
28	119
29	499
30	10
31	30
39	609
40	159
41	1959
42	209
43	9999
44	259
45	50
50	10
51	80
52	70
53	699
54	159
55	1549
56	349
57	259
58	70
59	70
60	20
61	40
63	20
64	10
65	209
66	129
67	1389
68	1209
69	1879
70	259
71	689
72	80
73	20
77	499
78	119
79	1809
80	1299
81	3939
82	549
83	579
84	539
85	359
86	50
87	10
91	469
92	789
93	4169
94	2259
95	1399
96	279
97	749
98	309
99	90
100	10
101	80
103	20
104	10
105	209
106	80
107	3659
108	1419
109	1649
110	389
111	549
112	319
113	90
114	20
115	20
117	20
119	90
120	209
121	4619
122	499
123	259
124	40
125	90
126	30
127	20
133	10
134	109
135	529
136	6419
137	849
138	219
139	469
140	50
141	20
145	119
146	10
149	40
150	20
151	20
152	80
153	139
154	189
155	20
160	10
163	129
164	20
165	10
177	10
178	20
181	10
196	70
197	10
