Mass Spectrum: 1H-Isoindole-1,3(2H)-dione, 5-nitro-
Formula: C8 H4 N2 O4
CAS: 89-40-7
Molecular weight: 192
Origin: Japan AIST/NIMC Database- Spectrum MS-NW-3571
m/z	RELATIVE INTENSITY
12	10
14	10
16	30
25	30
26	50
27	70
28	519
29	40
30	1619
31	20
32	30
36	60
37	489
38	389
39	99
40	10
41	30
42	20
43	90
44	99
45	30
46	99
48	30
49	169
50	279
51	169
52	109
53	219
54	10
55	10
59	10
60	60
61	299
62	529
63	719
64	109
65	40
66	50
67	10
70	139
71	10
72	40
73	499
74	2809
75	8339
76	629
77	109
78	129
79	30
80	10
84	10
85	10
86	40
87	60
88	109
89	169
90	129
91	199
92	30
93	10
99	30
100	50
101	109
102	899
103	9999
104	799
105	60
106	369
107	40
116	10
117	99
118	50
119	379
120	50
121	10
128	10
133	10
134	40
145	70
146	1229
147	129
148	1149
149	1939
150	179
151	20
162	599
163	60
164	10
176	189
177	20
192	7109
193	709
194	99
