Mass Spectrum: Menthyl salicylate
Formula: C17 H24 O3
CAS: 89-46-3
Molecular weight: 276
Origin: NIST Mass Spectrometry Data Center, 1994
m/z	RELATIVE INTENSITY
15	243
27	2343
29	2016
30	46
31	54
37	71
39	3792
41	6970
43	5869
44	196
45	53
50	76
51	187
53	1470
55	6455
56	655
57	1923
58	83
61	32
62	168
63	707
64	864
65	3534
66	470
67	2075
68	657
69	2937
70	277
71	372
74	38
75	64
77	69
79	696
80	981
81	5203
82	1773
83	5388
84	393
85	60
92	1961
93	1918
94	917
95	4460
96	1092
97	1036
98	80
105	29
107	36
109	490
110	166
111	38
120	5594
121	6241
122	527
123	1668
124	193
138	9999
139	1638
140	169
276	615
277	138
278	62
