Mass Spectrum: Benzoic acid, 4-methoxy-3-nitro-
Formula: C8 H7 N O5
CAS: 89-41-8
Molecular weight: 197
Origin: NIST Mass Spectrometry Data Center, 1994
m/z	RELATIVE INTENSITY
15	614
17	13
18	26
26	125
27	194
29	411
30	1429
31	271
36	41
37	340
38	510
39	869
40	70
41	171
42	54
43	88
44	106
45	723
46	286
50	1328
51	1372
52	721
53	985
54	121
55	297
59	68
60	49
61	516
62	1317
63	2392
64	49
65	4013
66	668
67	281
68	322
69	252
70	52
71	133
73	244
74	1040
75	1224
76	1742
77	1057
78	1077
79	869
80	316
81	898
82	96
83	72
91	821
92	231
93	655
94	423
95	426
96	478
97	68
101	31
102	93
103	487
104	1054
105	688
106	596
107	346
108	379
109	851
110	31
111	858
112	60
119	5421
120	589
121	946
122	426
123	175
124	241
125	59
132	52
133	224
134	46
135	46
136	2163
137	1131
138	158
139	978
140	107
150	9999
151	810
152	263
153	34
164	68
167	5509
168	808
169	97
180	496
181	85
197	6224
198	627
199	91
