Mass Spectrum: Benzoic acid, 5-bromo-2-hydroxy-
Formula: C7 H5 Br O3
CAS: 89-55-4
Molecular weight: 216
Origin: Japan AIST/NIMC Database- Spectrum MS-NW- 358
m/z	RELATIVE INTENSITY
17	30
18	109
25	40
26	80
27	139
28	40
29	159
31	119
32	10
36	70
37	499
38	609
39	599
40	40
41	30
42	40
43	20
44	30
45	459
46	179
48	20
49	129
50	299
51	309
52	109
53	939
54	139
55	109
59	149
60	109
61	599
62	1159
63	4359
64	639
65	119
66	129
67	20
68	189
69	50
71	179
72	189
73	70
74	229
75	169
76	20
77	60
79	90
80	40
81	179
82	30
85	659
86	579
89	20
90	119
91	609
92	239
93	30
95	20
99	379
100	399
107	30
108	90
109	70
115	20
116	40
117	169
118	50
119	449
120	80
131	20
133	30
137	50
138	30
141	40
142	719
143	339
144	719
145	309
146	20
159	50
161	50
169	20
170	3069
171	319
172	3059
173	319
174	20
178	20
187	20
189	20
198	9999
199	979
200	9769
201	839
202	70
215	20
216	3549
217	279
218	3459
219	289
220	40
