Mass Spectrum: Benzenamine, 4-chloro-2-nitro-
Formula: C6 H5 Cl N2 O2
CAS: 89-63-4
Molecular weight: 172
Origin: NIST Mass Spectrometry Data Center
m/z	RELATIVE INTENSITY
18	50
26	60
27	70
28	40
30	510
36	70
37	390
38	591
39	621
40	220
41	480
42	50
44	170
46	190
47	80
48	60
49	380
50	550
51	881
52	1922
53	280
54	140
60	150
61	751
62	1511
63	4454
64	1411
65	841
66	190
71	60
72	260
73	1371
74	490
75	831
76	751
77	190
78	781
79	150
80	110
84	60
85	90
86	230
87	330
88	290
89	500
90	4674
91	1722
92	180
97	240
98	450
99	5435
100	581
101	1832
102	190
103	520
105	130
111	140
112	120
113	120
114	2182
115	160
116	731
124	591
125	550
126	8167
127	731
128	2482
129	180
138	180
140	70
141	80
142	1682
143	150
144	540
154	270
155	400
156	320
157	160
158	80
170	120
171	70
172	9999
173	731
174	3193
175	240
