Mass Spectrum: Phenol, 4-chloro-5-methyl-2-(1-methylethyl)-
Formula: C10 H13 Cl O
CAS: 89-68-9
Molecular weight: 184
Origin: Japan AIST/NIMC Database- Spectrum MS-NW-4221
m/z	RELATIVE INTENSITY
14	10
15	70
26	20
27	279
28	30
29	60
36	30
37	30
38	80
39	509
40	50
41	369
42	20
43	99
44	10
45	10
49	20
50	159
51	579
52	149
53	179
54	10
55	99
56	10
57	50
58	30
59	20
60	10
61	40
62	90
63	289
64	80
65	279
66	139
67	70
68	10
69	30
72	30
73	80
74	90
75	139
76	60
77	759
78	179
79	269
80	20
81	10
83	20
84	129
85	50
86	40
87	60
88	20
89	179
90	50
91	479
92	60
93	40
94	10
97	10
98	10
99	60
100	10
101	50
102	80
103	269
104	99
105	999
106	179
107	149
108	40
109	40
110	10
111	10
112	20
113	60
114	50
115	949
116	579
117	99
118	30
119	80
120	20
121	149
122	10
123	10
124	10
125	159
126	40
127	99
128	99
129	99
130	40
131	90
132	50
133	569
134	709
135	80
136	40
137	10
138	20
139	119
140	30
141	279
142	70
143	159
144	20
145	30
146	10
147	30
148	30
149	349
150	50
151	339
152	40
153	129
154	50
155	209
156	30
157	70
158	10
165	10
166	20
167	70
168	119
169	9999
170	1059
171	3229
172	339
173	20
182	20
183	50
184	2989
185	379
186	1009
187	109
188	10
