Mass Spectrum: Benzene, 1-chloro-4-methyl-2-nitro-
Formula: C7 H6 Cl N O2
CAS: 89-60-1
Molecular weight: 171
Origin: Japan AIST/NIMC Database- Spectrum MS-NW- 964
m/z	RELATIVE INTENSITY
15	50
16	20
17	20
18	70
25	20
26	159
27	559
28	499
29	10
30	2789
31	10
35	70
36	269
37	489
38	709
39	3569
40	289
41	229
42	10
43	239
44	99
45	10
46	169
47	70
48	30
49	279
50	1309
51	1919
52	389
53	249
54	20
55	40
59	60
60	80
61	579
62	1589
63	5559
64	819
65	869
66	50
71	10
72	169
73	1489
74	529
75	1049
76	169
77	7339
78	1179
79	70
80	40
84	159
85	329
86	419
87	479
88	169
89	9999
90	2909
91	219
92	20
96	50
97	259
98	40
99	3749
100	199
101	1129
102	80
103	20
104	60
105	70
106	169
107	40
108	50
109	20
110	30
111	50
112	80
113	4689
114	349
115	1569
116	109
123	209
124	439
125	7829
126	799
127	2479
128	209
129	40
136	149
137	20
140	40
141	1629
142	149
143	539
144	50
154	50
155	229
156	40
157	80
169	30
170	60
171	9469
172	789
173	3109
174	269
175	20
