Mass Spectrum: Benzene, 1,2,4-trichloro-5-nitro-
Formula: C6 H2 Cl3 N O2
CAS: 89-69-0
Molecular weight: 225
Origin: Japan AIST/NIMC Database- Spectrum MS-NW-1276
m/z	RELATIVE INTENSITY
12	40
14	10
16	30
17	10
18	30
24	30
25	70
26	30
27	20
28	459
29	30
30	9579
31	40
32	10
35	189
36	479
37	1519
38	399
39	30
43	20
44	90
46	219
47	379
48	189
49	629
50	719
51	99
52	20
53	30
54	169
55	50
59	30
60	419
61	989
62	689
63	99
64	20
65	30
66	10
71	279
72	869
73	2609
74	6049
75	499
76	60
82	20
83	599
84	2489
85	539
86	919
87	279
88	169
89	20
90	10
94	199
95	129
96	299
97	1039
98	239
99	329
100	60
106	60
107	1149
108	3709
109	4989
110	1539
111	1529
112	119
113	10
114	10
116	10
117	60
118	379
119	499
120	279
121	309
122	90
123	70
124	40
125	30
126	10
127	10
129	10
130	10
131	139
132	179
133	119
134	109
135	30
136	20
138	20
140	10
141	30
142	70
143	7009
144	3819
145	4599
146	2409
147	839
148	399
149	30
153	30
155	20
157	10
158	129
159	20
160	259
161	30
162	149
163	20
164	40
166	10
167	9079
168	519
169	8699
170	489
171	2849
172	159
173	319
174	20
175	10
177	10
178	149
179	8539
180	699
181	8109
182	599
183	2639
184	179
185	279
186	20
190	20
191	10
192	10
193	10
194	10
195	3989
196	269
197	3779
198	259
199	1239
200	80
201	139
202	10
209	329
210	20
211	319
212	20
213	119
214	10
215	20
224	10
225	9999
226	739
227	9489
228	679
229	3089
230	219
231	339
232	30
