Mass Spectrum: Benzenemethanamine, 2-methyl-
Formula: C8 H11 N
CAS: 89-93-0
Molecular weight: 121
Origin: Japan AIST/NIMC Database- Spectrum MS-NW-6161
m/z	RELATIVE INTENSITY
15	30
16	10
26	30
27	239
28	779
29	179
30	1789
31	30
37	50
38	129
39	639
40	70
41	149
42	70
43	30
44	30
45	30
46	60
47	10
49	20
50	209
51	479
52	169
53	159
54	60
55	20
56	10
57	30
58	109
59	289
60	40
61	60
62	129
63	339
64	90
65	569
66	80
67	30
68	10
73	20
74	70
75	60
76	60
77	1199
78	899
79	839
80	99
85	10
86	30
87	20
88	10
89	239
90	159
91	1399
92	349
93	1199
94	109
98	10
101	10
102	99
103	879
104	9999
105	1599
106	1279
107	99
116	109
117	269
118	279
119	119
120	1479
121	649
122	50
