Mass Spectrum: Benzene, 1-(bromomethyl)-2-methyl-
Formula: C8 H9 Br
CAS: 89-92-9
Molecular weight: 184
Origin: NIST Mass Spectrometry Data Center
m/z	RELATIVE INTENSITY
15	10
26	30
27	130
37	30
38	110
39	400
40	40
41	20
49	30
50	390
51	881
52	330
53	110
61	60
62	190
63	460
64	100
65	180
66	30
73	20
74	160
75	110
76	150
77	1541
78	831
79	1611
80	110
81	50
82	10
85	10
86	30
87	40
89	230
90	80
91	150
92	80
93	10
98	20
101	20
102	240
103	1631
104	801
105	9999
106	921
107	30
169	50
171	50
184	781
185	70
186	771
187	60
