Mass Spectrum: Acetic acid, dimethoxy-, methyl ester
Formula: C5 H10 O4
CAS: 89-91-8
Molecular weight: 134
Origin: Japan AIST/NIMC Database- Spectrum MS-NW-5708
m/z	RELATIVE INTENSITY
13	20
14	70
15	1729
16	50
17	10
18	30
27	20
28	299
29	1549
30	139
31	2209
32	169
33	149
41	30
42	30
43	149
44	279
45	279
46	10
47	2469
48	70
49	10
56	10
58	10
59	409
60	20
61	139
72	119
73	10
74	20
75	9999
76	359
77	60
79	10
83	10
87	10
88	10
89	50
91	10
92	10
103	749
104	60
105	10
133	20
