Mass Spectrum: Benzenemethanamine, 2-chloro-
Formula: C7 H8 Cl N
CAS: 89-97-4
Molecular weight: 141
Origin: Japan AIST/NIMC Database- Spectrum MS-NW-6043
m/z	RELATIVE INTENSITY
14	10
15	10
25	10
26	50
27	179
28	2069
29	869
30	4239
31	80
35	20
36	70
37	119
38	179
39	389
40	50
41	50
42	20
43	40
44	30
45	10
47	10
48	10
49	109
50	749
51	1129
52	699
53	149
54	60
55	10
57	10
59	10
60	30
61	99
62	179
63	379
64	90
65	80
66	20
67	20
68	10
69	20
70	139
71	40
72	30
73	179
74	309
75	589
76	299
77	3019
78	579
79	1229
80	119
82	10
84	50
85	99
86	70
87	70
88	30
89	659
90	149
91	139
92	20
93	10
95	10
96	10
97	20
98	10
99	169
100	30
101	70
102	239
103	90
104	479
105	129
106	9999
107	939
108	80
109	10
110	10
111	90
112	589
113	519
114	239
115	159
116	20
117	10
123	40
124	50
125	1349
126	179
127	449
128	70
137	30
138	169
139	50
140	4059
141	769
142	1399
143	249
144	30
