Mass Spectrum: Pentanoic acid, 2-pentyl ester
Formula: C10 H20 O2
CAS: 89155-38-4
Molecular weight: 172
Origin: V.Zaikin,Topchiev Inst.Petrochem.Synth.,Moscow
m/z	RELATIVE INTENSITY
26	70
27	661
28	130
29	1111
30	30
31	30
35	20
36	110
38	40
39	440
40	80
41	1501
42	661
43	2112
44	90
45	380
53	100
54	40
55	1411
56	290
57	2933
58	150
59	40
60	1361
61	160
67	30
68	10
69	90
70	2572
71	1431
72	80
73	550
74	60
75	100
82	30
83	60
84	40
85	9999
86	681
87	581
88	30
100	10
101	60
102	1071
103	2122
104	120
105	10
115	10
128	80
129	781
130	150
157	70
