Mass Spectrum: 2-Hydroxyisocaproic acid, (S)-, 2TBDMS derivative
Formula: C18 H40 O3 Si2
CAS: 89682-23-5
Molecular weight: 360
Origin: NIST Mass Spectrometry Data Center
m/z	RELATIVE INTENSITY
97	190
103	100
105	70
106	10
111	20
113	50
115	581
117	320
118	50
119	160
120	20
121	10
123	10
125	10
127	30
129	811
130	70
131	420
133	2462
134	300
135	220
136	20
137	10
141	10
143	130
145	460
147	8918
148	2062
149	1692
150	180
151	110
152	10
153	10
155	20
156	10
157	50
159	150
160	40
161	60
162	20
163	210
164	30
165	10
169	40
171	991
172	130
173	140
175	661
176	110
177	100
178	10
185	120
186	20
187	80
189	5055
190	1151
191	510
192	80
193	10
197	10
199	30
201	3743
202	641
203	561
204	90
205	50
206	10
207	10
211	10
213	110
214	10
215	20
217	30
219	1151
220	230
221	100
222	10
227	20
229	10
231	260
232	80
233	50
234	10
245	500
246	170
247	80
248	20
259	120
260	30
261	40
262	10
275	5285
276	1341
277	510
278	80
279	10
285	10
287	360
288	90
289	50
290	10
303	9999
304	3333
305	1331
306	230
307	40
317	130
318	40
319	10
329	50
330	10
331	10
345	400
346	110
347	40
348	10
359	10
360	10
