Mass Spectrum: Cyclohexanone, 2,6-bis(phenylmethylene)-
Formula: C20 H18 O
CAS: 897-78-9
Molecular weight: 274
Origin: MUS107 A. Mujsce, AT&T Bell Labs., Murray Hill, N.J., USA
m/z	RELATIVE INTENSITY
27	123
38	54
39	441
50	171
51	595
52	191
53	114
62	104
63	464
64	90
65	512
66	67
71	60
74	141
75	206
76	377
77	851
78	493
79	121
84	92
88	81
89	666
90	104
91	1045
92	137
94	62
95	90
99	40
100	58
101	206
102	826
103	308
105	77
108	125
109	90
110	79
113	125
115	3369
116	760
117	214
119	44
122	127
123	89
124	64
126	116
127	631
128	1536
129	1105
130	133
131	71
132	81
134	65
135	79
139	129
140	85
141	772
142	233
143	73
151	100
152	385
153	343
154	183
155	218
157	85
163	58
164	90
165	350
166	123
167	433
168	368
169	462
177	71
178	169
179	119
181	210
183	271
187	46
188	62
189	146
190	85
191	127
195	117
196	96
199	46
202	822
203	834
204	370
205	219
206	62
207	158
212	62
213	65
215	660
216	264
217	1914
218	945
219	160
220	73
226	77
227	54
228	150
229	123
230	90
231	314
239	90
244	87
245	493
246	472
247	112
257	58
271	85
273	9999
274	6723
275	1365
276	198
