Mass Spectrum: N,N'-Dimethyl-5-pyrrolidinone-3-carboxamide
Formula: C7 H12 N2 O2
CAS: 89851-99-0
Molecular weight: 156
Origin: NIST Mass Spectrometry Data Center, 1994
m/z	RELATIVE INTENSITY
15	1332
26	252
27	1138
28	593
29	252
30	914
38	191
39	2306
40	632
41	3810
42	4657
43	608
44	2357
52	174
53	282
54	465
55	2369
56	569
57	308
58	3237
60	286
66	134
68	1767
69	1724
70	5676
71	381
82	301
83	370
84	3446
85	763
86	784
96	395
97	2557
98	9999
99	902
100	187
113	265
114	270
124	325
126	361
128	1567
129	122
156	731
157	62
