Mass Spectrum: 1-Ethyl-2-pyrrolidone-4-carboxamide
Formula: C7 H12 N2 O2
CAS: 89852-01-7
Molecular weight: 156
Origin: NIST Mass Spectrometry Data Center, 1994
m/z	RELATIVE INTENSITY
12	89
14	308
15	1363
16	440
17	481
18	399
25	93
26	1052
27	4746
28	5325
29	2519
30	3165
31	118
32	17
37	152
38	369
39	3734
40	1206
41	8455
42	5400
43	1412
44	7608
45	511
46	221
51	159
52	554
53	1070
54	1428
55	3775
56	3480
57	2261
58	2261
59	163
66	266
67	448
68	3039
69	1681
70	1374
71	1277
72	1424
73	308
80	240
82	1475
83	1520
84	9543
85	1199
86	1495
94	261
95	496
96	2323
97	997
98	376
99	1447
100	223
110	482
111	3911
112	9999
113	2188
114	443
123	423
124	250
126	164
128	4063
129	339
138	368
139	175
141	578
156	2472
157	184
