Mass Spectrum: 2- Bromopropionic acid, octadecyl ester
Formula: C21 H41 Br O2
CAS: 89876-55-1
Molecular weight: 404
Origin: Zaikin V.G., TIPS RAS, Moscow, Russia
m/z	RELATIVE INTENSITY
26	200
27	831
28	10
29	1521
30	30
31	50
35	30
36	270
37	30
38	110
39	561
40	140
41	4124
42	1251
43	6876
44	801
45	100
50	30
51	50
52	30
53	290
54	1051
55	7887
56	4624
57	9999
58	440
65	50
66	120
67	1601
68	2212
69	7237
70	3643
71	5155
72	320
73	450
74	6406
75	3103
76	120
77	80
79	190
80	430
81	1221
82	3873
83	8678
84	2682
85	3493
86	240
87	50
91	50
93	50
94	70
95	901
96	2542
97	7927
98	1852
99	871
100	100
101	30
107	1061
108	110
109	1391
110	1161
111	4314
112	1221
113	621
114	100
115	40
122	60
123	460
124	851
125	2202
126	781
127	440
128	50
130	100
134	30
135	721
136	100
137	861
138	661
139	971
140	520
141	240
142	30
148	30
150	40
151	150
152	440
153	1872
154	550
155	1531
156	50
165	100
166	330
167	360
168	290
169	140
179	80
180	290
181	240
182	210
183	80
191	30
193	130
194	270
195	180
196	180
197	50
208	240
209	110
210	80
211	30
221	60
222	430
223	110
224	621
225	120
250	2002
251	480
252	721
253	150
267	50
269	30
295	110
297	370
298	60
324	30
325	20
