Mass Spectrum: Salicyl alcohol
Formula: C7 H8 O2
CAS: 90-01-7
Molecular weight: 124
Origin: Japan AIST/NIMC Database- Spectrum MS-NW- 136
m/z	RELATIVE INTENSITY
2	10
15	30
18	20
26	99
27	309
28	20
29	249
30	20
31	39
37	159
38	369
39	1459
40	179
41	269
42	40
43	60
49	70
50	629
51	1429
52	829
53	249
54	30
55	189
60	10
61	99
62	189
63	479
64	139
65	539
66	199
67	179
68	30
73	40
74	179
75	119
76	269
77	2459
78	9999
79	849
80	30
81	20
92	40
93	90
94	109
95	429
96	30
104	30
105	309
106	3089
107	459
108	40
121	149
122	30
123	80
124	3089
125	249
126	20
