Mass Spectrum: Benzenesulfonamide, N-methyl-N-phenyl-
Formula: C13 H13 N O2 S
CAS: 90-10-8
Molecular weight: 247
Origin: Japan AIST/NIMC Database- Spectrum MS-IW-4558
m/z	RELATIVE INTENSITY
15	10
27	70
28	10
30	40
37	10
38	40
39	329
40	20
41	20
42	30
44	10
45	10
50	199
51	1029
52	119
53	60
54	20
55	10
62	30
63	159
64	119
65	219
66	60
67	10
69	10
74	50
75	50
76	60
77	3939
78	749
79	1099
80	80
81	10
89	10
90	60
91	90
92	30
94	10
97	30
103	10
104	679
105	689
106	9999
107	909
108	30
110	10
115	40
120	50
122	10
125	20
128	20
139	10
140	10
141	249
142	629
143	70
151	10
152	20
153	20
154	20
157	10
166	20
167	99
168	99
169	10
180	20
182	1129
183	1159
184	159
185	10
247	4189
248	639
249	249
250	30
