Mass Spectrum: Naphthalene, 1-chloro-
Formula: C10 H7 Cl
CAS: 90-13-1
Molecular weight: 162
Origin: Japan AIST/NIMC Database- Spectrum MS-NW- 868
m/z	RELATIVE INTENSITY
26	10
27	30
28	40
36	30
37	50
38	70
39	119
49	60
50	489
51	439
52	50
53	10
60	10
61	169
62	269
63	959
64	30
68	309
69	99
72	10
73	90
74	589
75	699
76	299
77	589
78	40
80	40
81	769
82	239
83	20
84	40
85	80
86	149
87	209
88	20
89	20
96	10
97	60
98	229
99	279
100	159
101	429
102	60
108	10
109	20
110	20
111	30
112	10
120	10
121	20
122	40
123	30
124	10
125	229
126	1559
127	3279
128	389
129	20
136	50
138	20
160	30
161	99
162	9999
163	1129
164	3259
165	349
166	10
