Mass Spectrum: Benzeneacetic acid, .alpha.-ethyl-
Formula: C10 H12 O2
CAS: 90-27-7
Molecular weight: 164
Origin: Japan AIST/NIMC Database- Spectrum MS-NW-8829
m/z	RELATIVE INTENSITY
26	10
27	129
28	20
29	70
38	30
39	409
40	40
41	739
42	30
43	30
44	10
45	90
50	119
51	449
52	109
53	70
55	20
57	40
58	20
59	20
62	60
63	249
64	60
65	379
66	30
69	20
74	40
75	50
76	60
77	809
78	499
79	779
80	50
86	10
87	20
88	10
89	249
90	249
91	9999
92	819
93	40
94	20
101	10
102	70
103	379
104	269
105	159
106	60
107	359
108	30
114	10
115	359
116	90
117	349
118	339
119	5159
120	609
121	30
131	60
135	259
136	329
137	30
144	10
146	60
147	10
149	20
161	20
164	2889
165	319
166	30
