Mass Spectrum: Xanthoxylin
Formula: C10 H12 O4
CAS: 90-24-4
Molecular weight: 196
Origin: NIST Mass Spectrometry Data Center
m/z	RELATIVE INTENSITY
38	70
39	200
43	641
50	150
51	360
52	210
53	430
59	100
62	140
63	200
66	260
67	210
68	120
69	811
77	280
79	290
80	190
82	130
84	120
92	200
93	250
95	971
96	100
108	160
110	410
111	170
122	100
123	380
124	90
125	210
135	180
137	190
138	771
139	190
151	250
152	90
153	190
166	1001
167	180
177	70
178	380
179	190
181	9999
182	1001
183	140
196	2412
197	270
