Mass Spectrum: Primaquine
Formula: C15 H21 N3 O
CAS: 90-34-6
Molecular weight: 259
Origin: Japan AIST/NIMC Database- Spectrum MS-IW-1023
m/z	RELATIVE INTENSITY
16	10
17	199
18	1159
19	30
27	30
28	209
29	30
30	209
31	10
32	40
36	30
38	10
39	60
40	10
41	149
42	99
43	329
44	60
45	10
47	20
50	20
51	50
52	30
53	30
54	10
55	109
56	40
57	129
58	20
62	20
63	99
64	40
65	40
66	20
67	60
68	40
69	90
70	819
71	99
72	10
73	10
74	10
75	20
76	50
77	119
78	80
79	70
80	30
81	529
82	50
83	99
84	899
85	109
86	30
87	20
88	50
89	149
90	50
91	50
92	10
93	60
94	20
95	30
96	20
97	60
98	399
99	99
100	99
101	50
102	50
103	70
104	80
105	50
106	20
107	40
108	10
109	20
110	20
111	40
112	10
113	20
114	50
115	99
116	239
117	209
118	50
119	20
120	10
121	70
122	10
123	20
124	20
125	20
126	10
127	20
128	109
129	119
130	269
131	329
132	139
133	30
135	10
136	10
137	10
139	10
140	10
141	30
142	99
143	129
144	369
145	659
146	80
147	10
149	40
151	10
153	10
154	20
155	60
156	60
157	179
158	549
159	1089
160	459
161	90
162	10
165	10
167	20
168	40
169	99
170	80
171	90
172	80
173	199
174	1049
175	2819
176	3659
177	419
178	30
179	10
181	20
182	20
183	40
184	129
185	349
186	1979
187	869
188	109
189	20
193	10
194	10
195	10
196	10
197	50
198	60
199	399
200	449
201	9999
202	1399
203	119
204	10
209	10
210	10
211	329
212	70
213	149
214	70
215	269
216	50
222	10
223	30
224	10
225	50
226	30
227	239
228	50
229	20
230	20
231	20
237	80
238	99
239	50
240	60
241	619
242	2109
243	369
244	30
258	20
259	2169
260	389
261	40
