Mass Spectrum: 1-Naphthalenamine, N-phenyl-
Formula: C16 H13 N
CAS: 90-30-2
Molecular weight: 219
Origin: NIST Mass Spectrometry Data Center, 1994
m/z	RELATIVE INTENSITY
15	17
18	11
26	25
27	107
28	58
37	21
38	103
39	388
40	44
41	34
50	208
51	644
52	99
53	23
61	29
62	133
63	331
64	118
65	188
66	90
67	11
69	24
71	13
72	22
74	161
75	212
76	145
77	392
78	54
82	87
84	66
85	15
86	65
87	103
88	142
89	256
90	48
91	40
92	19
94	182
96	329
98	58
99	46
100	40
101	174
102	279
104	28
108	305
109	1464
111	21
113	125
114	160
115	1012
116	306
117	49
122	10
124	10
126	345
127	273
128	110
129	17
137	20
138	29
139	82
140	207
141	78
142	28
143	15
150	37
151	83
152	105
153	229
154	72
161	12
162	31
163	116
164	94
165	157
166	53
167	29
174	9
175	16
176	54
177	63
178	67
179	29
180	21
186	14
187	65
188	85
189	400
190	283
191	232
192	86
193	38
200	23
201	53
202	88
203	135
204	503
205	75
214	150
215	221
216	1284
217	5125
218	6129
219	9999
220	1764
221	141
