Mass Spectrum: o-Hydroxybiphenyl
Formula: C12 H10 O
CAS: 90-43-7
Molecular weight: 170
Origin: NIST Mass Spectrometry Data Center, 1990.
m/z	RELATIVE INTENSITY
26	127
27	315
28	240
29	96
38	269
39	958
50	710
51	985
52	254
53	188
55	128
58	353
61	188
62	726
63	1638
64	355
65	463
68	110
70	475
71	303
72	64
73	77
74	647
75	670
76	611
77	728
78	166
84	261
85	414
86	413
87	539
88	347
89	1101
90	214
91	245
98	213
99	120
101	143
102	557
103	153
110	93
113	448
115	5190
116	619
126	215
127	189
128	76
131	103
139	1461
141	5134
142	1674
143	194
144	181
150	118
151	203
152	186
153	176
155	255
169	8049
170	9999
171	1332
172	108
