Mass Spectrum: o-Homoveratric acid
Formula: C10 H12 O4
CAS: 90-53-9
Molecular weight: 196
Origin: NIST Mass Spectrometry Data Center, 1994
m/z	RELATIVE INTENSITY
14	184
15	1610
18	56
26	149
27	438
28	440
29	444
30	59
31	229
32	164
37	140
38	564
39	3275
40	408
41	318
42	85
43	219
44	59
45	1468
46	95
49	90
50	844
51	2211
52	478
53	966
54	186
55	370
59	217
60	29
61	131
62	495
63	1237
64	686
65	4747
66	1217
67	240
68	167
69	166
73	38
74	212
75	211
76	307
77	2637
78	1230
79	1488
80	342
81	594
82	229
83	37
86	57
89	535
91	5135
92	888
93	3162
94	1060
95	295
96	110
97	70
103	49
105	1172
106	990
107	903
108	396
109	1080
110	171
111	149
118	80
119	131
120	230
121	561
122	876
123	440
124	52
125	162
133	64
135	1632
136	5092
137	9999
138	913
139	216
149	974
150	241
151	1201
152	1472
153	186
163	435
164	50
165	43
178	136
179	44
181	223
196	6223
197	698
198	35
