Mass Spectrum: 3,5-Dibromosalicylaldehyde
Formula: C7 H4 Br2 O2
CAS: 90-59-5
Molecular weight: 278
Origin: NIST Mass Spectrometry Data Center, 1994
m/z	RELATIVE INTENSITY
4	43
14	14
25	56
26	71
27	49
28	186
29	730
30	23
32	53
36	91
37	506
38	400
39	214
41	28
42	58
45	39
46	118
48	40
49	159
50	325
51	67
52	28
53	651
54	37
55	46
60	197
61	1041
62	1754
63	2353
64	532
65	84
66	124
67	22
69	28
70	33
71	83
72	110
73	264
74	528
75	144
76	30
77	42
79	169
80	75
81	159
82	63
85	227
86	204
89	45
90	215
91	532
92	386
93	76
99	30
100	30
104	33
105	25
112	35
115	33
116	101
117	262
118	112
119	255
120	19
125	72
126	130
127	75
128	32
130	29
131	60
139	59
140	162
141	373
142	175
143	721
144	173
145	408
146	36
153	195
154	35
155	198
169	80
170	613
171	183
172	625
173	100
181	54
183	60
197	74
198	83
199	82
200	89
221	248
222	51
223	538
224	50
225	246
232	264
234	492
235	57
236	283
237	29
248	26
249	93
250	178
251	183
252	270
253	89
254	134
260	444
262	935
263	82
264	426
265	39
277	2409
278	5243
279	5153
280	9999
281	3260
282	4632
283	411
284	34
