Mass Spectrum: Lobeline
Formula: C22 H27 N O2
CAS: 90-69-7
Molecular weight: 337
Origin: Japan AIST/NIMC Database- Spectrum MS-NW-5927
m/z	RELATIVE INTENSITY
14	30
15	279
17	20
18	70
26	50
27	339
28	249
29	99
30	239
31	20
39	559
40	80
41	649
42	2099
43	769
44	239
45	20
46	20
48	10
49	60
50	669
51	1639
52	249
53	249
54	169
55	309
56	309
57	469
58	189
59	10
60	40
61	50
62	99
63	219
64	50
65	239
66	70
67	239
68	659
69	159
70	599
71	139
72	20
73	40
74	209
75	169
76	219
77	5269
78	1049
79	909
80	229
81	419
82	829
83	129
84	129
85	159
86	30
87	30
89	80
90	20
91	489
92	90
93	60
94	969
95	329
96	9999
97	6809
98	1489
99	99
100	10
101	10
102	60
103	189
104	349
105	5939
106	599
107	379
108	179
109	119
110	689
111	169
112	189
113	40
114	90
115	139
116	30
117	90
118	20
119	30
120	2039
121	229
122	20
123	10
124	20
126	80
127	30
128	70
129	70
130	70
131	40
132	20
133	30
134	10
136	10
138	10
139	20
140	40
141	40
143	139
144	60
145	20
146	60
147	20
148	10
154	10
156	10
157	20
158	30
159	30
160	20
161	20
162	139
163	20
164	20
165	10
167	10
168	10
170	30
171	20
172	40
173	20
174	80
175	50
176	10
180	10
183	10
184	10
186	20
188	40
189	30
196	10
198	30
199	20
200	99
201	50
202	40
212	10
214	20
215	40
216	2679
217	1229
218	2159
219	379
220	40
222	10
230	60
231	90
232	90
233	20
304	10
319	10
320	10
322	40
323	10
336	20
337	849
338	239
339	40
