Mass Spectrum: Benzaldehyde, 3,5-dichloro-2-hydroxy-
Formula: C7 H4 Cl2 O2
CAS: 90-60-8
Molecular weight: 190
Origin: Japan AIST/NIMC Database- Spectrum MS-NW-4800
m/z	RELATIVE INTENSITY
12	20
13	10
14	10
17	10
18	30
24	10
25	60
26	70
27	60
28	189
29	649
30	10
31	80
35	90
36	299
37	579
38	419
39	369
40	10
41	20
42	50
43	20
44	30
45	60
46	40
47	119
48	159
49	369
50	349
51	99
52	10
53	709
54	40
55	70
59	10
60	209
61	889
62	1489
63	3299
64	269
65	50
66	149
67	40
68	10
69	20
70	10
71	90
72	339
73	1319
74	509
75	409
76	30
77	50
78	10
79	20
80	20
81	169
82	99
83	179
84	159
85	129
86	50
87	119
88	10
89	60
90	139
91	219
92	60
94	60
95	189
96	229
97	1329
98	809
99	1359
100	319
101	369
102	40
106	10
107	179
108	70
109	439
110	70
111	149
112	10
119	20
120	10
121	10
124	20
125	359
126	1239
127	239
128	419
129	40
131	10
132	119
133	2069
134	209
135	1329
136	90
137	219
138	20
144	1649
145	169
146	1069
147	99
148	179
149	10
153	99
154	99
155	70
156	50
157	20
158	10
160	109
161	209
162	659
163	179
164	389
165	50
166	60
172	1849
173	159
174	1169
175	99
176	189
177	20
188	169
189	7929
190	9999
191	6009
192	6379
193	1339
194	1069
195	80
196	10
