Mass Spectrum: Phenol, 2,6-bis[[3-(1,1-dimethylethyl)-2-hydroxy-5-methylphenyl]methyl]-4-methyl-
Formula: C31 H40 O3
CAS: 90-68-6
Molecular weight: 460
Origin: Japan AIST/NIMC Database- Spectrum MS-IW-6076
m/z	RELATIVE INTENSITY
17	10
18	30
27	10
28	80
29	80
32	10
39	30
41	269
42	10
43	60
51	20
53	30
55	90
56	30
57	559
58	20
65	30
67	30
69	30
77	149
78	20
79	119
80	10
81	20
83	20
89	10
91	259
92	40
93	90
94	10
95	10
103	60
104	50
105	809
106	90
107	129
108	209
109	40
111	10
112	10
113	10
115	90
116	50
117	90
118	70
119	339
120	60
121	1379
122	159
123	20
124	20
125	10
126	30
127	329
128	80
129	60
130	20
131	80
132	40
133	2189
134	349
135	319
136	40
137	219
138	20
139	10
140	10
141	209
142	30
143	40
144	20
145	139
146	129
147	279
148	99
149	319
150	40
151	10
152	20
153	30
154	10
155	30
156	10
157	20
158	20
159	139
160	70
161	1939
162	309
163	80
164	479
165	109
166	30
167	20
168	20
169	20
170	10
171	20
172	10
173	70
174	30
175	399
176	279
177	2699
178	409
179	80
180	30
181	40
182	20
183	20
184	10
185	20
186	10
187	20
188	10
189	20
190	10
191	40
192	30
193	40
194	30
195	70
196	50
197	40
198	10
199	20
201	30
202	20
203	20
204	10
205	20
206	20
207	20
208	20
209	80
210	50
211	80
212	20
213	20
214	10
215	459
216	20
217	10
218	10
219	20
220	10
221	30
222	99
223	239
224	60
225	259
226	50
227	139
228	629
229	119
230	139
231	10
233	20
234	10
235	30
236	20
237	50
238	50
239	1879
240	1279
241	749
242	129
243	20
244	10
247	20
248	10
249	40
250	10
251	40
252	20
253	60
254	20
255	20
256	10
261	10
262	10
263	70
264	20
265	109
266	70
267	60
268	30
269	389
270	80
271	10
277	10
278	20
279	569
280	159
281	1639
282	359
283	249
284	4739
285	999
286	119
287	10
293	10
295	409
296	9999
297	2419
298	339
299	30
310	20
311	10
329	10
337	10
347	30
348	20
369	10
385	20
386	10
401	20
403	40
404	139
405	40
441	10
442	30
443	10
445	10
460	2659
461	909
462	169
463	20
