Mass Spectrum: Phenol, 2,4,6-tris[(dimethylamino)methyl]-
Formula: C15 H27 N3 O
CAS: 90-72-2
Molecular weight: 265
Origin: Japan AIST/NIMC Database- Spectrum MS-NW-1443
m/z	RELATIVE INTENSITY
12	10
13	20
14	80
15	719
16	10
26	20
27	259
28	959
29	169
30	629
31	10
38	50
39	329
40	209
41	329
42	2149
43	819
44	7589
45	2699
46	689
47	10
50	40
51	169
52	90
53	99
54	20
55	60
56	70
57	189
58	4019
59	169
62	20
63	119
64	60
65	429
66	80
67	70
68	40
69	10
70	30
71	10
72	10
73	70
74	20
75	20
76	30
77	519
78	299
79	549
80	80
81	60
82	99
83	10
84	10
85	10
87	20
88	70
89	139
90	109
91	1169
92	259
93	60
94	149
95	50
96	10
100	10
101	40
102	129
103	489
104	489
105	1089
106	419
107	90
108	70
109	80
110	309
111	40
112	20
115	30
116	40
117	109
118	139
119	529
120	439
121	149
122	90
123	20
128	10
130	40
131	109
132	779
133	2199
134	1199
135	199
136	40
137	20
141	10
143	20
144	40
145	40
146	419
147	119
148	839
149	109
150	20
151	10
158	30
159	40
160	119
161	169
162	2199
163	1389
164	359
165	90
166	10
173	20
174	109
175	1439
176	9999
177	2749
178	1449
179	209
180	20
183	10
185	10
187	10
189	20
190	10
191	30
192	10
193	199
194	30
203	30
204	10
205	339
206	60
207	40
208	359
209	50
218	20
219	80
220	4369
221	1159
222	449
223	60
234	10
248	99
249	20
250	539
251	99
252	10
263	129
264	20
265	1969
266	359
267	40
