Mass Spectrum: DL-Ephedrine
Formula: C10 H15 N O
CAS: 90-81-3
Molecular weight: 165
Origin: J. D. HENION, CORNELL UNIVERSITY, ITHACA, NY, USA
m/z	RELATIVE INTENSITY
39	220
41	140
42	480
43	340
44	220
50	160
51	410
52	110
56	560
58	9999
59	430
71	170
77	730
78	160
79	310
105	190
