Mass Spectrum: Pseudoephedrine
Formula: C10 H15 N O
CAS: 90-82-4
Molecular weight: 165
Origin: AAFS Toxicology Section MS DB Committee, U. Alberta, Canada
m/z	RELATIVE INTENSITY
29	200
30	490
31	70
39	160
40	30
41	110
42	360
43	220
44	210
45	40
50	170
51	400
52	140
53	80
55	30
56	510
57	250
58	9999
59	400
63	80
64	90
73	50
74	70
75	80
76	70
77	1201
78	280
79	310
89	70
91	140
103	30
105	300
106	170
115	40
117	130
131	30
132	30
