Mass Spectrum: Methanone, (4-bromophenyl)phenyl-
Formula: C13 H9 Br O
CAS: 90-90-4
Molecular weight: 260
Origin: Japan AIST/NIMC Database- Spectrum MS-NW-6873
m/z	RELATIVE INTENSITY
26	20
27	99
28	50
36	10
37	40
38	119
39	129
43	20
49	50
50	1149
51	1509
52	109
53	50
55	10
56	10
61	40
62	90
63	159
64	10
65	10
73	70
74	499
75	1129
76	1689
77	3949
78	279
79	20
80	30
81	20
82	30
85	30
86	50
87	50
88	20
89	20
90	20
91	10
97	10
98	40
99	30
100	20
101	40
102	30
103	30
104	259
105	9999
106	809
107	50
109	10
110	10
111	10
113	30
114	20
115	20
116	329
117	329
119	10
122	10
123	10
125	30
126	80
127	50
128	20
129	40
130	10
131	40
137	10
138	10
139	10
149	10
150	99
151	199
152	499
153	219
154	30
155	1289
156	119
157	1279
158	99
163	30
164	20
165	10
180	90
181	1499
182	319
183	4339
184	359
185	4249
186	349
187	20
232	80
233	10
234	80
235	10
243	10
245	10
259	60
260	3999
261	649
262	3959
263	589
264	60
