Mass Spectrum: 4,4'-Dichlorobenzhydrol
Formula: C13 H10 Cl2 O
CAS: 90-97-1
Molecular weight: 252
Origin: NIST Mass Spectrometry Data Center, 1998.
m/z	RELATIVE INTENSITY
26	10
27	60
29	160
35	10
36	10
37	30
38	70
39	160
40	10
47	10
49	50
50	880
51	1220
52	160
53	100
54	10
55	40
56	10
60	20
61	100
62	170
63	390
64	40
65	20
66	10
67	10
68	30
69	40
72	20
73	180
74	490
75	1860
76	790
77	4440
78	550
79	40
80	10
82	290
84	50
85	210
86	140
87	200
88	60
89	160
90	130
93	20
94	20
95	10
96	10
97	40
98	70
99	200
101	90
102	40
103	20
104	170
105	780
106	90
107	10
108	50
109	40
110	70
111	2060
112	1030
113	1620
114	440
115	340
116	30
117	30
118	20
121	10
122	20
123	40
124	10
125	70
126	90
127	60
128	20
134	10
135	10
136	30
137	60
138	10
139	9999
140	1360
141	4470
142	510
143	380
144	30
147	10
148	10
149	60
150	100
151	170
152	610
153	220
154	50
155	10
160	20
161	40
162	80
163	430
164	330
165	850
166	130
167	10
173	30
174	10
175	10
180	10
181	100
182	60
183	10
185	10
186	40
187	50
188	80
189	30
190	30
191	10
197	10
198	30
199	450
200	100
201	180
202	30
203	10
215	50
216	20
217	890
218	130
219	320
220	50
222	10
223	30
224	10
225	20
233	40
234	10
235	180
236	40
237	110
238	20
239	20
250	30
251	300
252	990
253	330
254	630
255	120
256	110
257	10
