Mass Spectrum: 4,4'-Dimethoxybenzophenone
Formula: C15 H14 O3
CAS: 90-96-0
Molecular weight: 242
Origin: Japan AIST/NIMC Database- Spectrum MS-NW-2667
m/z	RELATIVE INTENSITY
15	70
18	20
27	20
28	80
29	10
38	60
39	60
43	10
50	90
51	80
53	30
62	40
63	209
64	359
65	40
66	10
74	30
75	50
76	109
77	1289
78	99
79	80
89	10
91	10
92	849
93	60
101	10
102	20
104	30
105	10
106	30
107	899
108	60
113	10
115	10
119	20
120	10
121	20
126	10
127	40
128	109
129	10
133	10
134	20
135	9999
136	889
137	80
138	10
139	50
140	20
141	10
152	10
155	30
156	60
157	10
168	40
169	20
171	129
172	20
183	20
184	10
196	30
197	10
198	30
199	189
200	30
210	20
211	1149
212	179
213	20
214	40
225	50
226	30
227	129
228	40
241	229
242	2849
243	479
244	60
