Mass Spectrum: 3,3,3-Triphenylpropionic acid
Formula: C21 H18 O2
CAS: 900-91-4
Molecular weight: 302
Origin: NIST Mass Spectrometry Data Center, 1994
m/z	RELATIVE INTENSITY
17	38
18	48
38	43
39	357
40	32
42	124
44	13
45	48
50	252
51	983
52	165
53	39
60	60
62	61
63	276
64	40
65	173
66	27
69	31
73	22
75	168
76	198
77	1468
78	425
79	88
81	26
86	34
87	79
88	90
89	183
90	39
91	349
92	39
95	102
100	63
101	185
102	232
103	824
104	91
105	640
107	123
108	136
111	24
112	38
113	227
114	123
115	450
116	56
120	256
121	140
125	31
126	140
127	92
128	117
129	31
130	24
137	33
139	234
140	40
141	55
150	129
151	208
152	397
153	128
154	57
155	24
163	223
165	6429
166	1007
167	110
174	23
176	307
177	194
178	891
179	417
180	84
181	57
183	295
184	35
187	56
188	44
189	119
190	25
200	65
201	62
202	249
203	70
207	26
212	21
213	102
215	493
216	100
224	34
225	89
226	264
227	196
228	667
229	142
237	73
239	568
240	208
241	436
242	73
243	9999
244	1979
245	196
250	32
252	65
253	57
254	20
255	26
256	61
259	21
302	272
303	67
