Mass Spectrum: Estra-1,3,5(10)-trien-17-one, 3-(acetyloxy)-
Formula: C20 H24 O3
CAS: 901-93-9
Molecular weight: 312
Origin: NIST Mass Spectrometry Data Center, 2011
m/z	RELATIVE INTENSITY
15	60
26	10
27	90
29	110
38	10
39	270
40	30
41	721
42	150
43	2372
50	30
51	150
52	70
53	430
54	80
55	861
56	60
57	120
62	20
63	90
64	40
65	290
66	70
67	460
68	80
69	130
70	10
71	20
75	30
76	50
77	631
78	190
79	561
80	70
81	320
82	60
83	60
84	10
85	80
86	10
87	10
88	10
89	120
91	891
92	120
93	230
94	70
95	170
96	30
97	450
98	40
99	20
101	30
102	110
103	340
104	120
105	530
106	80
107	761
108	170
109	90
110	50
111	60
112	10
113	20
115	1291
116	440
117	390
118	70
119	170
120	651
121	340
122	60
123	200
124	50
126	40
127	591
128	891
129	751
130	210
131	801
132	270
133	1151
134	170
135	70
136	20
138	10
139	70
140	30
141	510
142	180
143	200
144	681
145	1261
146	2442
147	621
148	80
149	60
150	110
151	50
152	200
153	250
154	110
155	200
156	70
157	1091
158	861
159	1171
160	1081
161	190
162	20
163	40
164	20
165	220
166	80
167	120
168	60
169	140
170	490
171	530
172	1862
173	480
174	120
175	20
176	20
177	20
178	50
179	60
180	20
181	100
182	60
183	170
184	140
185	2292
186	761
187	110
188	20
189	10
194	30
195	90
196	50
197	150
198	100
199	350
200	140
201	40
205	10
209	70
210	80
211	330
212	140
213	1061
214	581
215	90
216	10
223	50
224	50
225	60
226	410
227	160
228	70
236	10
237	160
238	30
241	70
242	330
243	60
251	50
252	50
253	40
255	90
256	20
268	20
270	9999
271	1932
272	210
273	20
312	961
313	200
314	30
