Mass Spectrum: 4-Fluoro-2-(trifluoromethyl)benzaldehyde
Formula: C8 H4 F4 O
CAS: 90176-80-0
Molecular weight: 192
Origin: NIST Mass Spectrometry Data Center, 1994
m/z	RELATIVE INTENSITY
12	49
14	59
18	19
20	76
25	35
26	73
28	165
29	1591
31	703
37	296
38	228
39	145
44	99
45	95
47	62
49	146
50	1045
51	480
55	57
56	201
57	494
60	50
61	407
62	724
63	752
64	58
68	637
69	1274
70	70
72	107
73	220
74	940
75	1750
76	126
77	48
80	143
81	232
85	116
86	197
87	140
88	150
92	281
93	843
94	917
95	648
96	83
99	485
100	64
101	33
104	72
105	115
106	53
111	52
112	222
113	1057
114	1520
115	95
117	106
118	85
119	118
123	186
125	932
126	101
137	68
143	1553
144	2181
145	1596
146	112
161	62
163	6770
164	825
172	221
173	955
174	81
191	9999
192	6174
193	500
194	19
