Mass Spectrum: Benzoic acid, 4-fluoro-, 2-naphtyl ester
Formula: C17 H11 F O2
CAS: 90172-41-1
Molecular weight: 266
Origin: Zaikin V.G., TIPS RAS, Moscow, Russia
m/z	RELATIVE INTENSITY
28	20
39	70
44	50
50	70
51	70
62	50
63	140
65	80
69	40
74	60
75	450
76	50
77	30
87	30
88	40
89	160
91	40
94	100
95	2572
96	190
113	50
114	60
115	761
116	90
123	9999
124	791
125	40
126	30
127	40
144	100
186	50
266	1591
267	290
