Mass Spectrum: 1,2-Dimethoxy-3,4-dichloro-benzene
Formula: C8 H8 Cl2 O2
CAS: 90283-00-4
Molecular weight: 206
Origin: ASES Database, Dalian Institute, P.R. China
m/z	RELATIVE INTENSITY
43	100
50	1281
62	810
63	610
75	810
84	480
85	1871
87	190
97	1371
99	3062
100	410
109	690
111	710
113	3082
120	510
127	3763
128	5715
129	1301
130	1801
133	800
135	190
141	490
145	810
148	2011
150	1281
152	200
160	490
163	1901
165	1191
187	190
191	8017
193	5314
195	790
206	9999
208	6515
210	980
