Mass Spectrum: Acetic acid, hydroxy-, propyl ester
Formula: C5 H10 O3
CAS: 90357-58-7
Molecular weight: 118
Origin: ASES Database, Dalian Institute, P.R. China
m/z	RELATIVE INTENSITY
29	900
31	7376
39	580
41	4073
42	2181
43	9999
61	2982
77	1491
