Mass Spectrum: 2,3-Epoxyhexanol
Formula: C6 H12 O2
CAS: 90528-63-5
Molecular weight: 116
Origin: G. OHLOFF, FIRMENICH SA, RES. LAB., GENEVA, SWITZ.
m/z	RELATIVE INTENSITY
37	60
38	201
39	2258
40	347
41	4783
42	769
43	5845
44	2494
45	1118
46	16
50	129
51	157
52	42
53	367
54	299
55	9999
56	913
57	2376
58	109
59	88
60	223
61	339
62	17
65	50
67	204
68	24
69	247
70	85
71	377
72	224
73	2416
74	116
79	16
81	48
82	75
83	138
85	24
98	11
