Mass Spectrum: Africanone
Formula: C15 H22 O
CAS: 90851-05-1
Molecular weight: 218
Origin: C.CATALAN,INST. QUIM. ORG.,UNIV. NAC. TUCUMAN,AYACUCHO,ARGENT.
m/z	RELATIVE INTENSITY
47	710
48	2850
49	560
57	620
58	1040
66	620
68	580
76	1150
78	1330
89	2440
91	620
104	1890
105	500
106	650
115	760
117	780
120	1260
121	680
133	9999
134	2040
147	1220
148	4190
159	520
161	2630
162	510
175	1430
176	1700
177	960
190	420
203	7390
204	1070
218	8080
219	870
220	250
