Mass Spectrum: Benzenemethanol, .alpha.-phenyl-
Formula: C13 H12 O
CAS: 91-01-0
Molecular weight: 184
Origin: Tox21 Consortium/NIST Mass Spectrometry Data Center, 2012
m/z	RELATIVE INTENSITY
26	20
27	120
29	90
37	20
38	60
39	330
40	20
41	10
49	20
50	530
51	1702
52	370
53	190
54	10
55	30
56	10
57	10
61	20
62	110
63	300
64	80
65	90
66	10
67	10
69	70
74	220
75	200
76	340
77	5285
78	3723
79	3023
80	180
82	220
85	20
86	60
87	80
88	40
89	180
90	40
91	90
92	40
98	40
99	20
100	10
101	30
102	80
103	30
105	9999
106	1021
107	1161
108	90
109	10
110	10
111	20
113	50
114	30
115	290
116	30
122	10
125	10
126	80
127	110
128	180
129	80
130	10
137	20
138	20
139	190
140	30
141	60
142	10
150	30
151	120
152	520
153	260
154	100
155	270
156	40
157	10
162	20
163	150
164	190
165	1201
166	340
167	310
168	120
169	40
181	80
182	110
183	1411
184	3463
185	450
186	30
