Mass Spectrum: Benzene, 1,2-dimethoxy-
Formula: C8 H10 O2
CAS: 91-16-7
Molecular weight: 138
Origin: NIST Mass Spectrometry Data Center, 1990.
m/z	RELATIVE INTENSITY
13	42
14	103
15	932
16	19
17	8
18	33
26	462
27	255
28	96
29	325
30	52
31	259
32	5
36	23
37	299
38	623
39	1183
40	186
41	2387
42	124
43	97
45	30
49	142
50	1297
51	2232
52	2871
53	655
54	206
55	451
61	156
62	512
63	1304
64	920
65	2856
66	272
67	1203
68	74
69	85
73	60
74	205
75	124
76	60
77	5239
78	585
79	411
80	1091
81	119
92	531
93	360
95	6538
96	508
97	34
105	33
107	153
108	61
121	270
123	4667
124	399
125	29
138	9999
139	895
140	33
