Mass Spectrum: Naphthalene, decahydro-
Formula: C10 H18
CAS: 91-17-8
Molecular weight: 138
Origin: Japan AIST/NIMC Database- Spectrum MS-NW-2843
m/z	RELATIVE INTENSITY
14	30
15	60
26	80
27	1169
28	109
29	1039
30	30
37	10
38	60
39	1799
40	299
41	4399
42	379
43	409
44	30
49	10
50	99
51	279
52	159
53	1139
54	1979
55	3529
56	329
57	119
58	10
62	20
63	80
64	30
65	359
66	759
67	9529
68	5569
69	2819
70	309
71	70
72	10
74	20
75	10
76	10
77	469
78	119
79	949
80	629
81	8739
82	7299
83	1369
84	90
86	10
89	10
91	259
92	30
93	349
94	379
95	6119
96	9749
97	1149
98	60
101	20
103	30
104	80
105	40
107	60
108	119
109	3289
110	979
111	90
115	20
117	20
119	10
121	20
123	129
124	10
131	20
132	40
133	20
136	20
137	119
138	9999
139	1109
140	60
