Mass Spectrum: Quinoxaline
Formula: C8 H6 N2
CAS: 91-19-0
Molecular weight: 130
Origin: Japan AIST/NIMC Database- Spectrum MS-NW-3560
m/z	RELATIVE INTENSITY
25	20
26	209
27	119
28	119
36	30
37	239
38	249
39	179
40	50
41	10
44	10
48	20
49	109
50	1709
51	649
52	469
53	80
60	20
61	70
62	80
63	129
64	189
65	289
72	10
73	80
74	389
75	729
76	4579
77	489
78	80
79	20
81	10
82	10
86	10
87	20
88	20
89	10
90	40
91	10
99	40
100	30
101	30
102	399
103	5379
104	469
105	20
127	10
128	10
129	209
130	9999
131	1009
132	50
133	10
