Mass Spectrum: 2H-1-Benzopyran-2-one, 7-(diethylamino)-4-methyl-
Formula: C14 H17 N O2
CAS: 91-44-1
Molecular weight: 231
Origin: Japan AIST/NIMC Database- Spectrum MS-NW-4467
m/z	RELATIVE INTENSITY
15	20
26	20
27	279
28	119
29	479
30	20
37	10
38	40
39	279
40	30
41	80
42	90
43	20
44	20
50	99
51	319
52	119
53	80
54	40
55	30
56	40
58	10
61	10
62	80
63	219
64	60
65	159
66	30
67	159
68	80
69	10
70	10
74	50
75	90
76	99
77	569
78	119
79	90
80	50
82	10
85	30
86	40
87	40
88	30
89	129
90	60
91	269
92	40
93	60
94	90
100	10
101	189
102	199
103	549
104	119
105	80
106	20
107	10
108	50
114	10
115	129
116	159
117	129
118	70
119	40
120	10
121	129
122	50
127	10
128	40
129	40
130	219
131	449
132	249
133	40
134	20
135	30
136	20
141	10
142	30
143	30
144	80
145	70
146	90
147	20
148	20
149	10
150	20
156	10
157	20
158	479
159	629
160	309
161	50
162	10
163	10
164	20
170	10
171	10
172	70
173	129
174	109
175	20
186	109
187	149
188	2079
189	269
190	30
200	50
201	90
202	209
203	50
204	10
214	20
215	30
216	9999
217	1509
218	139
219	10
228	10
229	20
230	319
231	3779
232	629
233	60
