Mass Spectrum: Naphthalene, 2-chloro-
Formula: C10 H7 Cl
CAS: 91-58-7
Molecular weight: 162
Origin: Japan AIST/NIMC Database- Spectrum MS-IW-1124
m/z	RELATIVE INTENSITY
36	10
37	10
38	20
39	40
49	20
50	169
51	159
52	20
61	50
62	99
63	409
64	10
68	159
69	50
73	30
74	219
75	309
76	139
77	319
78	20
80	20
81	369
82	109
84	10
85	30
86	60
87	80
88	10
97	20
98	99
99	139
100	80
101	259
102	40
109	10
110	10
111	10
121	10
122	20
123	10
124	10
125	169
126	1189
127	3279
128	479
129	30
136	30
138	10
160	30
161	80
162	9999
163	1119
164	3249
165	359
166	10
