Mass Spectrum: Quinoline, 6-methyl-
Formula: C10 H9 N
CAS: 91-62-3
Molecular weight: 143
Origin: NIST Mass Spectrometry Data Center, 1998.
m/z	RELATIVE INTENSITY
26	40
27	100
37	50
38	180
39	580
40	50
41	40
43	20
44	20
49	30
50	450
51	600
52	220
53	50
54	10
55	30
56	10
57	300
58	650
61	150
62	460
63	1080
64	270
65	230
66	30
69	10
70	350
71	400
73	30
74	270
75	350
76	230
77	130
78	70
79	10
85	50
86	160
87	260
88	200
89	840
90	260
91	60
92	20
98	40
99	40
100	40
101	90
102	100
103	30
104	80
109	10
110	20
111	20
112	10
113	240
114	340
115	1930
116	730
117	700
118	50
127	40
128	70
140	290
141	940
142	5769
143	9999
144	1110
145	50
