Mass Spectrum: Cyclohexanamine, N,N-diethyl-
Formula: C10 H21 N
CAS: 91-65-6
Molecular weight: 155
Origin: RADIAN CORP
m/z	RELATIVE INTENSITY
15	30
18	30
26	20
27	450
28	670
29	840
30	290
39	410
40	70
41	1270
42	900
43	220
44	800
46	10
51	40
52	30
53	320
54	490
55	1310
56	3150
57	240
58	2230
59	80
65	50
66	30
67	200
68	200
69	220
70	720
71	1340
72	580
73	20
77	80
79	140
80	60
81	150
82	220
83	270
84	1300
85	120
86	340
94	20
95	10
96	180
97	30
98	570
99	600
100	30
108	10
110	130
111	30
112	9999
113	810
114	30
124	20
126	300
127	20
138	20
140	1280
141	130
153	10
154	120
155	1670
156	180
