Mass Spectrum: Phenol, 3-(diethylamino)-
Formula: C10 H15 N O
CAS: 91-68-9
Molecular weight: 165
Origin: Japan AIST/NIMC Database- Spectrum MS-NW-8671
m/z	RELATIVE INTENSITY
15	20
17	10
18	70
26	30
27	309
28	189
29	369
30	179
37	10
38	80
39	559
40	70
41	119
42	159
43	60
44	90
45	10
50	50
51	139
52	139
53	199
54	60
55	90
56	90
57	10
58	149
60	30
61	20
62	40
63	179
64	149
65	849
66	179
67	99
68	90
69	20
70	10
72	30
73	30
74	10
75	70
76	20
77	279
78	90
79	99
80	139
81	99
82	40
83	10
89	10
90	10
91	159
92	189
93	749
94	839
95	289
96	20
99	10
102	10
103	10
104	129
105	30
106	70
107	199
108	99
109	50
110	10
116	20
117	40
118	30
119	20
120	529
121	379
122	3719
123	299
124	20
132	10
133	40
134	189
135	179
136	729
137	90
148	70
149	60
150	9999
151	1029
152	60
162	40
163	30
164	349
165	4479
166	519
167	30
