Mass Spectrum: 1,3,5-Triazine, hexahydro-1,3,5-triphenyl-
Formula: C21 H21 N3
CAS: 91-78-1
Molecular weight: 315
Origin: E. SCHUMACHER INORG. CHEM. INST., UNIV., ZURICH, SWITZERLAND
m/z	RELATIVE INTENSITY
51	500
65	510
76	150
77	3300
78	620
104	9999
105	8530
106	1120
154	40
182	40
196	60
209	490
210	920
211	450
315	540
316	110
