Mass Spectrum: 1,3,5-Triazine-2,4-diamine, 6-phenyl-
Formula: C9 H9 N5
CAS: 91-76-9
Molecular weight: 187
Origin: NIST Mass Spectrometry Data Center, 1994
m/z	RELATIVE INTENSITY
14	11
27	60
28	264
38	68
39	165
41	67
42	352
43	1645
50	408
51	578
52	165
53	69
62	52
63	117
64	90
65	38
68	303
73	27
74	127
75	291
76	1089
77	985
78	75
83	169
84	103
90	87
91	41
93	77
103	1838
104	1818
105	154
117	182
118	190
119	162
129	117
144	583
145	106
146	258
160	54
186	5275
187	9999
188	1122
189	63
