Mass Spectrum: Antazoline
Formula: C17 H19 N3
CAS: 91-75-8
Molecular weight: 265
Origin: AAFS Toxicology Section MS DB Committee, U. Alberta, Canada
m/z	RELATIVE INTENSITY
39	40
40	10
41	30
42	60
43	20
44	50
50	20
51	130
52	20
53	10
54	90
55	310
56	50
57	20
63	50
64	20
65	330
66	40
68	10
69	30
71	20
74	10
75	10
76	30
77	720
78	100
79	30
81	70
82	40
83	80
84	9999
85	580
86	20
89	80
90	50
91	1801
92	160
93	60
102	10
103	20
104	370
105	120
106	170
107	10
115	10
116	30
117	40
118	60
119	10
127	10
128	10
129	20
130	20
131	20
132	40
143	10
145	40
151	10
152	40
153	10
154	10
159	80
160	10
161	10
165	20
166	10
167	10
171	10
172	100
173	40
174	30
180	270
181	100
182	680
183	120
184	10
186	10
193	10
194	30
196	30
265	100
266	20
