Mass Spectrum: Thonzylamine
Formula: C16 H22 N4 O
CAS: 91-85-0
Molecular weight: 286
Origin: AAFS Toxicology Section MS DB Committee, U. Alberta, Canada
m/z	RELATIVE INTENSITY
41	130
42	420
43	220
44	80
45	120
50	20
51	110
52	120
53	180
54	60
55	150
56	190
57	200
58	9999
59	380
60	80
61	10
62	10
63	60
64	30
65	120
66	30
67	70
68	40
69	100
70	90
71	1621
72	2512
73	220
74	10
75	10
76	20
77	450
78	570
79	290
80	270
81	80
82	20
83	60
84	30
85	30
87	20
89	140
90	100
91	330
92	40
93	30
94	40
95	30
96	30
97	40
98	40
99	10
103	20
104	20
105	30
106	130
107	50
108	280
109	30
110	10
115	20
116	10
117	10
118	20
119	20
120	120
121	6205
122	650
123	40
129	30
130	10
132	20
133	20
134	60
135	30
136	40
137	10
143	20
147	10
148	50
149	20
157	10
158	10
163	40
164	10
170	50
171	10
183	10
184	80
185	30
198	20
199	20
200	20
211	10
212	20
213	20
214	430
215	880
216	900
217	130
218	10
226	40
227	10
228	130
229	30
241	10
242	20
256	10
286	620
287	110
288	10
