Mass Spectrum: Methapyrilene
Formula: C14 H19 N3 S
CAS: 91-80-5
Molecular weight: 261
Origin: AAFS Toxicology Section MS DB Committee, U. Alberta, Canada
m/z	RELATIVE INTENSITY
29	140
30	710
32	10
34	10
35	10
37	10
38	40
39	240
40	40
41	100
42	1171
43	310
44	180
45	780
46	10
47	50
50	50
51	400
52	400
53	700
54	70
55	30
56	330
57	260
58	9999
59	380
60	10
61	10
63	60
64	30
65	60
66	50
67	50
68	10
69	170
70	170
71	1741
72	2161
73	130
74	10
76	10
77	30
78	810
79	760
80	110
81	10
82	20
83	10
84	10
85	20
86	10
89	10
90	10
91	10
92	30
93	70
94	40
95	40
96	30
97	6165
98	410
99	270
100	10
101	10
102	10
104	10
105	70
106	100
107	150
108	20
109	10
110	10
111	20
112	40
113	10
114	10
115	10
116	10
117	10
118	10
119	170
120	30
121	40
122	10
123	10
124	20
125	10
126	10
128	10
129	10
130	10
131	10
132	10
133	10
134	10
135	20
136	10
137	10
138	10
139	10
140	10
141	10
142	10
143	10
144	10
145	10
146	10
147	10
148	10
149	10
150	10
154	10
155	10
156	10
157	80
158	10
160	10
161	10
162	20
163	20
164	10
165	10
166	10
168	10
169	10
170	10
172	10
173	10
174	10
175	10
176	10
177	10
179	10
180	10
183	10
186	10
187	10
188	10
189	180
190	350
191	620
192	100
193	30
194	10
201	10
202	10
203	140
204	20
205	10
206	10
208	10
209	10
215	10
216	10
217	10
218	10
261	340
262	70
263	20
