Mass Spectrum: N-(m-Tolyl)-diethanolamine
Formula: C11 H17 N O2
CAS: 91-99-6
Molecular weight: 195
Origin: Japan AIST/NIMC Database- Spectrum MS-NW-4030
m/z	RELATIVE INTENSITY
15	50
26	10
27	179
28	70
29	80
30	30
31	109
38	20
39	199
40	20
41	99
42	99
43	60
44	20
45	789
46	20
50	40
51	119
52	50
53	40
54	20
55	10
56	10
57	10
58	10
61	10
62	30
63	119
64	40
65	419
66	30
67	10
69	10
72	10
73	10
74	40
75	10
76	20
77	249
78	80
79	90
80	30
87	10
88	20
89	129
90	99
91	1059
92	269
93	249
94	20
102	10
103	50
104	60
105	319
106	60
107	50
115	10
116	10
117	80
118	339
119	269
120	3949
121	529
122	30
130	30
131	50
132	70
133	50
134	159
135	20
143	10
144	20
146	99
147	10
148	20
149	30
150	20
151	30
158	20
159	10
162	40
163	80
164	9999
165	1129
166	80
176	20
177	20
178	10
193	10
194	30
195	1739
196	219
197	20
