Mass Spectrum: 2-Isoamyl-6-methylpyrazine
Formula: C10 H16 N2
CAS: 91010-41-2
Molecular weight: 164
Origin: Philip Morris R&D
m/z	RELATIVE INTENSITY
37	26
38	126
39	1172
40	280
41	637
42	368
43	208
44	14
45	6
49	1
50	29
51	98
52	177
53	301
54	156
55	118
56	30
57	27
59	1
62	1
63	15
64	48
65	63
66	497
67	136
68	37
69	9
73	18
75	3
76	2
77	37
78	29
79	43
80	99
81	78
82	54
83	2
84	1
91	17
92	15
93	109
94	126
95	45
96	9
103	1
104	1
105	10
106	12
107	393
108	9999
109	769
110	28
118	7
119	25
120	25
121	1492
122	280
123	34
131	7
132	20
133	69
134	36
135	128
136	33
145	19
146	8
147	45
148	8
149	633
150	69
151	2
161	2
162	1
163	149
164	100
165	6
