Mass Spectrum: Clomiphene
Formula: C26 H28 Cl N O
CAS: 911-45-5
Molecular weight: 405
Origin: Drug Lab
m/z	RELATIVE INTENSITY
41	20
42	230
43	50
44	320
45	10
50	10
51	20
54	10
55	20
56	300
57	130
58	470
59	10
63	20
70	100
71	50
72	100
73	10
75	10
76	10
77	50
84	100
86	9999
87	621
88	20
89	20
91	10
98	10
99	40
100	530
101	40
102	10
105	20
113	40
114	10
115	30
119	10
120	30
125	20
126	70
127	30
128	10
138	10
139	40
140	10
149	10
150	30
151	70
152	70
153	10
162	10
163	50
164	50
165	140
166	10
174	10
175	20
176	140
177	100
178	400
179	60
187	20
188	20
189	50
190	10
191	10
193	10
194	10
195	10
199	30
200	30
201	40
202	60
203	10
207	20
211	10
212	20
213	90
214	30
215	170
216	20
224	30
225	30
226	170
227	40
228	40
229	10
236	10
237	50
239	490
240	170
241	240
242	70
243	10
248	10
249	50
250	200
251	90
252	791
253	641
254	330
255	130
256	30
265	10
267	10
268	20
269	50
270	30
271	10
281	10
283	20
284	10
289	20
291	10
306	10
317	10
319	20
332	10
390	30
392	10
404	20
405	50
406	20
407	30
