Mass Spectrum: Isobenzofuran-1(3H)-one, 3,6,7-trimethoxy-
Formula: C11 H12 O5
CAS: 91144-03-5
Molecular weight: 224
Origin: A.A.Kutin, Moscow, Russia
m/z	RELATIVE INTENSITY
33	114
34	81
36	98
37	1282
38	1413
39	4003
40	1783
41	1143
42	335
43	794
44	1014
45	1296
46	58
47	24
49	1079
50	5898
51	8242
52	1357
53	3628
54	357
55	1273
56	144
57	271
58	114
59	743
61	1706
62	3063
63	4707
64	1940
65	3499
66	1598
67	610
68	272
69	844
70	168
71	159
73	324
74	1647
75	2341
76	4039
77	8920
78	4604
79	5980
80	663
81	545
82	197
83	168
84	104
85	137
86	81
87	82
88	130
89	948
90	1070
91	3011
92	2341
93	1114
94	1020
95	550
96	134
97	137
98	15
99	26
101	22
102	123
103	614
104	1955
105	2883
106	1873
107	4430
108	844
109	707
110	157
111	76
112	22
113	15
115	68
116	26
117	162
118	398
119	2045
120	3027
121	3386
122	4435
123	735
124	117
125	230
126	195
127	36
128	13
130	14
131	82
132	1434
133	1255
134	1200
135	3135
136	917
137	1292
138	221
139	85
145	60
146	110
147	382
148	640
149	3684
150	2903
151	1526
152	254
153	320
154	86
155	14
160	101
161	663
162	2315
163	2423
164	755
165	4723
166	701
167	140
171	67
175	128
176	139
177	886
178	486
179	5703
180	821
181	200
182	44
189	17
190	137
191	1287
192	590
193	9999
194	2356
195	564
196	101
204	18
205	22
206	393
207	249
209	9557
210	1039
211	141
220	14
221	194
222	76
223	588
224	2903
225	365
226	42
