Mass Spectrum: 1,2,3,5-Tetraphenylbenzene
Formula: C30 H22
CAS: 912-61-8
Molecular weight: 382
Origin: Japan AIST/NIMC Database- Spectrum MS-NW-7729
m/z	RELATIVE INTENSITY
17	10
18	50
27	20
28	40
39	50
41	20
43	20
45	10
50	20
51	80
52	20
53	10
55	10
57	10
60	10
62	10
63	40
65	30
69	10
74	10
75	20
76	20
77	129
78	40
79	10
83	10
87	10
88	10
89	30
90	10
91	199
92	119
93	10
100	20
101	10
102	50
103	70
104	20
105	90
106	10
107	10
108	20
112	20
113	40
115	20
116	30
117	20
118	10
119	10
120	20
121	20
122	20
124	20
125	40
126	40
127	10
128	10
129	10
130	30
131	40
132	10
136	20
137	60
138	109
139	40
142	20
143	80
144	159
145	70
148	10
149	60
150	199
151	269
152	329
153	20
154	20
155	80
156	119
157	60
158	40
161	50
162	149
163	239
164	50
165	80
166	20
167	70
168	219
169	269
170	239
171	70
173	20
174	109
175	379
176	319
177	139
178	70
179	20
180	109
181	309
182	309
183	279
184	30
185	10
186	30
187	119
188	129
189	99
190	70
191	329
192	30
200	40
201	30
202	99
203	50
204	40
205	20
208	30
209	10
211	10
213	20
215	50
216	10
217	20
222	10
224	40
225	30
226	129
227	60
228	60
229	20
235	10
236	199
237	60
238	10
239	60
240	20
241	10
248	20
249	20
250	60
251	20
252	80
253	30
261	20
262	20
263	80
264	30
265	90
266	20
267	10
272	10
273	10
274	70
275	40
276	249
277	119
278	99
279	60
280	10
285	10
286	10
287	70
288	40
289	739
290	439
291	469
292	109
293	10
296	10
297	10
298	50
299	30
300	249
301	159
302	749
303	599
304	539
305	609
306	159
307	30
309	10
311	30
312	10
313	90
314	40
315	90
316	30
317	80
318	20
321	10
322	30
323	10
324	50
325	30
326	129
327	80
328	99
329	50
330	10
335	10
336	10
337	70
338	40
339	259
340	109
341	549
342	169
343	30
346	10
348	30
349	20
350	119
351	109
352	189
353	179
354	139
355	70
356	20
359	10
360	10
361	20
362	20
363	229
364	149
365	629
366	439
367	359
368	109
369	20
370	10
372	10
373	10
374	50
375	40
376	129
377	119
378	119
379	229
380	169
381	1009
382	9999
383	3219
384	549
385	70
