Mass Spectrum: p-Tetradecylaniline
Formula: C20 H35 N
CAS: 91323-12-5
Molecular weight: 289
Origin: Japan AIST/NIMC Database- Spectrum MS-NW-9901
m/z	RELATIVE INTENSITY
27	20
28	30
29	60
30	10
39	20
41	119
42	20
43	139
53	10
54	10
55	90
56	10
57	60
65	20
66	10
67	10
69	30
71	20
77	99
78	50
79	90
80	10
81	10
83	20
85	10
91	30
92	30
93	60
94	50
95	10
97	10
103	20
104	20
105	30
106	9999
107	859
108	30
117	10
118	30
119	109
120	219
121	20
130	10
132	60
133	20
134	50
148	20
162	10
176	10
190	10
232	10
246	10
260	20
288	20
289	2509
290	569
291	60
