Mass Spectrum: .beta.-Sitosterol acetate
Formula: C31 H52 O2
CAS: 915-05-9
Molecular weight: 456
Origin: LAC, NIDDK, NIH, Bethesda, MD 20892
m/z	RELATIVE INTENSITY
41	1823
43	9999
44	284
45	102
49	20
50	13
51	39
53	287
55	2355
57	2051
58	63
59	67
61	127
63	19
65	134
67	838
69	1127
71	876
72	49
73	18
77	285
79	856
81	1892
82	162
83	458
85	959
91	1284
92	14
93	1533
94	294
95	1225
96	106
97	243
98	30
99	87
100	16
101	17
103	107
105	1775
106	447
107	872
108	252
109	441
110	66
111	196
112	40
113	79
115	176
117	521
118	172
119	560
120	609
121	740
122	194
123	296
124	45
125	87
127	101
128	118
129	241
130	135
131	701
132	12
133	1160
134	262
135	518
136	116
137	121
138	25
139	27
141	147
143	818
144	13
145	1871
146	601
147	1570
148	256
149	219
150	37
151	56
153	47
154	29
155	159
157	453
158	288
159	512
160	302
161	459
162	123
163	285
164	41
165	53
167	44
168	14
169	52
170	27
171	201
172	87
173	279
174	120
175	188
176	66
177	194
178	23
179	25
180	10
181	23
183	87
185	243
186	69
187	144
188	31
189	50
191	105
192	17
193	26
195	29
197	138
199	225
200	76
201	124
202	28
203	37
205	58
207	32
209	19
211	81
213	662
214	183
215	118
216	32
217	26
219	28
220	13
221	40
223	18
225	45
226	73
227	120
228	116
229	80
230	15
231	17
233	65
234	86
235	34
237	13
239	68
240	24
241	64
242	25
243	17
244	11
245	20
247	57
248	11
251	11
252	12
253	113
254	112
255	618
256	162
257	36
259	23
260	10
261	14
263	10
265	11
267	29
268	31
269	26
270	53
271	38
272	34
273	102
274	83
275	443
276	107
277	15
281	23
282	24
283	152
284	51
285	20
286	68
287	93
288	516
289	113
291	20
295	16
296	60
297	35
298	306
299	70
300	39
301	16
302	34
303	20
310	15
311	10
312	49
313	24
314	60
315	19
316	13
326	28
328	34
329	13
338	10
339	17
340	14
342	26
344	12
352	14
353	34
354	165
355	46
356	14
367	60
368	74
369	14
380	22
381	603
382	230
383	42
394	34
395	207
396	5773
397	1915
398	81
399	202
413	47
