Mass Spectrum: 1,3,5-Triazine, 2,4,6-tris(heptafluoropropyl)-
Formula: C12 F21 N3
CAS: 915-76-4
Molecular weight: 585
m/z	RELATIVE INTENSITY
31	691
50	450
69	9999
76	8307
100	1121
102	981
107	270
119	1651
126	671
131	210
133	290
138	80
150	110
152	120
169	2082
176	330
178	220
221	510
366	320
371	210
416	90
466	7016
467	701
516	80
566	1722
567	200
585	901
586	100
