Mass Spectrum: 1-Butyne, 3,3-dimethyl-
Formula: C6 H10
CAS: 917-92-0
Molecular weight: 82
Origin: NIST Mass Spectrometry Data Center, 1990.
m/z	RELATIVE INTENSITY
15	571
26	185
27	759
28	99
29	148
37	216
38	490
39	3117
40	576
41	4316
42	271
49	135
50	884
51	1248
52	266
53	386
54	343
55	93
61	144
62	283
63	385
64	93
65	2276
66	93
67	9999
68	554
77	97
79	140
81	387
