Mass Spectrum: m-Nitro carbanilic acid, n-propyl ester
Formula: C10 H12 N2 O4
CAS: 91716-03-9
Molecular weight: 224
Origin: A.A.Kutin, Moscow, Russia
m/z	RELATIVE INTENSITY
35	7
37	210
38	654
39	1620
41	5804
43	9999
44	488
45	106
46	68
50	596
51	305
52	493
53	146
61	108
62	281
63	1165
64	1115
65	911
66	115
67	31
75	324
76	634
77	97
78	125
79	204
80	481
81	88
90	745
91	939
92	1336
93	180
94	29
95	17
104	30
105	104
106	94
107	48
108	242
109	50
118	150
119	186
120	32
121	25
122	56
123	6
124	5
135	95
136	173
138	3477
139	198
140	22
141	3
142	1
151	463
152	46
153	6
155	1
157	2
159	2
161	6
162	4
164	128
165	887
166	89
167	10
169	6
178	73
179	13
182	426
183	63
184	5
194	23
195	10
208	28
209	3
223	39
224	1353
225	139
226	15
227	1
