Mass Spectrum: (4R,5S)-(+)-4-Methyl-5-phenyl-1,3-oxazolidine-2-thione
Formula: C10 H11 N O S
CAS: 91794-28-4
Molecular weight: 193
Origin: NIST Mass Spectrometry Data Center, 1994
m/z	RELATIVE INTENSITY
12	92
15	835
26	418
27	2638
28	1235
29	607
30	130
31	130
32	314
33	332
34	124
37	190
38	687
39	3106
40	606
41	666
42	9999
43	1085
44	3921
45	1060
46	211
47	274
48	71
49	120
50	2188
51	5087
52	1367
53	464
54	689
55	531
56	185
57	345
58	591
59	1127
60	2023
61	492
62	899
63	2242
64	770
65	1839
66	237
69	114
70	207
71	175
72	116
73	122
74	302
75	510
76	565
77	6948
78	2039
79	6528
80	462
84	156
85	116
86	2802
87	607
88	330
89	2473
90	1353
91	8607
92	4118
93	283
96	170
102	313
103	849
104	1073
105	3342
106	992
107	5640
108	473
115	2741
116	1468
117	3538
118	2034
119	230
120	230
121	1714
122	2910
123	1947
124	276
125	76
130	384
132	5143
133	902
134	231
135	569
149	242
150	3471
151	372
152	181
160	127
193	8607
194	1109
195	459
