Mass Spectrum: Pentane, 3-chloro-3-methyl-
Formula: C6 H13 Cl
CAS: 918-84-3
Molecular weight: 120
Origin: Chuck Anderson, Aldrich Chemical Co.
m/z	RELATIVE INTENSITY
14	7
15	103
25	14
26	306
27	3511
28	654
29	2708
30	66
31	13
32	17
35	25
36	97
37	59
38	186
39	2142
40	305
41	4047
42	455
43	4910
44	154
45	5
47	8
48	6
49	148
50	243
51	431
52	133
53	907
54	316
55	9999
56	929
57	781
58	37
60	10
61	76
62	101
63	1450
64	60
65	580
66	46
67	286
68	49
69	3362
70	217
71	8
72	4
73	39
74	17
75	197
76	119
77	141
78	48
79	43
80	5
81	13
82	5
83	62
84	974
85	5148
86	332
87	15
89	36
90	6517
91	8213
92	2142
93	2648
94	114
103	4
104	39
105	159
106	22
107	52
108	4
120	17
122	7
