Mass Spectrum: Methanesulfonamide, N,N-dimethyl-
Formula: C3 H9 N O2 S
CAS: 918-05-8
Molecular weight: 123
Origin: Japan AIST/NIMC Database- Spectrum MS-NW-7229
m/z	RELATIVE INTENSITY
14	60
15	1169
16	10
27	129
28	589
29	90
30	169
31	50
32	20
33	20
34	20
38	10
39	20
40	99
41	159
42	3759
43	4379
44	9999
45	639
46	40
47	40
48	119
49	30
50	30
56	10
57	10
58	259
59	10
60	199
61	20
62	10
63	229
64	219
65	579
66	20
67	30
76	30
79	839
80	359
81	559
82	20
83	30
91	20
92	109
108	799
109	30
110	10
117	20
119	20
122	1009
123	2619
124	199
125	129
