Mass Spectrum: 2-Propanone, 1,1,1-trichloro-
Formula: C3 H3 Cl3 O
CAS: 918-00-3
Molecular weight: 160
Origin: Japan AIST/NIMC Database- Spectrum MS-IW-4066
m/z	RELATIVE INTENSITY
12	10
13	20
14	119
15	1119
16	10
24	10
25	50
26	169
27	149
28	70
29	30
35	70
36	149
37	60
38	60
39	20
40	10
41	40
42	349
43	9999
44	379
45	30
47	349
48	30
49	129
50	10
60	70
61	299
62	70
63	359
64	20
65	80
72	10
73	20
75	10
77	10
82	369
83	819
84	249
85	529
86	40
87	90
91	10
95	10
96	20
97	779
98	20
99	509
100	10
101	80
110	50
112	30
117	329
119	309
121	99
123	10
125	1149
126	40
127	739
128	20
129	119
