Mass Spectrum: 3-Methylpenta-1,4-diene-3-ol
Formula: C6 H10 O
CAS: 918-86-5
Molecular weight: 98
Origin: V.G.Zaikin, TIPS, Russian Acad. Sci.
m/z	RELATIVE INTENSITY
39	1701
40	350
41	2001
42	500
43	9999
44	550
51	650
52	150
53	1151
54	400
55	4053
56	550
69	950
70	300
71	2802
72	350
77	650
78	150
79	1151
80	600
83	4604
84	350
97	450
98	350
99	20
