Mass Spectrum: 1-Penten-3-ol, 3-methyl-
Formula: C6 H12 O
CAS: 918-85-4
Molecular weight: 100
Origin: D.HENNEBERG, MAX-PLANCK INSTITUTE, MULHEIM, WEST GERMANY
m/z	RELATIVE INTENSITY
26	459
27	1404
28	762
29	1214
30	30
31	283
32	30
38	14
39	603
40	138
41	1909
42	269
43	5673
44	230
45	399
50	44
51	58
52	33
53	578
54	149
55	1440
56	258
57	604
58	156
59	42
65	120
66	35
67	877
68	66
69	108
70	141
71	9999
72	598
73	1370
74	85
77	35
78	17
79	93
81	87
82	244
83	117
84	12
85	1628
86	79
100	72
