Mass Spectrum: Propanenitrile, 3-(triethoxysilyl)-
Formula: C9 H19 N O3 Si
CAS: 919-31-3
Molecular weight: 217
Origin: RADIAN CORP
m/z	RELATIVE INTENSITY
15	50
26	70
27	520
29	920
30	10
31	150
41	40
42	50
43	270
44	30
45	2530
46	130
47	140
52	30
54	540
55	140
56	20
57	10
58	60
59	90
60	20
61	210
62	990
63	1370
64	90
65	30
71	110
72	500
73	910
74	120
75	110
76	250
77	340
78	30
79	3290
80	180
81	120
82	110
84	70
85	30
86	90
87	220
88	3870
89	930
90	390
91	1240
92	80
93	120
98	150
99	80
100	780
101	480
102	300
103	510
104	90
105	300
106	40
107	1720
108	120
109	60
114	350
115	160
116	1630
117	1140
118	520
119	5720
120	540
121	240
126	40
127	30
128	1260
129	930
130	480
131	240
132	90
133	340
134	90
135	1590
136	130
137	50
142	30
144	2020
145	680
146	230
147	1050
148	100
149	20
156	50
158	3620
159	430
160	330
161	180
162	40
163	9999
164	1190
165	450
171	3620
172	3300
173	630
174	250
188	1600
189	270
190	90
202	1010
203	130
204	30
217	970
218	160
219	40
