Mass Spectrum: 3-Hydroxybutyric acid, 2TBDMS derivative
Formula: C16 H36 O3 Si2
CAS: 91998-39-9
Molecular weight: 332
Origin: NIST Mass Spectrometry Data Center
m/z	RELATIVE INTENSITY
15	10
27	50
29	310
30	10
31	30
38	10
39	160
40	40
41	891
42	190
43	310
44	60
45	651
46	50
47	400
48	20
49	10
51	10
52	20
53	40
55	270
56	270
57	1101
58	500
59	1271
60	180
61	300
62	20
63	10
66	360
67	70
68	20
69	430
70	50
71	60
73	9238
74	921
75	3393
76	240
77	160
78	10
79	10
80	10
81	20
82	10
83	60
84	10
85	250
86	50
87	200
88	1571
94	10
95	10
97	50
98	20
99	530
100	130
101	480
102	130
103	1962
104	200
105	140
106	10
107	10
109	120
111	10
113	40
115	2462
116	450
117	821
118	110
119	470
120	50
121	30
125	10
127	10
129	190
130	30
131	430
133	3733
134	530
135	340
136	30
137	10
141	20
143	370
144	50
145	80
147	8858
148	1491
149	1501
150	190
151	100
152	10
157	60
159	9999
160	1521
161	631
162	60
163	10
171	20
172	10
173	90
174	20
175	200
176	40
177	60
178	10
185	60
186	10
187	10
189	4064
190	791
191	370
192	50
193	10
199	10
201	10
203	170
204	30
205	10
215	10
217	30
218	10
219	10
231	190
233	4654
234	1001
235	430
236	60
237	10
245	40
246	10
259	140
260	30
261	10
273	50
275	7677
276	1922
277	791
278	120
279	20
301	10
317	340
318	90
319	40
320	10
331	20
