Mass Spectrum: Ethanol, 2,2'-((m-chlorophenyl)imino)di-
Formula: C10 H14 Cl N O2
CAS: 92-00-2
Molecular weight: 215
Origin: NIST Mass Spectrometry Data Center, 1994
m/z	RELATIVE INTENSITY
14	27
15	807
16	17
17	10
18	32
26	180
27	1864
28	980
29	1902
30	514
31	2499
32	59
35	43
36	69
37	78
38	218
39	484
40	93
41	318
42	868
43	905
44	346
45	5960
46	150
47	28
49	77
50	793
51	1090
52	272
53	86
54	87
55	34
56	76
57	23
59	39
60	24
61	95
62	183
63	564
64	259
65	314
66	67
67	22
69	26
70	62
73	200
74	370
75	1747
76	562
77	2022
78	396
79	146
80	23
81	22
84	53
85	183
86	59
87	72
88	46
89	411
90	251
91	364
92	80
93	39
99	200
100	51
101	87
102	121
103	39
104	863
105	1093
106	159
107	23
109	29
111	1899
112	606
113	861
114	221
115	93
116	69
117	344
118	222
119	161
120	65
125	1058
126	111
127	407
128	45
129	37
130	114
131	182
132	52
133	27
134	25
135	52
136	30
137	25
138	1111
139	25
140	8205
141	1018
142	2347
143	235
144	18
149	347
150	53
151	36
152	92
153	95
154	300
155	61
156	89
166	181
167	28
168	78
169	36
170	26
178	27
180	51
181	22
182	132
183	22
184	9999
185	1231
186	3240
187	333
188	22
196	25
215	1228
216	140
217	431
218	46
