Mass Spectrum: m-Terphenyl
Formula: C18 H14
CAS: 92-06-8
Molecular weight: 230
Origin: Japan AIST/NIMC Database- Spectrum MS-NW-8176
m/z	RELATIVE INTENSITY
27	20
39	80
50	50
51	139
52	30
62	30
63	109
64	10
65	30
74	50
75	99
76	149
77	109
78	20
81	20
82	10
86	20
87	60
88	169
89	119
91	40
93	20
94	99
95	20
98	20
99	20
100	119
101	449
102	119
103	10
106	50
107	129
108	20
111	10
112	40
113	329
114	259
115	909
116	30
125	10
126	70
127	60
128	159
129	10
139	50
150	80
151	199
152	379
153	169
154	30
163	40
164	10
165	70
166	10
174	10
175	20
176	60
177	20
178	20
187	30
188	20
189	119
190	30
191	20
199	10
200	90
201	90
202	419
203	159
204	30
213	70
214	30
215	349
216	60
224	50
225	60
226	519
227	469
228	1179
229	1039
230	9999
231	1959
232	169
233	10
