Mass Spectrum: 4-Phenylpyrocatechol
Formula: C12 H10 O2
CAS: 92-05-7
Molecular weight: 186
Origin: P.A. Leclercq, Lab. Instrum. Anal., Tech. Univ. Eindhoven, Netherlands
m/z	RELATIVE INTENSITY
27	289
38	179
39	989
50	389
51	529
62	149
63	329
64	269
69	279
70	609
74	139
75	169
76	139
77	299
78	179
93	719
102	289
114	159
115	269
127	319
128	1189
129	279
138	199
139	3159
140	2029
141	239
156	349
157	439
185	239
186	9999
187	1369
188	129
