Mass Spectrum: Pilocarpine
Formula: C11 H16 N2 O2
CAS: 92-13-7
Molecular weight: 208
Origin: Patti Price, Georgia Bureau of Investigation, Decatur, Georgia
m/z	RELATIVE INTENSITY
41	1321
42	1731
43	100
44	190
45	30
50	70
51	180
52	240
53	480
54	850
55	520
56	70
57	40
59	20
63	50
64	20
65	120
66	170
67	250
68	380
69	80
70	10
73	10
77	80
78	40
79	80
80	160
81	190
82	280
83	310
84	20
85	50
91	30
92	50
93	60
94	170
95	9999
96	2302
97	130
98	10
105	10
106	20
107	60
108	50
109	870
110	80
111	20
119	20
120	20
121	230
122	70
123	140
124	50
133	50
134	10
135	50
137	20
138	10
147	20
149	70
150	10
151	40
163	10
164	10
193	30
207	10
208	600
209	80
