Mass Spectrum: Phenyltoloxamine
Formula: C17 H21 N O
CAS: 92-12-6
Molecular weight: 255
Origin: Tox21 Consortium/NIST Mass Spectrometry Data Center, 2012
m/z	RELATIVE INTENSITY
15	20
18	20
27	40
28	60
29	60
30	150
38	10
39	80
40	10
41	40
42	550
43	220
44	200
45	50
46	160
50	40
51	130
52	40
53	20
54	20
55	50
56	290
57	140
58	9999
59	360
62	20
63	70
64	20
65	80
66	10
70	110
71	140
72	270
73	10
74	20
75	20
76	40
77	160
78	80
79	10
82	20
86	10
87	10
88	10
89	70
90	20
91	440
92	40
101	10
102	40
103	20
104	10
105	30
106	10
107	10
113	10
114	10
115	140
116	20
118	10
119	10
126	30
127	60
128	100
129	30
131	10
132	10
133	10
134	10
138	10
139	70
140	10
141	20
150	10
151	50
152	230
153	130
154	40
155	30
162	10
163	70
164	60
165	390
166	80
167	30
168	10
178	20
179	10
181	250
182	40
183	10
184	10
195	30
196	10
209	10
210	190
211	30
224	10
255	290
256	50
257	10
