Mass Spectrum: Leucinocaine
Formula: C17 H28 N2 O2
CAS: 92-23-9
Molecular weight: 292
Origin: Finnigan MAT: Toxicological Library (LIBR-TX)
m/z	RELATIVE INTENSITY
41	192
42	187
43	183
44	179
56	305
58	108
65	193
71	207
72	884
84	93
86	426
92	307
96	100
100	196
120	1783
121	103
142	9999
143	1129
235	205
