Mass Spectrum: Biphenyl
Formula: C12 H10
CAS: 92-52-4
Molecular weight: 154
Origin: NIST Mass Spectrometry Data Center, 1990.
m/z	RELATIVE INTENSITY
26	58
27	115
28	12
37	35
38	105
39	396
40	44
50	730
51	1148
52	240
53	27
61	109
62	358
63	927
64	462
65	162
70	43
73	66
74	612
75	675
76	2001
77	843
78	178
87	252
88	104
89	298
90	21
91	42
100	73
101	157
102	490
103	64
113	124
114	72
115	578
116	55
125	63
126	499
127	432
128	638
129	63
137	13
139	231
140	28
149	32
150	332
151	1000
152	3163
153	4801
154	9999
155	1297
156	77
