Mass Spectrum: Benzenemethanamine, N-ethyl-N-phenyl-
Formula: C15 H17 N
CAS: 92-59-1
Molecular weight: 211
Origin: Japan AIST/NIMC Database- Spectrum MS-NW-8491
m/z	RELATIVE INTENSITY
15	20
26	10
27	179
28	109
29	179
30	20
38	40
39	429
40	40
41	139
42	60
44	40
50	119
51	729
52	129
53	30
54	10
62	30
63	199
64	99
65	1099
66	70
74	20
75	40
76	70
77	1649
78	239
79	169
80	10
89	149
90	80
91	9999
92	849
93	50
94	10
102	10
103	50
104	579
105	199
106	459
107	30
115	30
116	10
117	20
118	119
119	80
120	169
121	20
127	20
128	20
132	10
134	759
135	80
151	20
152	60
153	30
154	60
155	20
165	40
166	20
167	30
180	159
181	40
182	119
183	20
194	20
196	1699
197	269
198	20
208	10
210	159
211	2269
212	389
213	30
