Mass Spectrum: 2-(Diacetoxymethyl)-5-nitrofuran
Formula: C9 H9 N O7
CAS: 92-55-7
Molecular weight: 243
Origin: NIST Mass Spectrometry Data Center
m/z	RELATIVE INTENSITY
15	40
26	20
27	50
29	80
30	200
37	60
38	310
39	370
40	50
41	40
42	220
43	9999
44	260
45	70
46	10
49	10
50	70
51	110
52	90
53	60
54	120
55	440
56	50
60	30
61	30
65	10
66	200
67	40
68	290
69	10
70	10
72	10
79	10
80	80
81	10
82	200
83	1421
84	230
85	30
90	220
93	10
94	100
95	50
96	651
97	40
98	10
99	10
100	20
103	20
111	3493
112	390
113	230
114	100
123	10
124	180
125	160
126	40
129	10
130	20
140	130
141	530
142	220
143	20
156	80
158	10
171	120
172	10
184	200
185	10
