Mass Spectrum: p-Hydroxybiphenyl
Formula: C12 H10 O
CAS: 92-69-3
Molecular weight: 170
Origin: NIST Mass Spectrometry Data Center, 1990.
m/z	RELATIVE INTENSITY
26	68
27	170
28	210
29	93
32	63
38	142
39	551
50	420
51	585
52	140
53	158
54	140
55	349
58	180
61	125
62	481
63	957
64	205
65	320
66	85
70	228
72	183
73	53
74	431
75	420
76	454
77	490
78	92
84	352
85	635
86	279
87	346
88	263
89	719
90	108
91	143
98	133
99	74
101	103
102	330
103	127
113	294
115	2970
116	398
118	98
126	122
127	147
128	104
131	99
139	1019
141	3043
142	473
143	69
144	143
150	94
151	245
152	329
153	218
155	104
168	245
169	1263
170	9999
171	1284
172	103
