Mass Spectrum: Thianthrene
Formula: C12 H8 S2
CAS: 92-85-3
Molecular weight: 216
Origin: D.HENNEBERG, MAX-PLANCK INSTITUTE, MULHEIM, WEST GERMANY
m/z	RELATIVE INTENSITY
27	24
28	123
29	17
33	7
34	22
38	12
39	140
40	7
41	28
42	12
43	51
44	55
45	157
46	8
47	7
48	3
49	4
50	89
51	81
52	21
53	6
55	8
56	13
57	26
58	67
59	7
60	3
62	17
63	177
64	54
65	44
66	6
69	452
70	112
71	100
72	9
73	6
74	27
75	101
76	52
77	132
78	16
79	10
81	24
82	169
83	24
84	19
85	28
86	89
87	28
88	39
89	135
90	28
91	9
92	26
93	59
94	30
95	280
96	313
97	28
98	17
99	21
100	12
101	101
102	96
103	25
105	8
106	24
107	62
108	601
109	64
110	14
111	5
112	7
113	89
114	149
115	131
116	15
117	4
119	16
120	48
121	78
122	10
123	6
124	5
125	28
126	109
127	244
128	57
129	3
132	32
133	23
134	71
135	12
136	11
137	43
138	153
139	1237
140	249
141	23
142	5
144	10
145	192
146	80
147	47
148	10
149	9
150	72
151	128
152	543
153	86
154	6
155	7
156	26
157	68
158	172
159	27
160	17
161	4
165	6
166	4
169	96
170	228
171	1555
172	528
173	124
174	32
175	7
176	4
177	59
178	10
179	6
180	5
181	17
182	220
183	414
184	5844
185	817
186	310
187	35
188	8
189	19
190	116
191	19
192	11
201	21
202	7
213	24
214	390
215	624
216	9999
217	1507
218	972
219	139
220	35
