Mass Spectrum: [1,1'-Biphenyl]-4,4'-diol
Formula: C12 H10 O2
CAS: 92-88-6
Molecular weight: 186
Origin: NIST Mass Spectrometry Data Center, 1990.
m/z	RELATIVE INTENSITY
27	109
39	298
50	236
51	461
52	105
53	188
55	214
62	216
63	491
64	290
65	242
70	148
74	295
75	323
76	278
77	721
78	175
87	139
89	300
92	129
93	557
101	171
102	381
103	293
115	584
118	206
126	147
127	655
128	1140
129	553
130	121
131	844
132	160
139	397
140	142
141	221
155	132
157	1781
158	286
169	169
186	9999
187	1335
188	123
