Mass Spectrum: Acridine, 9,10-dihydro-
Formula: C13 H11 N
CAS: 92-81-9
Molecular weight: 181
Origin: NIST Mass Spectrometry Data Center, 1990.
m/z	RELATIVE INTENSITY
26	28
27	90
28	44
37	29
38	64
39	216
40	33
49	26
50	258
51	344
52	108
53	29
61	42
62	179
63	484
64	130
65	37
73	23
74	206
75	471
76	686
77	605
85	16
86	78
87	96
88	16
89	688
90	1030
98	76
99	82
100	100
101	153
102	121
103	39
111	32
112	19
113	98
114	45
115	40
123	20
124	29
125	150
126	251
127	272
128	192
129	40
137	16
138	17
139	30
140	57
141	24
149	55
150	276
151	697
152	1256
153	318
154	116
164	44
165	15
175	37
176	79
177	419
178	1261
179	3036
180	9999
181	4300
182	483
183	33
