Mass Spectrum: Phenothiazine
Formula: C12 H9 N S
CAS: 92-84-2
Molecular weight: 199
Origin: Tox21 Consortium/NIST Mass Spectrometry Data Center, 2012
m/z	RELATIVE INTENSITY
26	10
27	40
28	30
37	50
38	140
39	360
40	20
41	10
45	450
46	10
47	30
49	20
50	440
51	440
52	200
53	40
54	20
56	10
57	50
58	110
59	20
60	20
61	70
62	210
63	631
64	210
65	230
66	40
68	10
69	781
70	240
71	140
72	50
73	60
74	260
75	270
76	240
77	601
78	160
79	20
80	10
81	90
82	220
83	70
86	310
88	90
89	170
90	80
91	40
92	20
93	160
94	80
95	220
96	140
97	40
98	410
99	1361
101	180
102	150
103	60
104	20
105	20
106	30
107	30
108	220
109	90
110	30
111	20
112	20
113	140
114	120
115	180
116	100
117	40
118	10
119	30
120	70
121	70
122	200
123	20
124	10
125	50
126	210
127	691
128	480
129	90
130	40
131	10
132	20
133	30
134	50
135	20
136	10
137	50
138	130
139	831
140	731
141	110
142	10
143	10
144	10
145	120
146	110
147	30
148	20
151	20
152	110
153	250
154	1351
155	360
156	40
157	10
158	20
159	60
160	30
161	10
164	230
165	200
166	2542
167	6696
168	871
169	120
170	120
171	520
172	180
173	100
174	20
183	20
184	10
194	10
195	10
196	230
197	410
198	1822
199	9999
200	1501
201	540
202	60
203	10
