Mass Spectrum: 1,1'-Biphenyl, 4,4'-dibromo-
Formula: C12 H8 Br2
CAS: 92-86-4
Molecular weight: 310
Origin: NIST Mass Spectrometry Data Center, 1998.
m/z	RELATIVE INTENSITY
26	20
27	50
37	40
38	100
39	150
49	60
50	740
51	590
52	60
55	10
61	160
62	440
63	930
65	10
73	90
74	800
75	1490
76	3090
78	50
79	30
80	10
81	20
82	10
84	10
85	90
86	250
87	310
88	110
89	50
90	10
97	50
98	380
99	350
100	150
101	500
102	390
103	60
104	20
105	10
106	10
107	10
109	40
110	100
111	130
112	30
113	170
114	130
115	170
116	170
118	10
119	30
120	10
121	20
122	100
123	70
124	60
125	400
126	1060
127	130
128	20
129	10
130	20
131	10
137	20
138	10
141	10
143	10
146	20
149	130
150	1600
151	2660
152	9999
153	1290
154	90
155	280
156	490
157	250
180	60
181	10
182	60
193	10
195	10
204	40
205	10
206	40
207	10
230	90
231	20
232	100
233	20
234	20
310	3660
311	480
312	6979
313	910
314	3450
315	440
316	30
