Mass Spectrum: Biphenyl-4-carboxylic acid
Formula: C13 H10 O2
CAS: 92-92-2
Molecular weight: 198
Origin: Japan AIST/NIMC Database- Spectrum MS-NW-7055
m/z	RELATIVE INTENSITY
16	10
18	20
26	10
27	50
28	20
29	10
32	10
37	10
38	30
39	159
40	10
44	20
45	80
49	10
50	279
51	389
52	90
53	20
55	20
57	10
58	10
61	40
62	139
63	379
64	60
65	60
66	10
69	10
70	30
71	10
72	50
73	20
74	239
75	339
76	949
77	349
78	60
79	10
84	40
85	499
86	80
87	109
88	40
89	70
90	249
91	60
97	10
98	90
99	179
100	40
101	129
102	249
103	50
105	10
110	20
111	30
113	50
114	30
115	169
116	20
121	10
122	20
123	10
125	60
126	289
127	359
128	70
129	30
131	10
137	10
138	10
139	80
140	20
141	99
142	20
149	30
150	269
151	839
152	2989
153	2039
154	289
155	30
165	20
166	10
167	10
168	20
169	40
170	209
171	30
179	20
180	30
181	4379
182	669
183	60
196	10
197	30
198	9999
199	1469
200	149
201	10
