Mass Spectrum: 2-Propenenitrile, 2-chloro-
Formula: C3 H2 Cl N
CAS: 920-37-6
Molecular weight: 87
Origin: Japan AIST/NIMC Database- Spectrum MS-NW- 829
m/z	RELATIVE INTENSITY
12	70
13	20
14	10
24	169
25	459
26	1269
27	50
28	70
35	289
36	159
37	239
38	289
39	10
40	10
47	179
48	20
49	259
50	509
51	2979
52	9999
53	349
55	10
56	20
59	50
60	1099
61	279
62	399
63	80
64	10
70	20
71	10
73	20
75	10
76	10
77	10
83	10
84	10
85	20
86	249
87	9169
88	529
89	2999
90	129
91	10
