Mass Spectrum: 2-Butanamine, N,N-dimethyl-
Formula: C6 H15 N
CAS: 921-04-0
Molecular weight: 101
Origin: CARL DJERASSI DEPT OF CHEM STANFORD UNIV STANFORD CALIF 94305
m/z	RELATIVE INTENSITY
41	600
42	1800
43	300
44	1500
45	100
54	100
55	200
56	900
57	300
58	200
70	600
71	800
72	9999
73	500
84	200
85	100
86	1700
87	100
100	100
101	500
