Mass Spectrum: 2-Propanone, 1,1,3-trichloro-
Formula: C3 H3 Cl3 O
CAS: 921-03-9
Molecular weight: 160
Origin: Chuck Anderson, Aldrich Chemical Co.
m/z	RELATIVE INTENSITY
13	32
14	69
15	8
24	22
25	119
26	386
27	317
28	53
29	116
35	155
36	86
37	149
38	92
39	46
40	14
41	126
42	966
43	56
47	241
48	483
49	1850
50	164
51	562
52	4
53	31
54	3
59	9
60	89
61	590
62	108
63	234
64	26
72	17
73	26
75	13
76	676
77	9999
78	428
79	3190
80	65
82	57
83	1615
84	52
85	1022
86	16
87	175
89	8
95	26
96	35
97	212
98	26
99	136
101	21
111	37
113	23
125	53
126	25
127	36
128	15
160	142
162	157
164	49
