Mass Spectrum: Hydrazine, 1,1-bis(1-methylethyl)-
Formula: C6 H16 N2
CAS: 921-14-2
Molecular weight: 116
Origin: ATLAS OF MASS SPECTRA OF ORGANIC COMPOUNDS, V. A. KOPTYUG, ED.
m/z	RELATIVE INTENSITY
27	1440
28	870
29	520
30	640
31	390
39	780
40	170
41	1650
42	2610
43	2110
44	730
54	100
55	140
56	1930
57	360
58	490
59	9999
60	360
70	90
73	430
84	140
101	3890
102	270
116	1900
117	220
