Mass Spectrum: 2-Pentene, 3-methyl-, (Z)-
Formula: C6 H12
CAS: 922-62-3
Molecular weight: 84
Origin: NIST Mass Spectrometry Data Center, 1990.
m/z	RELATIVE INTENSITY
14	236
15	605
16	87
18	44
26	441
27	3119
28	2457
29	1583
30	44
31	44
32	582
37	116
38	385
39	3420
40	792
41	9999
42	1223
43	611
49	64
50	545
51	750
52	312
53	1412
54	577
55	4156
56	2186
57	104
61	42
62	98
63	151
65	256
66	105
67	942
68	42
69	7302
70	405
77	72
79	52
84	3600
85	228
