Mass Spectrum: Acetic acid, oxo-, methyl ester
Formula: C3 H4 O3
CAS: 922-68-9
Molecular weight: 88
Origin: A.E.EARL LABATT BREWERIES, LONDON, ONTARIO, CANADA
m/z	RELATIVE INTENSITY
15	4400
28	2300
29	9999
30	950
31	6700
32	2000
41	120
43	1550
44	1200
45	700
55	170
60	2000
78	100
88	200
