Mass Spectrum: 2-Propynoic acid, methyl ester
Formula: C4 H4 O2
CAS: 922-67-8
Molecular weight: 84
Origin: Japan AIST/NIMC Database- Spectrum MS-NW-1585
m/z	RELATIVE INTENSITY
12	40
13	70
14	80
15	689
16	10
17	10
18	60
24	169
25	769
26	459
27	109
28	169
29	589
30	129
31	359
32	20
36	20
37	40
38	50
39	959
40	909
41	99
42	80
43	189
44	189
45	80
52	179
53	9999
54	2339
55	809
56	209
57	10
59	30
66	60
67	20
68	40
69	109
75	10
83	20
84	70
