Mass Spectrum: Propanedinitrile, methylene-
Formula: C4 H2 N2
CAS: 922-64-5
Molecular weight: 78
m/z	RELATIVE INTENSITY
14	470
15	20
16	10
24	440
25	751
26	2522
27	180
28	190
29	30
36	420
37	581
38	1301
39	150
48	80
49	30
50	1241
51	7747
52	2913
53	60
54	10
62	90
63	50
64	110
65	10
75	20
76	741
77	4894
78	9999
79	500
80	20
