Mass Spectrum: 1-Pentyne, 3-methyl-
Formula: C6 H10
CAS: 922-59-8
Molecular weight: 82
Origin: NIST Mass Spectrometry Data Center, 1990.
m/z	RELATIVE INTENSITY
13	32
14	62
15	310
16	39
18	42
25	82
26	714
27	3680
28	617
29	851
31	34
36	38
37	330
38	737
39	4521
40	770
41	3611
42	595
43	102
49	278
50	1542
51	1869
52	1231
53	4168
54	1926
55	361
56	425
57	36
60	25
61	134
62	248
63	348
64	133
65	1501
66	25
67	9999
68	525
74	59
77	204
79	493
81	970
82	176
