Mass Spectrum: 1,4-Pentadien-3-ol
Formula: C5 H8 O
CAS: 922-65-6
Molecular weight: 84
Origin: Chuck Anderson, Aldrich Chemical Co.
m/z	RELATIVE INTENSITY
15	30
25	58
26	668
27	2988
28	840
29	4453
30	213
31	1680
32	61
36	39
37	371
38	768
39	4166
40	1027
41	2930
42	1192
43	1609
44	263
45	88
49	96
50	350
51	387
52	168
53	933
54	389
55	8964
56	3246
57	3390
58	175
60	29
61	134
62	186
63	240
64	66
65	984
66	624
67	553
68	64
69	739
70	33
81	97
82	183
83	9999
84	589
85	35
