Mass Spectrum: Cyclohexanecarboxaldehyde, 4-(hydroxymethyl)-
Formula: C8 H14 O2
CAS: 92385-32-5
Molecular weight: 142
Origin: James Little,Eastman Chem.Co.,Kingsport,TN
m/z	RELATIVE INTENSITY
29	1762
31	1491
39	3113
41	5165
43	1391
51	761
53	2012
54	1992
55	6646
57	2943
67	9789
68	3293
70	2482
77	2732
79	3703
80	4014
81	9999
83	2622
91	3463
93	5625
94	1872
95	9479
96	6226
97	791
106	1151
109	1611
110	420
111	641
112	470
114	651
124	1291
125	430
142	140
143	30
