Mass Spectrum: sec-Butyl nitrite
Formula: C4 H9 N O2
CAS: 924-43-6
Molecular weight: 103
Origin: Leung Pu, NIH, Bethesda, Maryland, U.S.
m/z	RELATIVE INTENSITY
41	2000
42	933
43	9999
44	1077
45	1550
46	300
47	46
48	19
52	159
53	233
54	281
55	577
56	513
57	3071
58	250
59	697
60	133
61	159
62	19
63	16
64	14
65	22
66	32
67	60
68	99
69	202
70	459
71	355
72	146
73	301
74	59
75	28
83	72
84	138
85	88
86	238
87	842
88	260
89	13
102	8
103	117
104	12
