Mass Spectrum: 1-Butanamine, N-butyl-N-nitroso-
Formula: C8 H18 N2 O
CAS: 924-16-3
Molecular weight: 158
Origin: Japan AIST/NIMC Database- Spectrum MS-NW-2105
m/z	RELATIVE INTENSITY
14	20
15	319
16	10
26	149
27	1959
28	619
29	5179
30	3279
31	80
32	10
37	30
38	60
39	979
40	139
41	5499
42	3489
43	4369
44	2229
45	119
47	90
50	30
51	40
52	40
53	139
54	189
55	1059
56	1419
57	9149
58	499
59	60
60	80
61	10
67	30
68	109
69	40
70	829
71	109
72	699
73	149
74	759
75	20
79	10
80	20
81	20
82	90
83	40
84	9999
85	1019
86	1609
87	90
95	60
96	40
97	20
98	119
99	1909
100	149
101	90
102	50
103	409
104	20
110	20
112	169
113	20
115	2069
116	3069
117	179
118	10
126	30
127	20
128	40
129	119
130	10
138	10
141	969
142	99
143	10
158	1549
159	149
160	10
