Mass Spectrum: 1,5-Hexadien-3-ol
Formula: C6 H10 O
CAS: 924-41-4
Molecular weight: 98
Origin: NIST Mass Spectrometry Data Center, 1994
m/z	RELATIVE INTENSITY
14	17
15	109
19	12
25	26
26	274
27	1307
28	335
29	2985
30	100
31	764
32	3
37	115
38	275
39	1501
40	237
41	854
42	418
43	378
44	49
49	28
50	168
51	221
52	103
53	211
54	99
55	720
56	28
57	9999
58	332
59	31
61	20
62	24
63	28
65	53
66	36
67	54
68	33
69	163
70	85
71	33
74	21
77	126
78	26
79	149
80	80
81	36
83	93
97	39
