Mass Spectrum: n-Propyl acrylate
Formula: C6 H10 O2
CAS: 925-60-0
Molecular weight: 114
Origin: NIST Mass Spectrometry Data Center
m/z	RELATIVE INTENSITY
14	30
15	150
25	60
26	641
27	3643
28	350
29	571
30	90
31	510
37	20
38	70
39	500
40	100
41	1131
42	1061
43	751
44	50
45	60
53	110
55	9999
56	520
57	110
58	30
59	390
60	60
68	100
69	100
70	20
71	30
73	6426
74	210
75	30
81	10
83	10
84	40
85	761
86	60
96	20
99	160
100	10
113	10
