Mass Spectrum: 4-Pentadecanone
Formula: C15 H30 O
CAS: 925-51-9
Molecular weight: 226
Origin: V.G.Zaikin, TIPS, Russian Acad. Sci.
m/z	RELATIVE INTENSITY
39	1401
40	400
41	3603
42	1201
43	8007
44	600
53	600
54	400
55	3302
56	1801
57	400
58	1000
59	1401
68	700
69	400
70	1000
71	9999
72	1601
73	2502
85	2502
86	1801
87	800
99	1000
112	200
113	800
127	600
141	600
155	300
169	300
183	2502
184	500
226	300
227	50
