Mass Spectrum: Butanedioic acid, bis(2-methylpropyl) ester
Formula: C12 H22 O4
CAS: 925-06-4
Molecular weight: 230
Origin: V.G. Zaikin, R.S.Borisov, TIPS RAS, Moscow, Russia
m/z	RELATIVE INTENSITY
26	20
27	140
29	300
31	20
36	50
39	150
40	20
41	621
42	70
43	180
44	20
45	60
53	10
55	350
56	831
57	3573
58	140
71	40
72	30
73	320
74	170
75	30
84	90
85	10
86	20
99	30
100	150
101	9999
102	370
103	90
114	140
115	40
118	30
119	1301
120	50
130	150
131	20
132	20
141	70
155	20
156	40
157	1411
158	120
159	50
175	370
176	30
215	10
231	20
