Mass Spectrum: Diallyl succinate
Formula: C10 H14 O4
CAS: 925-16-6
Molecular weight: 198
Origin: NIST Mass Spectrometry Data Center, 1990.
m/z	RELATIVE INTENSITY
14	27
15	84
18	3
25	27
26	303
27	946
28	1234
29	780
30	57
31	122
37	39
38	205
39	1883
40	27
41	9999
42	622
43	260
44	23
45	273
53	45
54	179
55	1518
56	1053
57	984
58	66
66	21
67	88
68	108
69	104
70	78
71	106
72	21
73	800
74	56
79	35
80	115
81	235
83	119
84	105
85	26
94	88
95	62
96	31
97	65
98	106
99	59
100	26
101	3277
102	143
111	37
112	106
113	111
114	126
140	758
141	2040
142	162
143	29
