Mass Spectrum: 3-Nonanone
Formula: C9 H18 O
CAS: 925-78-0
Molecular weight: 142
Origin: Japan AIST/NIMC Database- Spectrum MS-NW-3983
m/z	RELATIVE INTENSITY
14	10
15	90
18	40
26	129
27	1699
28	419
29	4459
30	109
31	60
32	10
37	10
38	40
39	719
40	129
41	2059
42	329
43	9999
44	349
45	70
50	30
51	50
52	20
53	189
54	80
55	599
56	289
57	7699
58	499
59	90
63	10
64	10
65	30
66	10
67	90
68	159
69	269
70	90
71	229
72	6949
73	979
74	50
77	20
79	20
81	40
82	20
83	50
84	50
85	2899
86	269
87	10
90	10
91	10
93	10
95	349
96	30
97	10
99	209
100	169
101	10
105	10
109	10
111	10
112	20
113	4039
114	349
115	20
123	10
124	30
142	399
143	50
