Mass Spectrum: N,N'-Di(p-chlorobenzyl)urea
Formula: C15 H14 Cl2 N2 O
CAS: 92550-15-7
Molecular weight: 308
Origin: A. SAEED, DEP. CHEM., COLL. SCI., BASRAH UNIV., BASRAH, IRAQ
m/z	RELATIVE INTENSITY
77	1700
78	500
89	1500
90	700
91	500
106	1100
113	500
125	6900
126	500
127	1900
132	700
138	600
140	9999
141	1000
142	3700
183	3600
184	500
185	1500
308	3700
309	500
310	2300
311	700
