Mass Spectrum: 1,3-Dichloro-2-butene
Formula: C4 H6 Cl2
CAS: 926-57-8
Molecular weight: 124
Origin: Japan AIST/NIMC Database- Spectrum MS-NW- 945
m/z	RELATIVE INTENSITY
14	20
15	40
25	60
26	499
27	2349
28	70
29	20
35	109
36	339
37	179
38	199
39	759
40	50
41	40
42	20
43	539
44	80
45	20
47	60
48	50
49	449
50	719
51	1219
52	369
53	8249
54	519
55	50
57	10
60	80
61	399
62	249
63	459
64	90
65	109
70	10
71	70
72	30
73	189
74	20
75	109
77	20
79	10
83	99
84	10
85	60
86	10
87	229
88	319
89	9999
90	549
91	3209
92	129
96	10
97	30
98	10
99	20
105	10
109	159
111	99
113	20
123	10
124	1939
125	109
126	1229
127	70
128	199
129	10
