Mass Spectrum: 1-Penten-3-yne, 2-methyl-
Formula: C6 H8
CAS: 926-55-6
Molecular weight: 80
Origin: NIST Mass Spectrometry Data Center, 1990.
m/z	RELATIVE INTENSITY
12	40
13	43
14	89
15	318
16	31
25	79
26	502
27	1836
28	199
29	43
31	89
32	12
36	153
37	888
38	1574
39	6906
40	1030
41	1203
42	45
48	66
49	393
50	2008
51	2428
52	2155
53	1478
54	370
60	150
61	594
62	1085
63	1802
64	463
65	2967
66	158
73	201
74	534
75	194
76	150
77	5762
78	1076
79	6220
80	9999
81	642
