Mass Spectrum: 1,3-Pentadiene, 2-methyl-, (E)-
Formula: C6 H10
CAS: 926-54-5
Molecular weight: 82
Origin: NIST Mass Spectrometry Data Center, 1990.
m/z	RELATIVE INTENSITY
14	208
15	300
26	248
27	1287
28	1533
29	222
32	441
37	224
38	648
39	4129
40	887
41	3527
42	629
50	670
51	808
52	379
53	1382
54	1239
55	355
56	183
62	209
63	344
65	1752
67	9999
68	569
77	409
79	979
80	190
81	1009
82	3986
83	304
