Mass Spectrum: Methanesulfonic acid, 1-methylethyl ester
Formula: C4 H10 O3 S
CAS: 926-06-7
Molecular weight: 138
m/z	RELATIVE INTENSITY
15	2454
18	454
27	2068
28	1023
29	1136
31	477
38	295
39	1727
40	454
41	3750
42	1886
43	9999
44	454
45	2750
59	2136
60	341
65	454
79	5454
80	386
81	273
97	545
123	7613
124	273
125	500
138	18
