Mass Spectrum: Heptane, 3,5-dimethyl-
Formula: C9 H20
CAS: 926-82-9
Molecular weight: 128
Origin: NIST Mass Spectrometry Data Center, 1990.
m/z	RELATIVE INTENSITY
14	92
15	41
16	47
27	932
28	90
29	1628
30	40
37	13
39	1242
41	3761
42	792
43	2129
44	119
50	53
51	117
52	60
53	397
54	13
55	1660
56	2123
57	9999
58	453
59	21
63	22
65	70
66	24
67	130
68	45
69	443
70	1434
71	1624
72	86
77	38
79	32
81	16
83	85
84	21
85	48
98	678
99	1426
100	106
113	38
128	176
129	19
