Mass Spectrum: Ethanethioic acid, S-(1-methylethyl) ester
Formula: C5 H10 O S
CAS: 926-73-8
Molecular weight: 118
Origin: W. UTILIZATION R & D DIV., U.S. DEPT. OF AGRIC., ALBANY, CAL.
m/z	RELATIVE INTENSITY
27	536
29	28
35	10
39	863
40	113
41	2118
42	447
43	9999
44	285
45	337
46	65
47	351
48	45
49	86
57	65
58	282
59	701
60	278
61	681
74	894
75	457
76	1279
77	306
78	69
85	76
103	55
118	2307
119	120
120	113
