Mass Spectrum: Propane, 2-(ethenyloxy)-
Formula: C5 H10 O
CAS: 926-65-8
Molecular weight: 86
Origin: Japan AIST/NIMC Database- Spectrum MS-IW-3819
m/z	RELATIVE INTENSITY
13	10
14	99
15	429
16	10
18	20
25	20
26	259
27	2819
28	189
29	489
30	10
31	359
32	10
37	80
38	189
39	1579
40	339
41	6149
42	1919
43	9999
44	8639
45	3169
46	90
47	10
50	10
51	10
53	20
55	50
56	20
57	289
58	1779
59	659
60	20
61	10
67	20
68	30
69	20
70	10
71	329
72	99
73	10
85	219
86	4739
87	399
88	20
