Mass Spectrum: 7-Tridecanol
Formula: C13 H28 O
CAS: 927-45-7
Molecular weight: 200
Origin: NIST Mass Spectrometry Data Center, 1990.
m/z	RELATIVE INTENSITY
27	1406
28	733
29	2421
30	104
31	405
39	808
41	3658
42	751
43	3957
44	921
45	308
53	286
55	9999
56	865
57	1538
58	402
59	202
67	386
68	461
69	2256
70	721
71	505
72	156
81	356
82	129
83	311
84	177
85	336
86	147
95	92
97	9810
98	789
111	153
113	342
115	3083
116	233
182	258
