Mass Spectrum: 1-Butanamine, N,N-dimethyl-
Formula: C6 H15 N
CAS: 927-62-8
Molecular weight: 101
Origin: Japan AIST/NIMC Database- Spectrum MS-NW-1254
m/z	RELATIVE INTENSITY
15	249
26	20
27	229
28	80
29	279
30	419
38	10
39	119
40	20
41	199
42	689
43	179
44	429
45	50
46	10
51	10
53	10
54	20
55	50
56	129
57	169
58	9999
59	379
68	10
70	60
71	90
72	50
84	30
98	20
100	90
101	869
102	60
