Mass Spectrum: Ethanol, 2-bromo-, acetate
Formula: C4 H7 Br O2
CAS: 927-68-4
Molecular weight: 166
Origin: Japan AIST/NIMC Database- Spectrum MS-NW-4370
m/z	RELATIVE INTENSITY
13	20
14	99
15	449
16	10
25	20
26	199
27	1099
28	149
29	229
30	50
31	99
32	10
39	10
41	50
42	479
43	9999
44	259
45	90
57	10
60	20
61	189
73	1279
74	50
79	60
80	50
81	70
82	60
86	30
87	1439
88	70
91	20
92	20
93	179
94	60
95	159
96	40
105	20
106	2309
107	479
108	2219
109	449
110	10
120	10
122	10
123	10
125	10
166	10
168	10
