Mass Spectrum: Butanoyl chloride, 4-bromo-
Formula: C4 H6 Br Cl O
CAS: 927-58-2
Molecular weight: 184
Origin: V.Zaikin,Topchiev Inst.Petrochem.Synth.,Moscow
m/z	RELATIVE INTENSITY
27	2432
28	861
29	1081
30	120
31	80
34	30
35	340
36	701
37	761
38	1201
39	4794
40	1371
41	9999
42	7337
43	550
44	230
45	90
47	40
48	40
49	230
50	130
51	170
52	40
53	180
54	50
55	1481
56	1081
57	240
60	20
61	60
62	40
63	871
64	30
65	340
67	40
68	100
69	931
70	190
71	30
74	20
75	80
76	40
77	480
78	1531
79	601
80	661
81	470
82	260
83	50
84	30
85	330
86	771
87	60
91	40
92	30
93	480
94	20
95	480
97	40
104	50
105	821
106	110
107	420
108	90
109	90
119	50
120	50
121	631
122	70
123	601
140	30
145	20
148	490
149	3143
150	591
151	3223
152	130
