Mass Spectrum: 2-Propenal, 3-(dimethylamino)-
Formula: C5 H9 N O
CAS: 927-63-9
Molecular weight: 99
Origin: Chuck Anderson, Aldrich Chemical Co.
m/z	RELATIVE INTENSITY
13	20
14	118
15	1411
16	25
17	11
18	192
25	72
26	601
27	1465
28	2098
29	1404
30	771
31	56
32	24
35	61
36	28
37	129
38	227
39	570
40	532
41	1774
42	9999
43	1357
44	1666
45	802
46	185
49	41
50	95
51	135
52	408
53	385
54	933
55	3826
56	1002
57	279
58	55
64	18
65	69
66	108
67	345
68	732
69	156
70	1165
71	91
72	30
80	152
82	6419
83	366
84	771
85	38
96	93
98	3333
99	5801
100	381
101	20
