Mass Spectrum: Diazene, bis(1,1-dimethylethyl)-
Formula: C8 H18 N2
CAS: 927-83-3
Molecular weight: 142
Origin: KONINKLIJKE SHELL LABORATORIUM AMSTERDAM
m/z	RELATIVE INTENSITY
29	5131
30	217
31	17
32	103
36	8
37	77
38	173
39	1975
40	408
41	6202
42	738
43	700
44	96
45	8
48	4
49	17
50	63
51	70
52	34
53	105
54	72
55	375
56	510
57	9999
58	461
59	27
60	11
61	2
62	1
63	1
64	3
65	2
66	2
67	3
68	4
69	6
70	16
71	625
72	29
73	6
74	3
75	2
76	4
77	3
78	1
79	2
80	2
81	2
82	2
83	6
84	3
85	13
86	3
87	4
88	2
89	1
90	1
91	2
92	1
93	2
94	1
95	2
96	2
97	7
98	3
99	2
100	1
101	3
102	1
103	2
104	2
105	3
111	2
112	2
127	21
128	4
