Mass Spectrum: 1,5-Pentanedithiol
Formula: C5 H12 S2
CAS: 928-98-3
Molecular weight: 136
Origin: Japan AIST/NIMC Database- Spectrum MS-NW-9719
m/z	RELATIVE INTENSITY
15	40
26	80
27	1129
28	229
29	709
30	10
32	50
33	50
34	109
35	509
36	20
37	40
38	70
39	1209
40	239
41	5089
42	429
43	339
44	80
45	1349
46	659
47	4439
48	169
49	219
50	60
51	70
52	20
53	569
54	349
55	2959
56	1079
57	179
58	249
59	699
60	2199
61	2449
62	179
63	119
64	30
65	99
66	60
67	2409
68	4459
69	5079
70	289
71	109
72	40
73	669
74	1239
75	109
76	70
77	10
78	10
79	99
80	10
81	10
82	40
83	60
84	10
85	90
86	10
87	4049
88	229
89	469
90	20
91	20
93	10
97	10
99	30
100	10
101	269
102	9999
103	769
104	489
105	40
134	269
135	20
136	969
137	70
138	80
