Mass Spectrum: 2-Hexen-1-ol, (E)-
Formula: C6 H12 O
CAS: 928-95-0
Molecular weight: 100
Origin: Japan AIST/NIMC Database- Spectrum MS-NW-1249
m/z	RELATIVE INTENSITY
14	20
15	129
17	30
18	149
19	30
26	149
27	2059
28	229
29	1599
30	99
31	969
32	20
37	40
38	139
39	1449
40	279
41	4329
42	909
43	1499
44	1829
45	359
46	10
47	10
49	10
50	90
51	179
52	60
53	479
54	489
55	1119
56	1359
57	9999
58	669
59	149
60	10
61	10
62	20
63	30
65	80
66	40
67	1499
68	119
69	489
70	129
71	1019
72	459
73	30
77	30
79	50
80	10
81	159
82	2059
83	219
84	40
85	80
97	20
98	30
99	30
100	269
101	20
