Mass Spectrum: Ethyl-1-propenyl ether
Formula: C5 H10 O
CAS: 928-55-2
Molecular weight: 86
Origin: NIST Mass Spectrometry Data Center, 2009
m/z	RELATIVE INTENSITY
14	10
15	50
25	20
26	320
27	1281
28	771
29	2312
30	851
31	280
37	50
38	150
39	1001
40	530
41	741
42	120
43	460
44	40
45	370
46	10
50	10
52	10
53	50
54	20
55	350
56	60
57	9999
58	4554
59	170
60	10
69	30
70	10
71	20
85	10
86	3984
87	220
88	20
