Mass Spectrum: 2-Hexen-1-ol, (Z)-
Formula: C6 H12 O
CAS: 928-94-9
Molecular weight: 100
Origin: Japan AIST/NIMC Database- Spectrum MS-NW-9936
m/z	RELATIVE INTENSITY
15	80
17	10
18	50
19	20
26	119
27	1659
28	349
29	1799
30	109
31	849
32	10
37	40
38	129
39	1539
40	299
41	4429
42	849
43	1449
44	1899
45	459
46	10
47	10
49	10
50	119
51	209
52	80
53	569
54	689
55	1249
56	1309
57	9999
58	729
59	409
60	10
61	10
62	20
63	40
65	129
66	60
67	3029
68	229
69	529
70	159
71	1119
72	519
73	109
74	10
75	10
77	50
78	10
79	99
80	20
81	279
82	3269
83	419
84	40
85	90
97	20
98	30
99	30
100	139
101	10
