Mass Spectrum: 5-Hexyn-1-ol
Formula: C6 H10 O
CAS: 928-90-5
Molecular weight: 98
Origin: Japan AIST/NIMC Database- Spectrum MS-NW-9673
m/z	RELATIVE INTENSITY
14	20
15	129
17	30
18	109
25	10
26	239
27	2029
28	809
29	1769
30	129
31	6859
32	119
33	30
36	20
37	229
38	589
39	5269
40	4629
41	6369
42	1779
43	2319
44	899
45	269
46	10
47	10
49	70
50	659
51	1069
52	3729
53	2309
54	4749
55	3199
56	709
57	5249
58	329
59	309
60	20
61	80
62	149
63	289
64	60
65	1989
66	469
67	2729
68	639
69	1269
70	7889
71	459
72	30
73	20
74	50
75	40
76	20
77	2029
78	369
79	9999
80	979
81	419
82	50
83	1859
84	109
85	10
91	60
92	10
93	20
94	40
95	80
96	60
97	1929
98	789
99	60
