Mass Spectrum: 3-Decanone
Formula: C10 H20 O
CAS: 928-80-3
Molecular weight: 156
Origin: NIST Mass Spectrometry Data Center, 1990.
m/z	RELATIVE INTENSITY
26	156
27	1246
28	105
29	2517
30	66
39	939
40	304
41	2579
42	929
43	2469
44	110
51	91
53	302
54	197
55	1511
56	91
57	9999
58	438
59	90
67	383
68	76
69	206
70	135
71	76
72	5768
73	1108
81	76
82	166
83	168
84	167
85	1033
86	104
98	49
99	131
100	73
109	375
113	71
114	132
127	2503
128	213
156	142
