Mass Spectrum: 3-Hexyne
Formula: C6 H10
CAS: 928-49-4
Molecular weight: 82
Origin: NIST Mass Spectrometry Data Center, 1990.
m/z	RELATIVE INTENSITY
15	990
26	603
27	2628
28	770
29	592
37	608
38	1176
39	6859
40	1739
41	8780
42	1573
43	180
49	310
50	1730
51	2227
52	956
53	3503
54	2161
55	806
56	177
61	351
62	744
63	1151
64	177
65	4270
66	1029
67	9999
68	497
73	101
74	277
75	97
76	97
77	718
78	180
79	1478
80	190
81	996
82	9782
83	625
