Mass Spectrum: 1-Pentene, 5-chloro-
Formula: C5 H9 Cl
CAS: 928-50-7
Molecular weight: 104
Origin: NIST Mass Spectrometry Data Center, 1990.
m/z	RELATIVE INTENSITY
14	49
15	351
26	1163
27	5191
28	1312
29	2276
31	130
32	16
35	112
36	123
37	676
38	1396
39	8498
40	2237
41	9551
42	5540
43	249
44	71
47	99
48	101
49	920
50	587
51	953
52	366
53	3318
54	71
55	9999
56	450
60	56
61	247
62	623
63	1052
64	147
65	664
66	56
67	6862
68	6448
69	1749
70	120
75	506
76	784
77	171
78	310
89	98
104	1104
105	72
106	350
