Mass Spectrum: (CH3)2NSSN(CH3)2
Formula: C4 H12 N2 S2
CAS: 928-05-2
Molecular weight: 152
Origin: LAC, NIDDK, NIH, Bethesda, MD 20892
m/z	RELATIVE INTENSITY
41	360
42	9587
43	4953
44	7267
45	477
46	302
47	337
48	101
49	199
51	70
55	10
56	12
57	14
58	88
59	73
60	343
61	1242
62	77
63	27
64	982
65	166
66	90
67	29
69	11
70	11
71	10
72	13
74	43
76	7102
77	300
78	341
79	84
80	4
81	10
83	5
84	83
85	16
86	59
88	14
91	12
96	123
97	78
98	19
99	11
105	12
107	93
108	9999
110	1925
111	42
112	36
119	10
120	1291
121	88
122	64
128	65
129	5
130	13
151	92
152	1938
153	122
154	173
155	9
