Mass Spectrum: Ethanethioic acid, S-butyl ester
Formula: C6 H12 O S
CAS: 928-47-2
Molecular weight: 132
Origin: W. UTILIZATION R & D DIV., U.S. DEPT. OF AGRIC., ALBANY, CAL.
m/z	RELATIVE INTENSITY
27	469
28	76
29	589
35	54
39	440
40	28
41	1102
42	184
43	9999
44	250
45	383
46	199
47	608
48	57
49	47
53	114
54	79
55	573
56	1741
57	294
58	114
59	218
60	136
61	279
71	38
72	877
73	92
76	260
77	469
85	123
88	339
89	272
90	209
99	146
103	41
117	19
132	1567
133	92
134	85
