Mass Spectrum: 2-Heptanone, 6-methyl-
Formula: C8 H16 O
CAS: 928-68-7
Molecular weight: 128
Origin: Japan AIST/NIMC Database- Spectrum MS-NW-8304
m/z	RELATIVE INTENSITY
14	20
15	309
18	20
26	40
27	689
28	109
29	569
30	20
31	40
38	30
39	549
40	99
41	1479
42	409
43	9999
44	259
45	149
48	30
50	10
51	30
52	10
53	119
54	30
55	749
56	179
57	429
58	6729
59	759
60	90
61	10
65	10
67	80
68	80
69	559
70	849
71	1279
72	109
73	40
74	30
81	40
82	10
83	20
84	20
85	569
86	70
87	10
95	809
96	60
97	20
99	60
100	10
109	50
110	639
111	70
113	109
114	10
128	179
129	20
