Mass Spectrum: Nitric acid, butyl ester
Formula: C4 H9 N O3
CAS: 928-45-0
Molecular weight: 119
Origin: MINISTRY OF TECH., E.R.D.E., WALTHAM ABBEY, UK
m/z	RELATIVE INTENSITY
12	10
13	10
14	80
15	420
16	20
25	50
26	330
27	3590
28	900
29	2430
30	1420
31	790
37	370
38	760
39	1200
40	220
41	5330
42	590
43	9999
44	620
45	80
46	8010
50	40
51	40
53	60
55	390
56	380
57	1920
58	20
60	130
71	80
72	60
76	6540
77	70
90	20
104	10
