Mass Spectrum: 1,4-Decadiyne
Formula: C10 H14
CAS: 929-53-3
Molecular weight: 134
Origin: NIST Mass Spectrometry Data Center
m/z	RELATIVE INTENSITY
12	20
13	20
14	30
15	300
16	10
17	30
18	70
24	20
25	70
26	631
27	5275
28	1201
29	6085
30	160
32	100
37	290
38	841
39	6035
40	721
41	7417
42	821
43	681
44	40
50	3203
51	6536
52	2542
53	1241
54	340
55	2552
56	661
57	761
58	40
60	30
61	260
62	811
63	1992
64	490
65	3063
66	571
67	3984
68	420
69	150
70	100
74	1131
75	731
76	1141
77	6105
78	5385
79	3653
80	470
81	460
82	701
83	50
84	10
85	60
86	140
87	150
89	621
91	9999
92	1521
93	991
95	8137
96	621
97	40
98	50
101	30
103	1211
104	410
105	2522
106	440
107	70
108	10
115	270
116	100
117	661
118	100
119	941
120	90
131	40
133	110
134	30
