Mass Spectrum: Diglycolamine
Formula: C4 H11 N O2
CAS: 929-06-6
Molecular weight: 105
Origin: Japan AIST/NIMC Database- Spectrum MS-NW-4209
m/z	RELATIVE INTENSITY
14	40
15	279
16	10
17	50
18	179
19	10
26	40
27	419
28	499
29	259
30	9999
31	329
32	60
33	10
40	20
41	109
42	539
43	1079
44	2039
45	1109
46	30
48	40
54	20
55	20
56	60
57	20
58	149
59	99
60	149
61	10
62	20
70	10
72	10
73	10
74	70
75	70
85	10
86	10
87	70
88	10
