Mass Spectrum: 4-Heptenal, (E)-
Formula: C7 H12 O
CAS: 929-22-6
Molecular weight: 112
Origin: A.S. MCGILL, TORRY RES. STAT., ABERDEEN, U.Km
m/z	RELATIVE INTENSITY
27	3040
29	2600
39	3480
41	9999
42	3040
55	7390
56	3480
67	3480
68	9130
69	2390
83	5000
84	6080
94	2820
112	1000
