Mass Spectrum: Docosanoic acid, methyl ester
Formula: C23 H46 O2
CAS: 929-77-1
Molecular weight: 354
Origin: NIST Mass Spectrometry Data Center
m/z	RELATIVE INTENSITY
14	10
15	50
16	10
26	10
27	190
29	741
30	30
31	30
33	10
39	250
40	60
41	2662
42	591
43	5345
44	170
45	120
51	10
52	10
53	140
54	290
55	3833
56	791
57	3443
58	200
59	881
60	50
61	30
65	30
66	20
67	430
68	190
69	1802
70	330
71	1071
72	80
73	250
74	9999
75	2843
76	130
77	30
78	10
79	90
80	30
81	340
82	150
83	1181
84	390
85	561
87	7347
88	550
89	50
91	20
93	80
94	30
95	290
96	130
97	1001
98	400
99	120
100	30
101	641
102	60
103	10
105	10
107	80
108	20
109	170
110	70
111	450
112	100
113	70
114	20
115	230
116	130
117	10
119	10
121	120
122	20
123	90
124	40
125	220
126	40
127	30
128	10
129	711
130	200
131	20
133	10
135	100
136	20
137	40
138	20
139	100
140	20
141	20
143	2302
144	220
145	20
148	10
149	80
150	10
151	10
152	10
153	60
154	20
155	10
157	220
158	30
163	40
164	10
165	10
166	10
167	40
168	10
169	10
171	100
172	30
173	10
177	20
178	10
179	10
180	10
181	20
182	10
185	330
186	80
187	10
191	10
193	10
195	20
196	10
199	581
200	90
201	10
205	10
208	10
209	10
210	10
213	170
214	20
215	10
219	10
222	10
223	10
224	10
227	100
228	20
233	10
235	10
236	10
237	20
238	10
241	170
242	40
251	10
252	10
255	550
256	90
257	10
261	10
265	10
269	230
270	40
271	10
278	10
279	10
280	10
283	70
284	10
297	140
298	40
299	10
304	10
305	10
311	911
312	200
313	30
321	10
322	10
323	260
324	70
325	160
326	40
327	10
354	1672
355	440
356	50
