Mass Spectrum: 2-Chloroethyl palmitate
Formula: C18 H35 Cl O2
CAS: 929-16-8
Molecular weight: 318
Origin: FDA, Los Angeles District Laboratory
m/z	RELATIVE INTENSITY
41	3350
42	1500
43	9999
44	600
53	250
54	550
55	6099
56	1350
57	3850
58	450
60	700
61	350
62	6699
63	3700
64	2100
65	1550
67	600
68	500
69	2500
70	900
71	2200
73	900
81	650
82	400
83	2100
84	1250
85	950
86	2600
87	1600
95	400
96	250
97	1550
98	700
99	500
101	250
107	250
109	250
111	550
112	200
121	250
122	5949
123	1850
124	1950
125	850
135	4950
136	500
137	2200
138	250
149	450
163	250
177	550
179	200
191	1500
193	400
219	400
233	300
239	1550
240	350
247	250
275	450
318	750
320	250
