Mass Spectrum: 1,3,6-Octatriene
Formula: C8 H12
CAS: 929-20-4
Molecular weight: 108
m/z	RELATIVE INTENSITY
13	10
14	10
15	130
24	10
25	20
26	300
27	2963
28	490
29	961
30	20
31	10
34	10
35	10
36	20
37	150
38	470
39	5115
40	841
41	4124
42	230
43	100
44	20
45	30
46	10
47	20
48	10
49	70
50	671
51	1461
52	791
53	2032
54	1722
55	651
56	10
58	40
59	30
60	10
61	70
62	180
63	460
64	170
65	1682
66	2813
67	1942
68	210
69	20
73	20
74	120
75	300
76	60
77	6956
78	1802
79	9999
80	1792
81	561
82	40
85	20
86	10
87	20
88	220
89	220
90	220
91	220
92	520
93	4894
94	390
95	20
101	10
102	20
103	90
104	20
105	290
106	120
107	320
108	2372
109	210
110	20
