Mass Spectrum: Octane, 1-methoxy-
Formula: C9 H20 O
CAS: 929-56-6
Molecular weight: 144
Origin: NIST Mass Spectrometry Data Center
m/z	RELATIVE INTENSITY
15	100
26	40
27	701
28	220
29	1221
30	30
31	100
33	120
37	10
38	30
39	841
40	170
41	2923
42	1581
43	1802
45	9999
46	230
47	100
50	20
51	60
52	30
53	260
54	280
55	2762
56	4494
57	1141
58	210
59	80
60	30
63	10
65	40
66	20
67	240
68	991
69	2592
70	2332
71	480
72	30
73	10
77	20
79	30
81	40
82	751
83	2142
84	3053
85	210
86	10
87	110
88	10
95	10
97	220
98	30
101	60
110	10
112	1682
113	150
114	10
143	10
