Mass Spectrum: Benzoic acid, 3,4-dimethoxy-
Formula: C9 H10 O4
CAS: 93-07-2
Molecular weight: 182
Origin: Japan AIST/NIMC Database- Spectrum MS-NW-4822
m/z	RELATIVE INTENSITY
14	30
15	409
17	20
18	70
25	10
26	60
27	90
28	60
29	169
30	20
31	219
32	10
36	10
37	99
38	149
39	399
40	149
41	279
42	40
43	119
44	20
45	179
47	10
49	60
50	509
51	1109
52	259
53	299
54	40
55	289
56	10
57	10
59	119
60	20
61	99
62	239
63	449
64	139
65	739
66	159
67	309
68	389
69	149
70	20
71	20
73	30
74	119
75	129
76	199
77	1439
78	149
79	1049
80	109
81	329
82	30
83	109
84	10
85	10
90	10
91	159
92	209
93	639
94	179
95	1129
96	459
97	80
98	10
99	20
102	10
103	40
104	70
105	80
106	20
107	329
108	119
109	219
110	20
111	1529
112	109
113	10
119	369
120	90
121	1139
122	259
123	50
124	60
125	129
126	10
133	10
134	10
135	70
136	99
137	249
138	30
139	839
140	60
141	10
149	249
150	30
151	30
152	30
153	20
154	10
163	10
165	579
166	159
167	2409
168	219
169	30
181	30
182	9999
183	1009
184	139
185	10
