Mass Spectrum: Benzenemethanol, 3,4-dimethoxy-
Formula: C9 H12 O3
CAS: 93-03-8
Molecular weight: 168
Origin: Japan AIST/NIMC Database- Spectrum MS-NW-3769
m/z	RELATIVE INTENSITY
15	459
18	10
26	80
27	379
28	50
29	299
30	40
31	299
32	10
33	10
37	70
38	199
39	959
40	129
41	879
42	50
43	249
44	20
45	289
46	10
47	10
49	40
50	359
51	859
52	329
53	739
54	279
55	399
56	40
57	60
58	20
59	489
60	20
61	80
62	159
63	379
64	189
65	1739
66	469
67	919
68	90
69	99
70	10
71	70
73	20
74	90
75	80
76	129
77	1159
78	409
79	649
80	139
81	449
82	559
83	60
84	40
85	20
86	10
87	10
88	20
89	259
90	179
91	199
92	199
93	1069
94	559
95	709
96	279
97	1979
98	179
99	20
101	10
103	10
104	60
105	499
106	269
107	849
108	639
109	1429
110	299
111	70
112	20
113	10
115	10
116	10
118	279
119	299
120	50
121	689
122	229
123	199
124	509
125	359
126	30
133	10
134	20
135	419
136	169
137	2039
138	249
139	2629
140	249
141	30
142	10
143	20
149	20
150	10
151	2249
152	379
153	1229
154	109
155	20
164	10
165	199
166	249
167	1039
168	9999
169	999
170	109
171	10
