Mass Spectrum: 2-Naphthalenecarboxylic acid
Formula: C11 H8 O2
CAS: 93-09-4
Molecular weight: 172
Origin: Japan AIST/NIMC Database- Spectrum MS-NW-4530
m/z	RELATIVE INTENSITY
14	50
16	10
17	10
18	30
26	20
27	70
28	40
29	30
30	10
31	20
37	40
38	60
39	149
40	30
41	30
42	10
43	20
44	90
45	99
49	40
50	379
51	499
52	70
53	30
55	30
56	20
57	30
58	50
59	10
60	10
61	119
62	199
63	749
64	109
65	50
66	10
69	10
70	10
71	30
72	299
73	50
74	419
75	539
76	259
77	699
78	109
79	10
82	10
83	10
84	10
85	40
86	299
87	159
88	40
89	99
90	10
97	20
98	149
99	109
100	90
101	439
102	129
103	10
104	20
105	30
110	10
111	10
113	30
114	60
115	439
116	109
117	10
120	10
121	10
122	40
123	10
125	99
126	1069
127	5389
128	789
129	60
134	10
139	20
140	20
141	10
142	20
143	40
144	249
145	30
146	10
151	10
152	20
153	20
154	50
155	4679
156	579
157	50
167	10
168	10
169	20
170	10
171	129
172	9999
173	1189
174	119
