Mass Spectrum: 1,4-Benzenediamine, N,N-diethyl-
Formula: C10 H16 N2
CAS: 93-05-0
Molecular weight: 164
Origin: NIST Mass Spectrometry Data Center, 1994
m/z	RELATIVE INTENSITY
14	30
15	116
16	10
17	15
18	38
26	195
27	982
28	406
29	842
30	98
37	37
38	124
39	609
40	106
41	226
42	202
43	27
44	25
45	11
46	18
50	54
51	214
52	474
53	347
54	194
55	39
56	74
60	136
62	99
63	266
64	303
65	1495
66	407
67	91
68	22
72	9
75	105
76	57
77	243
78	167
79	260
80	305
81	59
82	100
88	16
89	46
90	99
91	364
92	1251
93	1582
94	596
95	46
101	8
102	15
103	27
104	89
105	178
106	470
107	705
108	143
115	16
116	48
117	142
118	8
119	2672
120	4182
121	1629
122	136
130	20
131	70
132	183
133	329
134	673
135	413
136	52
145	17
147	148
149	9999
150	1110
151	50
160	9
161	40
164	5308
165	629
166	42
167	6
