Mass Spectrum: Methyleugenol
Formula: C11 H14 O2
CAS: 93-15-2
Molecular weight: 178
Origin: N.W. Davies, Centr. Sci. Lab., Univ. Tasmania, Hobart, Australia
m/z	RELATIVE INTENSITY
27	100
31	50
39	510
41	850
45	130
46	140
50	160
51	560
52	180
53	140
55	370
57	210
59	90
60	140
62	80
63	300
64	130
65	560
66	130
74	80
75	80
76	90
77	770
78	270
79	730
80	60
89	190
90	140
91	1390
92	270
94	60
95	60
102	110
103	1410
104	290
105	570
106	200
107	1310
108	190
115	570
116	180
117	410
118	100
119	140
120	310
121	160
131	340
132	230
133	160
134	50
135	620
136	80
146	310
147	2380
148	290
149	120
151	1020
152	100
161	60
162	150
163	2830
164	350
177	250
178	9999
179	1220
180	120
