Mass Spectrum: 2-Naphthalenesulfonyl chloride
Formula: C10 H7 Cl O2 S
CAS: 93-11-8
Molecular weight: 226
Origin: Japan AIST/NIMC Database- Spectrum MS-NW-4245
m/z	RELATIVE INTENSITY
26	10
27	50
28	20
32	20
35	20
36	149
37	40
38	60
39	159
40	10
41	10
43	10
44	40
45	40
48	209
49	20
50	299
51	459
52	70
53	20
57	10
60	10
61	70
62	169
63	619
64	319
65	50
66	20
68	20
69	60
73	40
74	379
75	519
76	279
77	949
78	109
79	50
80	10
81	109
82	50
84	10
85	30
86	90
87	159
88	40
89	90
90	10
91	30
93	20
95	70
96	10
97	10
98	109
99	90
100	99
101	599
102	119
103	50
104	10
105	20
110	10
111	10
113	40
114	70
115	559
116	90
117	10
119	20
120	10
121	10
122	30
123	10
125	90
126	1229
127	9999
128	1679
129	139
130	10
131	30
134	10
141	10
142	10
143	50
144	50
145	20
147	189
148	30
149	20
150	10
158	40
159	80
160	129
161	30
162	1849
163	219
164	619
165	70
174	20
175	339
176	40
177	20
179	10
191	1999
192	289
193	119
194	10
197	30
199	10
206	30
208	30
225	10
226	2359
227	299
228	899
229	109
230	50
