Mass Spectrum: 2-Quinolinecarboxylic acid
Formula: C10 H7 N O2
CAS: 93-10-7
Molecular weight: 173
Origin: W.T.RAINEY OAK RIDGE NATIONAL LABORATORY,OAK RIDGE,TN.USA
m/z	RELATIVE INTENSITY
38	289
39	499
44	129
45	559
46	629
50	1249
51	1469
52	439
61	269
62	429
63	639
64	429
74	859
75	1569
76	1039
77	1009
78	349
87	139
88	99
89	149
98	129
99	209
100	339
101	1659
102	2139
103	639
127	419
128	2459
129	9999
130	999
131	49
173	1789
174	199
175	29
