Mass Spectrum: Phenol, 2-methoxy-4-(1-propenyl)-, acetate
Formula: C12 H14 O3
CAS: 93-29-8
Molecular weight: 206
Origin: RADIAN CORP
m/z	RELATIVE INTENSITY
39	90
41	100
42	50
43	1610
53	90
55	510
56	10
57	10
63	120
64	50
65	460
66	110
76	60
77	680
78	230
79	330
89	70
90	50
91	1250
92	150
93	90
96	10
102	70
103	610
104	690
105	290
106	20
107	380
108	50
109	30
115	260
116	50
117	40
118	50
119	50
120	60
121	570
122	50
123	10
124	10
131	1230
132	530
133	960
134	80
135	70
137	150
138	20
147	190
148	50
149	2350
150	180
151	20
163	260
164	9999
165	1190
166	120
206	530
207	70
