Mass Spectrum: Methoxyphenamine
Formula: C11 H17 N O
CAS: 93-30-1
Molecular weight: 179
Origin: AAFS Toxicology Section MS DB Committee, U. Alberta, Canada
m/z	RELATIVE INTENSITY
39	90
40	20
41	60
42	170
43	80
44	10
50	60
51	150
52	100
53	40
54	20
55	20
56	400
57	150
58	9999
59	340
62	40
63	100
64	30
65	390
70	20
74	120
76	40
77	360
78	400
79	110
80	20
82	20
89	160
90	70
91	1381
92	110
93	50
94	20
102	30
103	120
104	50
105	90
106	40
107	150
108	90
115	180
116	60
117	100
118	60
119	80
120	30
121	430
122	170
123	20
130	40
131	100
132	140
133	100
134	40
146	70
147	50
148	70
149	110
162	30
163	20
164	200
165	20
178	90
179	70
