Mass Spectrum: N-(4-Hydroxyphenyl)-2-naphthylamine
Formula: C16 H13 N O
CAS: 93-45-8
Molecular weight: 235
Origin: NIST Mass Spectrometry Data Center, 1998.
m/z	RELATIVE INTENSITY
26	10
27	60
29	20
38	40
39	270
40	20
41	10
43	10
50	110
51	220
52	170
53	220
54	40
55	70
61	20
62	100
63	320
64	80
65	210
66	30
68	30
74	120
75	240
76	200
77	360
78	80
79	40
80	70
81	250
82	100
83	20
86	40
87	90
88	200
89	320
90	140
93	40
94	160
95	290
98	40
99	50
100	50
101	250
102	450
103	100
104	40
108	680
110	80
111	10
113	110
114	160
115	1320
116	580
117	510
119	10
120	50
122	10
125	50
126	490
127	780
128	300
129	40
130	10
131	20
138	10
139	90
140	280
141	120
142	20
143	30
150	60
151	200
152	300
153	210
154	70
155	20
156	20
163	50
164	80
165	240
166	80
167	110
168	20
175	20
176	140
177	150
178	420
179	290
180	220
181	70
182	10
187	20
188	30
189	290
190	150
191	280
192	160
193	40
194	110
195	30
201	20
202	40
203	120
204	630
205	230
206	360
207	530
208	290
209	50
214	50
215	60
216	390
217	600
218	300
219	70
220	110
221	20
231	10
232	130
233	850
234	2120
235	9999
236	1770
237	170
238	10
