Mass Spectrum: Benzeneacetic acid, 3,4-dimethoxy-
Formula: C10 H12 O4
CAS: 93-40-3
Molecular weight: 196
Origin: Japan AIST/NIMC Database- Spectrum MS-NW-4298
m/z	RELATIVE INTENSITY
14	10
15	189
16	10
17	19
18	119
26	40
27	129
28	139
29	99
30	10
31	50
32	10
37	40
38	129
39	659
40	90
41	139
42	30
43	109
44	109
45	199
46	20
49	20
50	219
51	509
52	139
53	179
54	40
55	119
56	10
57	30
59	30
60	20
61	40
62	80
63	229
64	129
65	689
66	229
67	90
68	40
69	60
70	10
71	20
73	30
74	50
75	60
76	70
77	699
78	479
79	389
80	129
81	99
82	60
83	30
84	10
85	10
86	10
87	20
88	10
89	199
90	309
91	339
92	99
93	129
94	179
95	70
96	40
97	60
98	10
103	10
104	20
105	669
106	569
107	1459
108	489
109	289
110	70
111	289
112	20
115	10
116	20
117	20
118	90
119	40
120	30
121	179
122	80
123	30
124	80
125	99
126	10
127	10
128	10
129	10
130	10
131	10
133	20
134	20
135	389
136	119
137	119
138	30
139	209
140	30
141	20
143	20
145	10
147	10
148	20
149	40
150	50
151	9999
152	1089
153	139
154	10
162	90
163	249
164	40
165	30
166	30
167	30
168	60
169	10
173	40
175	30
177	20
178	40
179	30
180	40
181	419
182	70
183	10
195	20
196	5399
197	619
198	80
199	10
