Mass Spectrum: 1-Propanone, 1-phenyl-
Formula: C9 H10 O
CAS: 93-55-0
Molecular weight: 134
Origin: NIST Mass Spectrometry Data Center, 1990.
m/z	RELATIVE INTENSITY
14	22
26	103
27	419
28	27
29	253
32	11
37	39
38	83
39	185
50	828
51	2193
52	162
53	59
55	86
56	37
57	70
61	36
62	88
63	131
65	94
73	63
74	277
75	194
76	36
77	5864
78	439
79	75
89	53
91	70
103	57
105	9999
106	757
107	52
115	38
134	1645
135	162
