Mass Spectrum: Creosol
Formula: C8 H10 O2
CAS: 93-51-6
Molecular weight: 138
Origin: Japan AIST/NIMC Database- Spectrum MS-NW-1504
m/z	RELATIVE INTENSITY
14	30
15	269
25	10
26	139
27	609
28	159
29	209
30	20
31	99
32	40
33	10
37	119
38	339
39	1629
40	529
41	1179
42	90
43	259
44	20
46	10
47	20
49	70
50	509
51	1149
52	479
53	509
54	90
55	1839
56	70
57	20
60	10
61	90
62	179
63	399
64	119
65	879
66	839
67	1969
68	139
69	139
70	10
73	20
74	99
75	70
76	60
77	1709
78	649
79	299
80	40
81	149
82	10
85	10
86	20
87	10
89	40
90	20
91	219
92	40
93	80
94	629
95	3659
96	259
97	20
105	109
106	299
107	389
108	80
109	179
110	40
111	20
119	20
120	10
121	60
122	259
123	8699
124	689
125	60
135	40
136	50
137	669
138	9999
139	889
140	80
