Mass Spectrum: Mecoprop
Formula: C10 H11 Cl O3
CAS: 93-65-2
Molecular weight: 214
Origin: CATALOGUE OF MASS SPECTRA OF PESTICIDES, APRIL, 1975; J. FREUDENTHAL & L. G. GRAMBERG, NAT'L INST. OF PUBLIC HEALTH, THE NETHERLANDS
m/z	RELATIVE INTENSITY
27	498
36	340
38	213
39	473
43	742
45	402
50	381
51	1388
52	387
53	577
55	369
56	102
62	259
63	785
64	107
71	159
73	402
74	201
75	494
76	148
77	3619
78	908
79	684
85	158
86	247
87	115
89	1710
90	428
91	275
99	410
105	383
106	233
107	8011
108	893
112	190
113	697
114	123
115	243
124	211
125	921
126	256
127	333
133	115
134	180
135	259
141	3572
142	9999
143	2125
144	3563
145	273
153	121
154	231
155	155
168	154
169	1953
170	234
171	748
180	167
196	155
214	3064
215	380
216	1029
217	118
