Mass Spectrum: N-(2-Hydroxyethyl)iminodiacetic acid
Formula: C6 H11 N O5
CAS: 93-62-9
Molecular weight: 177
Origin: Japan AIST/NIMC Database- Spectrum MS-IW- 273
m/z	RELATIVE INTENSITY
14	60
15	479
16	10
17	40
18	149
26	70
27	269
28	839
29	229
30	259
31	189
32	10
36	10
38	10
39	50
40	119
41	519
42	5689
43	549
44	499
45	409
46	30
50	20
51	10
52	20
54	90
55	70
56	2849
57	219
58	159
59	289
60	999
61	20
68	20
69	40
70	379
71	50
72	159
73	70
74	579
75	20
77	20
78	20
83	10
84	50
85	20
86	2919
87	509
88	1869
89	80
90	10
94	30
97	10
98	10
99	20
100	319
101	1309
102	759
103	40
104	50
113	70
114	9999
115	1159
116	119
117	10
118	259
119	10
128	40
129	30
130	80
131	30
132	1359
133	99
134	10
141	10
146	2409
147	149
148	20
158	20
159	3059
160	309
161	30
177	109
178	80
