Mass Spectrum: Benzoic acid, phenyl ester
Formula: C13 H10 O2
CAS: 93-99-2
Molecular weight: 198
Origin: Japan AIST/NIMC Database- Spectrum MS-NW-4336
m/z	RELATIVE INTENSITY
26	10
27	50
28	30
37	30
38	90
39	399
40	20
49	20
50	269
51	979
52	40
53	20
61	10
62	40
63	90
64	40
65	309
66	40
73	10
74	90
75	60
76	129
77	3619
78	249
93	60
94	60
104	30
105	9999
106	749
107	40
115	50
139	10
141	30
198	409
199	60
