Mass Spectrum: Benzoic acid, anhydride
Formula: C14 H10 O3
CAS: 93-97-0
Molecular weight: 226
Origin: E. White, NIST, Gaithersburg, MD, USA
m/z	RELATIVE INTENSITY
26	17
27	66
28	11
37	18
38	64
39	112
43	11
44	122
49	18
50	357
51	1302
52	77
53	79
62	10
63	12
65	11
73	14
74	95
75	72
76	173
77	4302
78	331
79	11
103	14
104	28
105	9999
106	822
107	48
121	77
122	312
123	23
152	15
154	12
181	99
182	118
183	15
198	1272
199	177
200	16
226	1169
227	175
228	18
