Mass Spectrum: Benzene, 1,1'-(oxydiethylidene)bis-
Formula: C16 H18 O
CAS: 93-96-9
Molecular weight: 226
Origin: NIST Mass Spectrometry Data Center, 1990.
m/z	RELATIVE INTENSITY
15	60
26	29
27	330
29	29
37	16
38	51
39	312
40	26
41	36
42	16
43	661
45	14
49	21
50	218
51	788
52	149
53	86
62	36
63	161
64	46
65	131
66	19
74	64
75	66
77	1861
78	685
79	1221
80	99
89	75
91	816
92	66
93	42
101	22
102	107
103	846
104	922
105	9999
106	2504
107	534
108	32
121	1479
122	152
148	36
165	24
166	13
167	41
211	316
212	58
