Mass Spectrum: cis-Bicyclo[3.3.0]oct-2-ene
Formula: C8 H12
CAS: 930-99-4
Molecular weight: 108
Origin: NIST Mass Spectrometry Data Center, 1990.
m/z	RELATIVE INTENSITY
14	107
15	90
16	54
26	164
27	835
28	768
29	108
31	25
32	185
37	103
38	354
39	2478
40	527
41	1189
42	130
43	30
44	50
50	610
51	1173
52	649
53	704
54	235
55	72
61	67
62	199
63	458
64	67
65	1410
66	2924
67	2347
68	130
73	30
74	149
75	79
76	30
77	2931
78	1497
79	9999
80	5880
81	369
89	48
91	1111
93	2089
94	148
103	50
105	85
108	2366
109	191
