Mass Spectrum: Furan, 3-methyl-
Formula: C5 H6 O
CAS: 930-27-8
Molecular weight: 82
Origin: Japan AIST/NIMC Database- Spectrum MS-NW-9299
m/z	RELATIVE INTENSITY
13	10
14	20
15	20
25	40
26	409
27	2169
28	869
29	409
31	10
36	20
37	199
38	279
39	2639
40	169
41	199
42	80
43	40
48	20
49	189
50	829
51	1029
52	479
53	6009
54	1299
55	269
56	80
61	10
62	10
63	30
64	10
66	10
67	10
79	109
80	40
81	5429
82	9999
83	569
84	30
