Mass Spectrum: Cyclopropane, 1,2-dimethyl-, cis-
Formula: C5 H10
CAS: 930-18-7
Molecular weight: 70
m/z	RELATIVE INTENSITY
12	40
13	70
14	200
15	831
16	30
19	10
20	10
24	10
25	70
26	831
27	3723
28	641
29	3243
30	70
31	100
36	20
37	250
38	530
39	4184
40	711
41	4164
42	4514
43	270
44	10
48	10
49	60
50	300
51	350
52	110
53	1051
54	310
55	9999
56	430
57	10
60	10
61	40
62	60
63	70
64	10
65	60
66	20
67	170
68	30
69	210
70	5015
71	260
72	10
