Mass Spectrum: 3H-1,2,4-Triazol-3-one, 1,2-dihydro-
Formula: C2 H3 N3 O
CAS: 930-33-6
Molecular weight: 85
Origin: Japan AIST/NIMC Database- Spectrum MS-IW-3301
m/z	RELATIVE INTENSITY
12	30
13	80
14	70
15	30
16	30
26	60
27	489
28	1819
29	559
30	50
31	10
38	20
39	10
40	20
41	429
42	7449
43	429
44	299
54	30
55	119
56	10
57	10
58	10
69	10
85	9999
86	359
87	20
