Mass Spectrum: Cyclopentene, 1-chloro-
Formula: C5 H7 Cl
CAS: 930-29-0
Molecular weight: 102
Origin: F.GAYMARD FACULTY OF SCIENCE, NICE UNIV., NICE, FRANCE
m/z	RELATIVE INTENSITY
37	300
38	500
39	1950
40	350
41	1000
49	150
50	250
51	350
52	100
53	100
61	150
62	250
63	400
65	1950
66	1050
67	9999
68	600
73	300
75	150
101	650
102	2450
103	300
104	800
