Mass Spectrum: Oxirane, ethenyl-
Formula: C4 H6 O
CAS: 930-22-3
Molecular weight: 70
Origin: NIST Mass Spectrometry Data Center
m/z	RELATIVE INTENSITY
13	10
14	80
15	100
24	10
25	80
26	510
27	1071
28	90
29	931
30	120
31	320
36	80
37	771
38	1531
39	9999
40	2803
41	3213
42	6296
43	470
44	80
48	20
49	150
50	440
51	290
52	120
53	190
54	150
55	260
56	10
68	30
69	1992
70	160
