Mass Spectrum: 1,3-Dithiole-2-thione
Formula: C3 H2 S3
CAS: 930-35-8
Molecular weight: 134
Origin: James Little,Eastman Chem.Co.,Kingsport,TN
m/z	RELATIVE INTENSITY
32	2172
33	240
34	360
44	4404
45	3573
46	601
47	190
57	2282
58	9999
59	510
60	500
64	1381
69	1692
71	120
76	4374
77	450
78	440
88	220
89	170
90	991
108	250
134	7196
135	651
136	1081
137	160
138	120
