Mass Spectrum: Ethanone, 1-(2-methylcyclopropyl)-
Formula: C6 H10 O
CAS: 930-56-3
Molecular weight: 98
Origin: CARL DJERASSI DEPT OF CHEM STANFORD UNIV STANFORD CALIF 94305
m/z	RELATIVE INTENSITY
15	1100
26	300
27	2900
28	400
29	2100
37	100
38	300
39	4300
40	200
41	1600
42	600
43	9999
44	300
45	200
50	500
51	700
52	200
53	1500
54	400
55	6900
56	400
65	100
68	100
69	100
83	3400
84	100
98	300
