Mass Spectrum: Cyclopentane, 1-ethyl-2-methyl-, cis-
Formula: C8 H16
CAS: 930-89-2
Molecular weight: 112
m/z	RELATIVE INTENSITY
12	10
13	10
14	20
15	450
16	10
26	180
27	3733
28	921
29	3533
30	90
37	30
38	100
39	3193
40	631
41	8488
42	4944
43	1511
44	50
45	10
46	10
47	10
50	70
51	250
52	140
53	1031
54	671
55	9999
56	7707
57	1431
58	60
62	10
63	30
64	10
65	170
66	100
67	981
68	530
69	3333
70	5305
71	571
72	20
74	10
77	140
78	30
79	130
80	30
81	190
82	2162
83	8408
84	3593
85	210
86	10
91	30
92	10
93	10
94	10
95	30
96	10
97	661
98	50
99	10
110	10
111	30
112	1511
113	130
114	10
