Mass Spectrum: Cyclohexene, 1-chloro-
Formula: C6 H9 Cl
CAS: 930-66-5
Molecular weight: 116
Origin: J.VOTH UNIV. OF CALIF, DAVIS, CALIFORNIA, 95616, USA
m/z	RELATIVE INTENSITY
12	59
13	67
14	116
15	768
16	21
24	14
25	76
26	791
27	3088
28	538
29	260
31	81
35	115
36	134
37	425
38	697
39	2828
40	452
41	2078
42	145
43	50
45	23
47	125
48	73
49	410
50	1004
51	1710
52	929
53	3208
54	836
55	282
56	87
57	69
58	20
59	31
60	68
61	235
62	206
63	311
64	78
65	835
66	198
67	735
68	63
69	45
70	14
72	32
73	226
74	165
75	803
76	115
77	1293
78	363
79	2147
80	1969
81	9999
82	672
83	218
84	27
85	149
86	26
87	68
88	2268
89	133
90	715
91	43
96	18
98	17
99	32
100	36
101	228
102	25
103	72
112	14
113	12
115	95
116	2329
117	353
118	748
119	106
