Mass Spectrum: N-Methylmaleimide
Formula: C5 H5 N O2
CAS: 930-88-1
Molecular weight: 111
Origin: NIST Mass Spectrometry Data Center, 1994
m/z	RELATIVE INTENSITY
12	65
13	101
14	165
15	367
16	21
17	12
18	19
24	155
25	832
26	5021
27	1045
28	2741
29	721
30	90
36	75
37	253
38	191
39	204
40	259
41	323
42	733
43	51
44	34
50	41
51	199
52	430
53	2111
54	8911
55	1422
56	1636
57	566
58	157
62	12
63	28
64	31
66	668
67	782
68	72
69	38
70	161
80	25
82	3827
83	4063
84	190
96	47
110	1650
111	9999
112	606
113	14
