Mass Spectrum: 1H-Pyrazole, 1-methyl-
Formula: C4 H6 N2
CAS: 930-36-9
Molecular weight: 82
Origin: Japan AIST/NIMC Database- Spectrum MS-IW-1321
m/z	RELATIVE INTENSITY
13	10
14	30
15	329
25	30
26	299
27	339
28	1099
29	269
30	149
37	50
38	159
39	229
40	429
41	249
42	1099
43	70
50	20
51	169
52	439
53	869
54	1859
55	329
56	50
65	10
66	70
67	10
77	10
79	50
80	30
81	4109
82	9999
83	629
84	10
