Mass Spectrum: 2-Cyclopenten-1-one
Formula: C5 H6 O
CAS: 930-30-3
Molecular weight: 82
Origin: Japan AIST/NIMC Database- Spectrum MS-NW-1594
m/z	RELATIVE INTENSITY
12	20
13	40
14	99
15	80
17	30
18	109
24	20
25	159
26	1539
27	2599
28	2599
29	99
31	119
32	10
36	60
37	319
38	479
39	6669
40	319
41	229
42	329
43	90
44	30
48	40
49	229
50	759
51	769
52	459
53	3449
54	3659
55	1719
56	739
57	30
60	30
61	60
62	50
63	30
66	10
67	20
68	40
79	10
80	10
81	1349
82	9999
83	569
84	20
