Mass Spectrum: 4-Cyclopentene-1,3-dione
Formula: C5 H4 O2
CAS: 930-60-9
Molecular weight: 96
Origin: Chuck Anderson, Aldrich Chemical Co.
m/z	RELATIVE INTENSITY
13	205
14	668
15	50
17	8
18	19
20	17
24	85
25	429
26	3439
27	242
28	200
29	237
34	73
35	9
36	180
37	704
38	784
39	2579
40	2690
41	1130
42	7005
43	250
44	79
48	71
49	286
50	413
51	166
52	126
53	1019
54	4521
55	318
56	16
60	22
61	28
66	7
68	4330
69	413
70	21
96	9999
97	481
98	43
