Mass Spectrum: 4-Nitrobenzoic acid, undecyl ester
Formula: C18 H27 N O4
CAS: 93094-34-9
Molecular weight: 321
Origin: Zaikin V.G., TIPS RAS, Moscow, Russia
m/z	RELATIVE INTENSITY
26	140
27	390
28	10
29	871
30	120
36	50
37	30
38	50
39	470
40	110
41	2692
42	1001
43	3273
44	250
50	360
51	130
52	50
53	210
54	601
55	5095
56	3753
57	2602
58	110
63	90
64	160
65	490
66	100
67	771
68	1461
69	5375
70	4404
71	1321
72	60
73	30
74	140
75	520
76	1541
77	350
78	90
79	140
80	30
81	370
82	1912
83	6186
84	3373
85	671
86	40
90	30
91	210
92	911
93	180
94	60
95	200
96	801
97	5805
98	1882
99	170
103	250
104	3613
105	741
106	70
107	40
109	80
110	280
111	2322
112	981
113	100
119	50
120	1481
121	581
122	280
123	120
124	130
125	961
126	1922
127	190
133	30
134	781
135	320
136	70
137	2732
138	460
139	40
148	30
149	50
150	9999
151	3533
152	691
153	450
154	2202
155	270
163	40
165	170
166	70
167	250
168	4394
169	3353
170	290
171	30
178	70
181	30
191	50
192	30
193	30
194	80
205	90
206	170
218	30
219	30
223	220
224	30
249	50
275	40
291	540
292	120
293	80
304	40
321	150
322	50
