Mass Spectrum: Bicyclo[2.2.2]oct-2-ene
Formula: C8 H12
CAS: 931-64-6
Molecular weight: 108
Origin: Japan AIST/NIMC Database- Spectrum MS-IW-3669
m/z	RELATIVE INTENSITY
15	20
26	80
27	659
28	99
29	99
37	30
38	99
39	1089
40	139
41	579
42	20
45	10
49	10
50	239
51	569
52	349
53	349
54	419
55	50
61	10
62	40
63	119
64	20
65	349
66	249
67	839
68	50
74	40
75	20
76	20
77	1099
78	489
79	4069
80	9999
81	779
82	20
89	10
91	349
92	40
93	199
94	10
107	20
108	1839
109	159
