Mass Spectrum: Cyclooctene
Formula: C8 H14
CAS: 931-88-4
Molecular weight: 110
Origin: Japan AIST/NIMC Database- Spectrum MS-NW-3728
m/z	RELATIVE INTENSITY
15	109
26	159
27	1869
28	369
29	879
30	20
37	50
38	179
39	3129
40	619
41	6499
42	699
43	449
44	20
45	30
46	10
49	20
50	229
51	469
52	289
53	1539
54	8369
55	2429
56	1129
57	99
61	20
62	50
63	119
64	30
65	429
66	519
67	9999
68	3969
69	1749
70	309
71	40
73	10
74	50
75	20
76	10
77	389
78	119
79	629
80	359
81	4629
82	6379
83	619
84	149
85	20
89	10
91	239
92	30
93	90
94	20
95	1759
96	159
97	40
102	10
103	20
104	20
105	20
106	50
107	20
108	20
109	90
110	3499
111	329
112	179
113	20
