Mass Spectrum: Bicyclo[2.2.2]octane, 1-iodo-
Formula: C8 H13 I
CAS: 931-98-6
Molecular weight: 236
Origin: RH-4
m/z	RELATIVE INTENSITY
13	20
14	20
15	40
26	260
27	1290
28	530
29	420
32	50
37	110
38	255
39	2190
40	420
41	1630
42	150
43	380
44	40
49	70
50	470
51	740
52	390
53	990
54	430
55	1260
56	100
61	70
62	100
63	230
64	60
65	580
66	370
67	4910
68	520
69	250
70	50
73	40
74	90
75	90
76	40
77	1110
78	360
79	1680
80	695
81	2030
82	175
83	30
89	40
91	600
92	90
93	330
94	200
95	40
97	40
103	40
104	40
105	90
106	40
107	260
108	140
109	9999
110	940
111	50
112	50
127	1320
128	280
129	80
141	70
236	739
237	64
