Mass Spectrum: Pyrimidine, 2-methoxy-
Formula: C5 H6 N2 O
CAS: 931-63-5
Molecular weight: 110
Origin: V.A. KOPTYUG, VOL5, ATLAS OF MS OF ORGANIC COMPOUNDS
m/z	RELATIVE INTENSITY
37	40
38	200
39	590
40	2600
41	310
42	430
43	60
44	50
50	30
51	400
52	1290
53	6730
54	690
55	160
56	1060
57	190
58	250
65	40
66	170
67	250
68	520
69	60
76	20
77	90
78	20
79	1480
80	9999
81	2710
82	470
83	80
93	80
95	200
96	20
107	10
108	40
109	2730
110	9999
111	840
112	40
