Mass Spectrum: Tetrahydrofuran, 2-ethyl-5-methyl-
Formula: C7 H14 O
CAS: 931-39-5
Molecular weight: 114
Origin: P.Dagaut ET AL. Chromatographia,40,147,(1995)
m/z	RELATIVE INTENSITY
37	290
38	470
39	3773
40	801
41	5925
42	2192
43	4424
44	220
45	931
46	70
50	350
51	370
52	190
53	530
54	400
55	2953
56	2352
57	2662
58	370
59	641
65	240
67	3904
68	400
69	350
70	1111
71	190
79	100
81	1081
82	190
83	230
84	1962
85	9999
86	671
87	80
97	150
99	300
112	40
113	210
114	40
