Mass Spectrum: Cyclohexanol, 2-amino-, cis-
Formula: C6 H13 N O
CAS: 931-15-7
Molecular weight: 115
m/z	RELATIVE INTENSITY
30	1301
41	601
42	400
43	2502
44	400
56	9999
57	500
59	300
69	300
70	500
72	1201
86	300
98	200
115	4404
116	300
