Mass Spectrum: 1H-Imidazole, 2-ethyl-4-methyl-
Formula: C6 H10 N2
CAS: 931-36-2
Molecular weight: 110
Origin: RADIAN CORP
m/z	RELATIVE INTENSITY
15	20
26	200
27	430
28	950
29	180
30	20
37	60
38	170
39	680
40	280
41	750
42	1090
43	70
51	140
52	490
53	340
54	2290
55	570
56	1050
57	30
64	30
65	10
66	150
67	170
68	1310
69	90
77	40
80	110
81	450
82	760
83	150
93	150
94	300
95	9580
96	830
107	370
108	430
109	9999
110	7270
111	540
