Mass Spectrum: Isothiazole, 4-nitro-
Formula: C3 H2 N2 O2 S
CAS: 931-07-7
Molecular weight: 130
m/z	RELATIVE INTENSITY
30	2400
43	900
45	6099
46	850
56	700
57	9999
58	500
59	550
60	600
76	600
82	400
83	500
84	4000
87	700
100	600
114	800
130	7999
131	550
132	670
