Mass Spectrum: 1-Chloro-4-methylcyclohexane
Formula: C7 H13 Cl
CAS: 931-68-0
Molecular weight: 132
Origin: NIST Mass Spectrometry Data Center, 1990.
m/z	RELATIVE INTENSITY
15	102
26	115
27	788
28	70
29	364
38	184
39	1685
40	335
41	1765
42	632
43	133
49	121
50	192
51	414
52	186
53	932
54	1409
55	3213
56	388
57	87
62	140
63	172
64	69
65	335
66	259
67	1894
68	1190
69	313
70	63
75	277
76	101
77	392
78	111
79	825
80	63
81	9999
82	676
89	86
90	59
91	120
95	415
96	2128
97	665
98	49
132	106
