Mass Spectrum: 1,2-Cyclohexanediol
Formula: C6 H12 O2
CAS: 931-17-9
Molecular weight: 116
Origin: Japan AIST/NIMC Database- Spectrum MS-NW-4669
m/z	RELATIVE INTENSITY
14	60
15	269
16	10
17	70
18	329
19	219
25	10
26	239
27	1859
28	539
29	1339
30	119
31	1239
32	20
37	80
38	159
39	1619
40	379
41	3849
42	3449
43	1899
44	3439
45	599
46	20
47	159
49	20
50	119
51	189
52	70
53	389
54	1169
55	1749
56	1119
57	7279
58	399
59	50
60	239
61	40
62	30
63	40
65	99
66	60
67	649
68	389
69	1819
70	9999
71	639
72	179
73	199
74	179
75	30
77	109
78	60
79	359
80	899
81	269
82	50
83	2899
84	169
85	139
86	99
87	40
88	40
94	40
95	20
96	30
97	749
98	3049
99	239
100	20
112	50
114	10
115	30
116	1019
117	70
