Mass Spectrum: Cyclohexene, 1-methoxy-
Formula: C7 H12 O
CAS: 931-57-7
Molecular weight: 112
Origin: NIST Mass Spectrometry Data Center, 1990.
m/z	RELATIVE INTENSITY
14	198
15	1200
16	148
26	623
27	4339
28	1312
29	1345
31	204
37	217
38	835
39	7088
40	1209
41	7921
42	1525
43	9999
44	307
45	1070
50	799
51	1508
52	734
53	2311
54	3657
55	2648
56	474
57	265
58	226
62	161
63	244
64	112
65	944
66	481
67	1588
68	638
69	2583
70	137
71	380
72	129
77	1700
78	439
79	2951
80	784
81	2107
82	517
83	2619
84	9654
85	695
94	155
95	203
97	7667
98	473
108	179
109	172
111	5568
112	6377
113	549
