Mass Spectrum: N-Acetylpyrrolidone
Formula: C6 H9 N O2
CAS: 932-17-2
Molecular weight: 127
Origin: NIST Mass Spectrometry Data Center, 1990.
m/z	RELATIVE INTENSITY
13	38
14	211
15	728
25	46
26	359
27	757
28	1514
29	313
30	637
31	43
32	1
37	49
38	117
39	516
40	268
41	1335
42	1590
43	9999
44	571
45	51
51	38
52	111
53	32
54	147
55	274
56	1094
57	579
58	226
59	56
68	87
69	409
70	92
71	179
72	122
84	1137
85	1020
86	1261
87	66
98	534
99	2398
100	145
112	112
127	2360
128	157
