Mass Spectrum: Benzene, 1-chloro-4-nitroso-
Formula: C6 H4 Cl N O
CAS: 932-98-9
Molecular weight: 141
Origin: J. F. SMITH, LA TROBE UNIVERSITY, AUSTRALIA
m/z	RELATIVE INTENSITY
25	50
26	250
27	300
28	100
29	50
30	850
31	100
35	150
36	400
37	900
38	750
39	400
40	50
41	100
42	50
47	100
48	100
49	450
50	3200
51	1400
52	150
60	150
61	600
62	450
63	600
64	300
65	100
72	150
73	600
74	1800
75	7500
76	1300
77	150
84	200
85	800
86	150
87	350
88	100
89	50
90	150
91	50
92	50
110	100
111	9999
112	750
113	3300
114	250
125	50
126	50
127	250
128	50
129	50
141	5900
142	450
143	2000
144	150
