Mass Spectrum: 3H-1,2,4-Triazol-3-one, 1,2-dihydro-5-nitro-
Formula: C2 H2 N4 O3
CAS: 932-64-9
Molecular weight: 130
Origin: Japan AIST/NIMC Database- Spectrum MS-IW-3302
m/z	RELATIVE INTENSITY
12	80
13	209
14	40
15	30
16	80
17	199
18	869
26	169
27	1819
28	1819
29	3579
30	3879
31	50
32	30
38	30
39	20
40	129
41	1129
42	1159
43	1209
44	1009
45	50
46	1859
47	10
48	90
52	10
53	10
54	1289
55	339
56	249
57	249
58	10
67	10
68	159
69	309
70	70
71	109
73	20
74	10
81	20
82	10
83	9999
84	6719
85	3159
86	109
87	20
91	20
95	20
97	20
100	60
105	10
109	10
111	10
114	90
123	10
130	7499
131	289
132	50
