Mass Spectrum: 3-Acetyl-1-methylpyrrole
Formula: C7 H9 N O
CAS: 932-62-7
Molecular weight: 123
Origin: Chuck Anderson, Aldrich Chemical Co.
m/z	RELATIVE INTENSITY
14	86
15	797
18	6
26	103
27	360
28	228
29	44
30	34
37	301
38	887
39	3985
40	307
41	450
42	1911
43	1114
44	49
49	113
50	606
51	787
52	697
53	2137
54	292
55	57
61	28
62	58
63	95
64	113
65	126
66	91
67	221
78	121
79	138
80	1114
81	169
92	45
93	244
94	190
106	41
107	169
108	9999
109	715
110	50
123	5361
124	441
125	13
