Mass Spectrum: 2,5-Dimethylcyclohexanone
Formula: C8 H14 O
CAS: 932-51-4
Molecular weight: 126
Origin: Japan AIST/NIMC Database- Spectrum MS-NW-3422
m/z	RELATIVE INTENSITY
14	90
15	469
17	20
18	60
25	20
26	379
27	3259
28	1289
29	1729
30	40
31	60
32	10
37	129
38	349
39	3929
40	779
41	7029
42	2659
43	1099
44	60
45	40
49	40
50	279
51	449
52	169
53	879
54	439
55	4089
56	5879
57	729
58	199
59	20
61	30
62	60
63	119
64	30
65	179
66	80
67	1209
68	469
69	9999
70	759
71	899
72	109
73	10
74	30
75	10
77	209
78	50
79	189
80	50
81	289
82	5449
83	849
84	869
85	70
86	40
91	129
92	30
93	429
94	40
95	249
96	30
97	489
98	1689
99	119
105	20
106	10
107	20
108	249
109	40
110	139
111	839
112	80
113	20
124	10
125	40
126	3889
127	349
128	40
