Mass Spectrum: 1-Methylcyclooctene
Formula: C9 H16
CAS: 933-11-9
Molecular weight: 124
Origin: NIST Mass Spectrometry Data Center, 1990.
m/z	RELATIVE INTENSITY
15	131
26	237
27	1814
28	781
29	1076
39	4409
40	970
41	5118
42	788
43	288
50	425
51	994
52	544
53	3007
54	2286
55	3988
56	1785
57	531
62	123
63	285
65	1079
67	9705
68	4593
69	2292
70	652
77	1316
78	354
79	2548
81	9999
82	3549
83	409
91	537
93	359
95	2555
96	7068
97	534
109	1139
124	2848
125	245
