Mass Spectrum: Cyclohexane, 1,1-dimethoxy-
Formula: C8 H16 O2
CAS: 933-40-4
Molecular weight: 144
Origin: James Little,Eastman Chem.Co.,Kingsport,TN
m/z	RELATIVE INTENSITY
39	2422
41	2973
42	771
43	3613
45	1461
53	1031
54	1181
55	2642
58	731
59	360
65	320
67	871
69	1171
71	791
77	711
79	1772
81	4014
83	1011
84	3703
88	1031
97	2943
98	300
101	9999
102	801
111	3053
112	3363
113	5465
114	410
115	390
144	981
145	90
146	10
147	10
