Mass Spectrum: Benzoyl chloride, 2-methyl-
Formula: C8 H7 Cl O
CAS: 933-88-0
Molecular weight: 154
Origin: Japan AIST/NIMC Database- Spectrum MS-NW-2936
m/z	RELATIVE INTENSITY
15	10
26	40
27	80
28	109
29	10
35	20
36	109
37	99
38	179
39	819
40	60
41	169
43	90
44	60
45	89
46	30
49	60
50	289
51	339
52	99
53	30
59	209
60	20
61	119
62	269
63	699
64	199
65	1469
66	80
73	40
74	90
75	80
76	50
77	30
84	10
85	30
86	50
87	50
88	10
89	569
90	409
91	5069
92	399
93	10
99	30
105	30
118	109
119	9999
120	889
121	50
125	40
126	10
127	10
136	20
153	10
154	449
155	30
156	139
157	10
