Mass Spectrum: Phenol, 2,3,5-trichloro-
Formula: C6 H3 Cl3 O
CAS: 933-78-8
Molecular weight: 196
Origin: Japan AIST/NIMC Database- Spectrum MS-NW-6788
m/z	RELATIVE INTENSITY
12	10
14	10
16	10
24	20
25	30
26	30
27	20
28	179
29	119
31	70
35	119
36	139
37	419
38	119
39	60
40	10
41	10
42	20
43	30
44	189
45	70
47	139
48	759
49	399
50	139
51	30
52	10
53	229
54	20
55	10
59	30
60	269
61	839
62	1139
63	609
64	50
65	50
66	399
67	259
68	40
71	90
72	289
73	679
74	229
75	189
76	20
77	20
78	10
80	309
81	209
82	40
83	229
84	159
85	159
86	50
87	339
88	20
89	119
90	129
91	70
94	20
95	70
96	339
97	2949
98	609
99	1259
100	189
101	30
102	10
106	30
107	339
108	109
109	269
110	40
111	60
113	10
117	10
118	30
119	20
120	20
121	10
123	20
124	30
125	359
126	99
127	139
128	40
129	10
130	20
131	109
132	1169
133	1099
134	789
135	679
136	179
137	119
138	20
141	10
143	10
144	20
145	20
146	10
152	10
153	10
160	3099
161	279
162	2109
163	179
164	429
165	30
166	30
167	269
168	50
169	249
170	40
171	90
172	10
194	10
195	20
196	9999
197	739
198	9519
199	689
200	3119
201	229
202	359
203	30
