Mass Spectrum: Ethanethioic acid, S-phenyl ester
Formula: C8 H8 O S
CAS: 934-87-2
Molecular weight: 152
Origin: Japan AIST/NIMC Database- Spectrum MS-IW-1895
m/z	RELATIVE INTENSITY
14	30
15	239
26	20
27	40
28	119
32	40
34	10
37	50
38	119
39	699
40	30
41	10
42	90
43	7239
44	189
45	329
46	10
47	20
49	20
50	279
51	509
52	40
53	10
54	30
57	99
58	119
59	80
60	20
61	40
62	80
63	179
64	30
65	1059
66	1049
67	50
69	539
70	40
71	60
73	30
74	99
75	60
76	40
77	369
78	80
79	10
81	80
82	149
83	70
84	389
85	20
86	20
91	20
93	20
95	10
105	10
106	10
107	10
108	199
109	1509
110	9999
111	809
112	469
113	20
121	10
123	10
152	1289
153	119
154	60
