Mass Spectrum: Benzene, 1-ethyl-3,5-dimethyl-
Formula: C10 H14
CAS: 934-74-7
Molecular weight: 134
m/z	RELATIVE INTENSITY
15	30
26	10
27	220
28	20
29	40
37	10
38	40
39	430
40	50
41	360
42	10
43	10
44	10
45	10
50	110
51	350
52	110
53	190
54	10
55	40
57	40
58	90
59	40
60	10
61	10
62	60
63	210
64	180
65	490
66	220
67	30
73	10
74	50
75	50
76	40
77	631
78	210
79	260
80	20
86	10
87	20
88	10
89	80
90	20
91	871
92	90
93	110
95	10
98	10
101	10
102	80
103	340
104	210
105	841
106	70
107	40
115	460
116	150
117	571
118	160
119	9999
120	1031
121	50
127	20
128	50
129	30
130	10
131	70
132	30
133	350
134	3473
135	380
136	20
