Mass Spectrum: 1,2-Benzenediol, 3-methoxy-
Formula: C7 H8 O3
CAS: 934-00-9
Molecular weight: 140
Origin: NIST Mass Spectrometry Data Center, 1990.
m/z	RELATIVE INTENSITY
14	142
15	596
17	31
18	47
19	32
25	72
26	294
27	415
28	95
29	540
30	67
31	94
34	57
36	54
37	323
38	702
39	1873
40	429
41	544
42	397
43	195
48	63
49	212
50	873
51	3174
52	786
53	1231
54	230
55	789
56	64
58	32
61	111
62	235
63	389
64	162
65	564
66	337
67	184
68	901
69	214
70	90
71	50
77	163
79	1866
80	361
81	381
82	130
83	34
91	88
92	107
93	469
94	102
95	230
96	789
97	6995
98	410
99	41
107	1079
108	177
109	86
110	631
111	421
112	38
122	51
125	8983
126	596
127	133
137	57
140	9999
141	753
142	108
