Mass Spectrum: Venlafaxine
Formula: C17 H27 N O2
CAS: 93413-44-6
Molecular weight: 277
Origin: AAFS Toxicology Section MS DB Committee, U. Alberta, Canada
m/z	RELATIVE INTENSITY
36	10
37	10
38	10
39	120
40	20
41	290
42	410
43	220
44	150
45	90
46	10
50	10
51	60
52	20
53	90
55	390
56	70
58	9999
59	380
60	10
62	10
63	50
64	20
65	230
66	30
67	40
68	10
69	50
70	40
71	10
72	10
73	10
74	30
75	10
76	10
77	320
78	140
79	190
81	340
82	30
83	20
84	10
89	100
91	740
92	100
93	30
94	70
95	10
99	90
100	10
101	10
102	60
103	140
104	60
105	100
106	30
107	50
108	30
109	60
110	10
115	100
116	30
117	60
119	710
120	190
121	530
122	50
123	10
127	20
128	50
129	30
130	30
131	80
132	90
134	3873
135	470
136	40
137	100
138	10
144	50
145	50
146	80
147	130
148	220
149	30
150	10
159	40
160	30
161	10
162	210
163	180
164	20
165	10
174	10
175	20
176	20
177	20
178	260
179	610
180	80
181	10
201	10
202	60
203	10
274	10
276	10
277	10
278	10
