Mass Spectrum: cis-1,2,3,6-Tetrahydrophthalic anhydride
Formula: C8 H8 O3
CAS: 935-79-5
Molecular weight: 152
Origin: Japan AIST/NIMC Database- Spectrum MS-NW-1563
m/z	RELATIVE INTENSITY
14	10
15	50
17	10
18	30
25	30
26	429
27	1449
28	229
29	60
31	10
36	10
37	179
38	429
39	2039
40	379
41	289
42	20
43	10
44	50
45	30
49	99
50	689
51	1099
52	729
53	489
54	259
55	60
61	40
62	70
63	199
64	40
65	409
66	90
67	40
68	20
69	10
73	20
74	90
75	50
76	30
77	1429
78	879
79	9999
80	4999
81	329
82	30
95	40
96	80
97	40
105	30
106	50
107	60
110	10
123	439
124	3639
125	279
126	20
