Mass Spectrum: 1,4-Diethynylbenzene
Formula: C10 H6
CAS: 935-14-8
Molecular weight: 126
Origin: Japan AIST/NIMC Database- Spectrum MS-IW-6580
m/z	RELATIVE INTENSITY
26	10
27	10
28	10
29	10
37	70
38	50
39	99
41	20
42	10
43	20
49	80
50	819
51	209
52	119
56	20
57	40
60	30
61	229
62	339
63	889
64	30
73	90
74	1079
75	549
76	1209
77	80
84	20
85	60
86	209
87	409
88	30
97	70
98	489
99	289
100	519
101	40
110	20
111	40
123	20
124	10
125	299
126	9999
127	1109
128	60
