Mass Spectrum: Phenol, 2,3,5,6-tetrachloro-
Formula: C6 H2 Cl4 O
CAS: 935-95-5
Molecular weight: 230
Origin: Japan AIST/NIMC Database- Spectrum MS-NW-8744
m/z	RELATIVE INTENSITY
25	10
27	10
28	30
29	50
35	70
36	299
37	249
38	90
39	20
41	50
42	50
43	80
44	30
47	119
48	329
49	209
50	30
51	10
52	10
53	70
54	10
55	30
56	40
57	30
59	20
60	309
61	809
62	379
63	70
65	899
66	619
67	119
69	10
70	20
71	139
72	239
73	259
74	80
75	40
76	10
77	40
78	10
79	10
80	50
81	30
82	20
83	879
84	749
85	329
86	50
87	389
88	10
89	149
90	60
91	10
94	30
95	289
96	919
97	759
98	569
99	229
100	40
101	30
102	10
106	80
107	539
108	179
109	339
110	60
111	60
115	319
116	399
117	219
118	90
119	50
120	30
121	20
123	30
124	139
125	50
126	40
127	10
130	109
131	2589
132	249
133	1679
134	119
135	279
136	20
141	90
142	30
143	109
144	20
145	40
147	10
159	80
160	50
161	50
162	30
163	10
164	10
165	50
166	1939
167	539
168	1879
169	499
170	619
171	159
172	70
173	20
178	10
180	10
194	1929
195	149
196	1889
197	129
198	619
199	40
200	70
201	159
202	10
203	199
204	20
205	99
207	20
229	10
230	7789
231	539
232	9999
233	659
234	4789
235	319
236	1049
237	60
238	80
