Mass Spectrum: 1-Phenyl-1-cyclopropanecarbonitrile
Formula: C10 H9 N
CAS: 935-44-4
Molecular weight: 143
Origin: Japan AIST/NIMC Database- Spectrum MS-IW- 926
m/z	RELATIVE INTENSITY
26	40
27	159
28	60
37	60
38	139
39	549
40	60
41	129
43	10
49	20
50	319
51	719
52	159
53	30
55	10
56	10
57	199
58	90
61	99
62	309
63	539
64	219
65	289
66	30
69	10
70	239
71	60
73	20
74	119
75	179
76	209
77	609
78	279
79	20
85	20
86	50
87	149
88	419
89	849
90	569
91	709
92	80
98	10
99	20
100	40
101	99
102	299
103	779
104	119
105	10
111	10
112	10
113	179
114	509
115	6369
116	6959
117	1529
118	109
126	40
127	50
128	249
129	30
139	10
140	579
141	209
142	4229
143	9999
144	1129
145	60
