Mass Spectrum: 1,1-Cyclohexane diacetic acid
Formula: C10 H16 O4
CAS: 9355-11-7
Molecular weight: 200
Origin: NIST Mass Spectrometry Data Center, 1992
m/z	RELATIVE INTENSITY
13	21
14	110
15	172
16	44
17	150
18	602
19	33
26	224
27	1876
28	757
29	1210
30	35
31	151
32	88
36	15
37	54
39	3119
40	832
41	3003
42	944
43	714
44	92
45	497
46	57
47	39
50	176
51	439
52	296
53	1402
54	1886
55	2312
56	237
57	123
58	37
59	37
60	554
61	175
62	62
63	90
64	37
65	462
66	554
67	3914
68	1978
69	271
70	121
71	102
72	33
73	108
74	35
75	49
76	33
77	528
78	245
79	1415
80	2066
81	9999
82	969
83	185
84	87
85	20
86	20
91	287
92	141
93	377
94	1510
95	2689
96	3203
97	522
98	135
99	293
100	41
103	17
105	124
106	22
107	79
108	58
109	345
110	1473
111	209
112	66
113	18
115	39
116	18
117	14
120	713
121	156
122	860
123	2489
124	231
125	38
126	52
127	16
133	46
134	17
135	46
136	84
137	119
138	182
139	141
140	751
141	1571
142	144
149	9
151	49
152	19
153	114
154	237
155	37
156	19
157	17
163	2
164	30
182	64
183	68
199	51
200	34
