Mass Spectrum: 1-Propanone, 3-chloro-1-phenyl-
Formula: C9 H9 Cl O
CAS: 936-59-4
Molecular weight: 168
Origin: Japan AIST/NIMC Database- Spectrum MS-NW-7294
m/z	RELATIVE INTENSITY
26	30
27	259
28	10
36	30
37	20
38	50
39	90
49	40
50	399
51	1139
52	90
53	20
55	159
57	10
61	30
62	40
63	149
64	10
65	50
66	90
73	30
74	149
75	109
76	179
77	3889
78	319
79	20
86	10
89	20
91	30
102	20
103	40
104	50
105	9999
106	769
107	40
115	20
131	60
132	189
133	479
134	50
167	10
168	249
169	30
170	90
171	10
