Mass Spectrum: Isothiazole, 4-phenyl-
Formula: C9 H7 N S
CAS: 936-46-9
Molecular weight: 161
Origin: DK268-13-3A
m/z	RELATIVE INTENSITY
45	550
50	400
51	470
62	400
63	700
67	800
69	650
75	300
76	300
89	760
90	860
102	500
133	370
134	2500
160	1500
161	9999
162	1400
163	700
