Mass Spectrum: N-(1-Cyclopenten-1-yl)-morpholine
Formula: C9 H15 N O
CAS: 936-52-7
Molecular weight: 153
Origin: Chuck Anderson, Aldrich Chemical Co.
m/z	RELATIVE INTENSITY
15	127
18	3
26	157
27	946
28	1111
29	542
30	310
31	112
37	13
38	98
39	1230
40	348
41	2020
42	751
43	336
44	241
45	219
50	46
51	135
52	178
53	422
54	915
55	801
56	307
57	173
58	77
59	23
61	5
62	20
63	71
64	34
65	719
66	295
67	4469
68	473
69	222
70	51
71	50
72	72
76	24
77	176
78	93
79	429
80	549
81	422
82	276
83	63
84	40
85	14
86	214
91	101
92	112
93	404
94	1717
95	1767
96	725
97	102
98	6
99	13
106	88
107	48
108	1363
109	266
110	153
112	71
120	61
122	909
123	178
124	517
125	57
136	28
138	1010
139	83
150	50
151	43
152	9999
153	5176
154	492
155	29
