Mass Spectrum: 1,5-Anhydro-2-O-acetyl-3,4,6-tri-O-methyl-d-mannitol
Formula: C11 H20 O6
CAS: 93635-82-6
Molecular weight: 248
Origin: A. VAN LANGENHOVE, HARVARD SCH. PUBLIC HEALTH, BOSTON, USA
m/z	RELATIVE INTENSITY
61	523
67	305
68	289
69	1077
70	317
71	9999
72	2428
73	1402
74	1351
75	1062
76	156
77	194
79	131
81	634
82	240
83	945
84	1288
85	2000
86	794
87	4553
88	1931
89	917
91	156
95	244
96	101
97	1036
98	168
99	632
100	295
101	7126
102	4072
103	321
109	172
111	4052
112	586
113	606
114	351
115	770
116	141
117	592
124	164
125	277
129	1893
131	426
142	362
143	840
147	1519
156	240
171	883
203	151
206	115
