Mass Spectrum: 1,5-Anhydro-6-O-acetyl-2,3,4-tri-O-methyl-D-mannitol
Formula: C11 H20 O6
CAS: 93635-96-2
Molecular weight: 248
Origin: A. VAN LANGENHOVE, HARVARD SCH. PUBLIC HEALTH, BOSTON, USA
m/z	RELATIVE INTENSITY
68	118
69	982
70	978
71	3677
72	390
73	1834
74	398
75	7599
76	254
81	148
83	376
84	347
85	760
86	148
87	9999
88	4880
89	601
95	227
96	107
97	313
98	199
99	1178
100	151
101	7564
102	571
103	220
111	513
113	195
114	739
115	613
117	512
124	126
125	352
126	288
127	301
129	2075
130	3290
131	833
141	139
143	767
156	1414
157	214
175	289
186	152
188	339
216	192
