Mass Spectrum: 3-Acetoxybenzofuran
Formula: C10 H8 O3
CAS: 93680-80-9
Molecular weight: 176
Origin: NIST Mass Spectrometry Data Center
m/z	RELATIVE INTENSITY
12	20
13	80
14	300
15	1181
16	10
18	30
25	10
26	80
27	180
28	200
29	540
30	10
36	10
37	130
38	210
39	260
40	30
41	110
43	5165
44	130
45	20
49	130
50	1581
51	1571
52	190
53	80
55	10
61	90
62	210
63	260
64	30
65	20
66	10
73	100
74	540
75	460
76	1251
77	2682
78	420
79	30
85	20
86	50
87	30
89	110
90	10
91	20
105	5075
106	480
107	30
117	40
134	9999
135	841
136	70
147	10
176	1892
177	220
178	20
