Mass Spectrum: Cyclohexanol, 4-(1,1-dimethylethyl)-, cis-
Formula: C10 H20 O
CAS: 937-05-3
Molecular weight: 156
Origin: G.W.A. MILNE
m/z	RELATIVE INTENSITY
26	100
27	800
28	700
29	1100
31	100
39	1000
40	200
41	3000
42	200
43	1100
44	300
45	100
50	100
51	200
52	100
53	500
54	1000
55	1800
56	3600
57	9999
58	500
65	100
66	100
67	4500
68	400
69	600
70	200
71	100
77	200
78	100
79	500
80	3500
81	3700
82	5200
83	3000
84	200
95	300
96	100
97	100
98	1100
99	4800
100	300
101	900
102	100
123	2000
124	100
138	200
141	300
156	700
