Mass Spectrum: Benzene, 1-ethynyl-4-nitro-
Formula: C8 H5 N O2
CAS: 937-31-5
Molecular weight: 147
Origin: A.Pleshkova, Nesmeyanov Inst.Org.Elem.Cpds, Moscow
m/z	RELATIVE INTENSITY
42	260
43	4404
44	370
50	891
51	2032
52	110
58	2152
59	110
60	110
61	340
62	540
63	931
64	150
73	480
74	1812
75	4764
76	270
89	2702
90	460
98	540
99	120
100	100
101	7196
102	631
116	260
117	4494
118	450
121	140
131	430
132	130
147	9999
148	921
149	290
150	70
