Mass Spectrum: 2,5-Dihydroxypropiophenone
Formula: C9 H10 O3
CAS: 938-46-5
Molecular weight: 166
Origin: NIST Mass Spectrometry Data Center, 1994
m/z	RELATIVE INTENSITY
4	2
14	16
15	64
19	21
26	244
27	945
28	246
29	715
30	20
31	36
32	19
37	32
38	114
39	397
40	42
41	92
42	84
43	146
45	22
46	24
49	30
50	227
51	439
52	602
53	1432
54	294
55	517
56	41
57	171
59	13
60	16
61	63
62	127
63	330
64	74
65	247
66	84
67	65
68	13
69	633
70	30
74	54
75	28
76	15
77	111
78	37
79	157
80	222
81	1766
82	181
83	21
89	26
90	24
91	257
92	64
93	34
94	38
95	32
105	19
107	44
108	275
109	1607
110	161
111	22
119	92
120	25
121	22
123	21
131	18
137	9999
138	739
139	97
147	414
148	72
149	64
163	21
166	3699
167	351
168	42
