Mass Spectrum: Quinoline, 8-methoxy-
Formula: C10 H9 N O
CAS: 938-33-0
Molecular weight: 159
m/z	RELATIVE INTENSITY
40	202
41	202
44	202
49	202
50	2056
51	2419
52	1008
53	242
61	726
62	2218
63	4153
64	1210
65	726
66	323
73	202
74	1290
75	1613
76	1532
77	1129
78	605
79	202
81	81
86	282
87	524
88	887
89	3427
90	806
98	121
99	121
100	121
101	887
102	3467
103	1613
104	202
114	242
115	403
116	1613
117	323
127	202
128	2742
129	9999
130	8386
131	887
145	121
156	927
157	323
158	8064
159	8789
160	806
