Mass Spectrum: m-Nitro carbanilic acid, n-heptyl ester
Formula: C14 H20 N2 O4
CAS: 93896-50-5
Molecular weight: 280
Origin: A.A.Kutin, Moscow, Russia
m/z	RELATIVE INTENSITY
33	39
34	46
36	26
37	33
38	601
39	2740
40	658
41	7203
43	8135
44	2291
45	216
46	124
48	26
50	658
51	567
52	563
53	526
55	3275
57	9999
58	337
59	74
61	99
62	385
63	1102
64	1046
65	1091
66	197
67	252
68	262
69	718
70	703
71	292
72	65
73	116
74	164
75	308
76	651
77	283
78	233
79	335
80	496
81	193
82	99
83	213
84	88
85	56
86	16
87	48
88	46
90	1174
91	2243
92	1014
93	260
94	67
95	69
96	83
97	348
98	201
99	45
100	19
101	15
103	6
104	49
105	124
106	225
107	124
108	420
109	75
110	53
111	44
112	77
113	43
114	5
115	45
118	301
119	143
120	54
122	126
123	20
124	16
125	33
127	29
128	33
129	10
130	15
131	20
132	56
134	120
135	170
136	111
137	290
138	2234
139	165
140	17
141	6
143	285
144	22
146	39
148	69
149	63
150	34
151	138
152	83
153	30
160	30
161	27
162	10
164	411
165	424
166	363
167	48
168	63
170	5
171	84
172	9
173	24
179	110
180	41
181	57
182	1625
183	706
184	83
185	13
187	5
193	80
194	16
207	79
208	4
219	8
224	11
250	41
280	379
281	50
