Mass Spectrum: Benzoic acid 2-bromoethyl ester
Formula: C9 H9 Br O2
CAS: 939-54-8
Molecular weight: 228
Origin: Chuck Anderson, Aldrich Chemical Co.
m/z	RELATIVE INTENSITY
14	18
15	72
18	4
26	110
27	887
28	132
29	72
30	8
36	21
37	7
38	66
39	129
42	6
43	33
44	28
49	21
50	439
51	1539
52	75
53	19
65	42
73	33
74	177
75	93
76	252
77	4419
78	257
79	63
91	16
93	71
94	29
95	50
103	19
104	16
105	9999
106	683
107	117
109	217
122	7752
123	412
124	24
135	24
149	1231
150	92
228	38
230	37
