Mass Spectrum: Cyclopropanecarbonyl chloride, 2-phenyl-, trans-
Formula: C10 H9 Cl O
CAS: 939-87-7
Molecular weight: 180
Origin: NIST Mass Spectrometry Data Center, 2010
m/z	RELATIVE INTENSITY
14	10
15	10
25	10
26	80
27	250
28	50
29	10
35	30
36	50
37	80
38	240
39	1151
40	100
41	120
42	20
43	20
44	10
45	10
47	10
48	10
49	60
50	701
51	1251
52	300
53	70
55	8468
56	270
57	1531
60	20
61	150
62	520
63	1451
64	280
65	1061
66	70
67	10
68	50
73	200
74	380
75	340
76	340
77	811
78	641
79	50
84	10
85	70
86	160
87	230
88	120
89	1401
90	310
91	3523
92	260
93	10
97	10
98	40
99	40
100	10
101	60
102	540
103	641
104	711
105	70
106	10
109	10
110	10
111	10
112	10
113	100
114	140
115	8658
116	3243
117	9999
118	1001
119	50
125	1772
126	150
127	2752
128	320
129	20
131	10
138	240
139	20
140	80
141	10
143	10
144	330
145	3033
146	330
147	20
149	10
151	10
152	20
154	10
165	10
180	100
181	10
182	30
