Mass Spectrum: Naphthalene, 2-(bromomethyl)-
Formula: C11 H9 Br
CAS: 939-26-4
Molecular weight: 220
Origin: Chuck Anderson, Aldrich Chemical Co.
m/z	RELATIVE INTENSITY
36	35
38	70
39	214
50	127
51	132
58	515
62	136
63	320
64	33
65	81
69	425
70	773
74	135
75	95
76	53
86	111
87	156
88	99
89	272
91	72
98	45
102	43
110	102
111	117
113	185
114	132
115	1907
116	161
137	36
138	48
139	1520
140	302
141	9999
142	1262
143	71
220	521
221	48
222	528
223	45
