Mass Spectrum: Benzoic acid, 1-methylethyl ester
Formula: C10 H12 O2
CAS: 939-48-0
Molecular weight: 164
Origin: Japan AIST/NIMC Database- Spectrum MS-NW- 772
m/z	RELATIVE INTENSITY
15	90
18	10
26	30
27	539
28	229
29	30
31	40
32	10
37	40
38	90
39	409
40	70
41	799
42	299
43	1459
44	50
45	10
49	20
50	439
51	1429
52	99
53	10
56	10
57	20
58	10
59	2329
60	80
62	10
63	20
65	60
66	10
73	10
74	109
75	99
76	209
77	3409
78	429
79	299
80	20
91	20
94	50
103	10
104	50
105	9999
106	1139
107	90
119	80
121	30
122	2039
123	3159
124	249
125	20
131	30
146	139
147	20
149	219
150	20
163	50
164	1459
165	159
166	10
