Mass Spectrum: .gamma.-Chlorobutyrophenone
Formula: C10 H11 Cl O
CAS: 939-52-6
Molecular weight: 182
Origin: Q. Pu, LBC, NIDDK, NIH, Bethesda, MD 20892
m/z	RELATIVE INTENSITY
41	567
42	165
43	219
44	280
45	42
47	19
48	22
49	279
50	642
51	1960
52	154
53	60
54	21
55	246
56	59
57	161
58	29
59	9
60	21
61	35
62	111
63	146
64	67
65	135
66	25
67	40
68	34
69	108
70	45
71	74
72	29
73	57
74	185
75	176
76	304
77	5436
78	661
79	82
80	7
81	41
82	41
83	84
84	64
85	58
86	38
87	23
88	7
89	61
90	19
91	258
92	47
93	19
94	6
95	36
96	26
97	75
98	26
99	24
101	10
102	34
103	76
104	121
105	9999
106	820
107	75
108	13
109	23
110	16
111	48
112	17
113	16
115	109
116	24
117	39
118	12
119	58
120	3478
121	321
122	52
123	62
124	22
125	26
126	15
127	34
128	25
129	26
131	26
132	2
133	75
134	22
135	6
136	2
137	6
138	2
139	17
141	18
145	24
146	68
147	220
148	28
149	24
150	15
151	12
152	9
153	7
154	6
155	2
159	2
162	2
163	9
164	39
165	15
166	2
167	27
168	4
169	11
181	18
182	497
183	65
184	158
185	23
