Mass Spectrum: Vinyl 2-ethylhexanoate
Formula: C10 H18 O2
CAS: 94-04-2
Molecular weight: 170
Origin: Japan AIST/NIMC Database- Spectrum MS-NW-7481
m/z	RELATIVE INTENSITY
14	10
15	109
26	40
27	749
28	119
29	879
30	20
31	30
32	10
33	10
38	10
39	369
40	70
41	1589
42	259
43	2339
44	109
45	50
50	10
51	30
52	10
53	99
54	50
55	859
56	359
57	9999
58	449
59	20
65	10
67	60
68	30
69	289
70	389
71	139
72	10
73	40
77	10
79	10
81	30
82	10
83	99
84	10
85	50
86	30
87	10
95	10
97	60
98	70
99	1249
100	99
109	20
111	10
113	10
114	70
115	10
125	20
127	1169
128	119
129	10
141	10
