Mass Spectrum: Ethyl benzoylacetate
Formula: C11 H12 O3
CAS: 94-02-0
Molecular weight: 192
Origin: Japan AIST/NIMC Database- Spectrum MS-IW-5623
m/z	RELATIVE INTENSITY
15	20
26	10
27	129
28	80
29	209
30	10
31	139
38	10
39	80
41	20
42	40
43	109
44	30
45	99
46	30
50	159
51	569
52	40
53	10
59	10
62	20
63	50
64	10
65	99
69	289
70	10
74	50
75	50
76	109
77	2339
78	249
79	30
85	10
87	50
89	50
90	20
91	159
92	10
102	20
103	20
104	30
105	9999
106	799
107	50
115	10
118	10
120	189
121	40
122	20
139	30
141	10
146	389
147	389
148	40
161	10
162	10
163	10
164	20
192	699
193	90
194	10
