Mass Spectrum: 1,3-Phenylenedibenzoate
Formula: C20 H14 O4
CAS: 94-01-9
Molecular weight: 318
Origin: NIST Mass Spectrometry Data Center
m/z	RELATIVE INTENSITY
27	10
38	10
39	30
50	230
51	991
52	90
53	10
62	10
63	50
64	40
74	60
75	60
76	190
77	4554
78	330
79	10
92	10
105	9999
106	1161
107	60
128	10
318	621
319	130
320	10
