Mass Spectrum: Ethyl 4-methylbenzoate
Formula: C10 H12 O2
CAS: 94-08-6
Molecular weight: 164
Origin: Japan AIST/NIMC Database- Spectrum MS-NW-3776
m/z	RELATIVE INTENSITY
14	10
15	50
18	10
26	50
27	309
28	30
29	319
30	10
37	20
38	70
39	509
40	50
41	159
42	10
43	40
44	10
45	80
50	139
51	239
52	60
53	40
55	10
59	20
61	30
62	119
63	379
64	109
65	1239
66	70
69	10
74	30
75	40
76	30
77	109
78	20
79	20
81	10
85	10
86	20
87	20
88	10
89	359
90	259
91	3389
92	389
93	30
105	109
106	10
107	70
108	10
117	10
118	60
119	9999
120	1109
121	90
133	30
135	50
136	2489
137	239
138	20
145	10
146	40
147	10
149	279
150	30
162	10
163	99
164	2149
165	239
166	20
