Mass Spectrum: Benzyl 4-hydroxybenzoate
Formula: C14 H12 O3
CAS: 94-18-8
Molecular weight: 228
Origin: NIST Mass Spectrometry Data Center, 1992
m/z	RELATIVE INTENSITY
12	6
14	11
15	15
17	14
18	75
26	53
27	151
28	72
29	78
30	3
31	8
36	6
37	72
38	331
39	1831
40	90
41	141
42	24
43	19
44	7
45	10
46	13
50	311
51	604
52	159
53	212
54	24
55	55
56	3
61	61
62	211
63	704
64	389
65	2766
66	228
67	23
68	4
69	5
73	10
74	74
75	67
76	73
77	522
78	127
79	383
80	34
81	7
82	3
85	3
86	12
87	12
89	447
90	598
91	5302
92	619
93	897
94	143
95	17
105	80
106	46
107	332
108	33
109	3
110	4
114	17
115	18
116	4
121	9999
122	851
123	77
124	4
127	9
128	10
129	13
138	18
139	7
141	19
142	3
149	4
150	19
151	10
152	24
153	30
154	16
155	30
156	4
165	98
166	18
167	16
168	9
169	16
170	3
181	34
183	387
184	69
185	5
193	4
195	6
209	13
210	57
211	20
212	3
228	1975
229	302
230	24
