Mass Spectrum: 1-Propanol, 3-(diethylamino)-2,2-dimethyl-, p-aminobenzoate (ester)
Formula: C16 H26 N2 O2
CAS: 94-15-5
Molecular weight: 278
Origin: Finnigan MAT: Toxicological Library (LIBR-TX)
m/z	RELATIVE INTENSITY
41	82
42	80
56	212
58	295
65	98
84	204
86	9999
87	411
92	207
120	705
