Mass Spectrum: Butylparaben
Formula: C11 H14 O3
CAS: 94-26-8
Molecular weight: 194
Origin: NIST Mass Spectrometry Data Center, 1998.
m/z	RELATIVE INTENSITY
26	20
27	210
28	20
29	290
30	10
31	10
37	20
38	100
39	770
40	50
41	380
42	40
43	70
44	10
45	10
50	70
51	60
52	10
53	190
54	20
55	150
56	220
57	60
61	20
62	100
63	340
64	240
65	1600
66	160
67	20
73	10
74	40
75	40
76	20
77	70
81	70
82	10
91	20
92	300
93	1530
94	160
95	160
96	10
107	30
109	70
110	30
119	20
120	170
121	9999
122	1000
123	100
136	10
138	8409
139	1530
140	140
141	10
151	120
152	10
165	10
177	70
194	680
195	90
196	10
