Mass Spectrum: Chloropropamide
Formula: C10 H13 Cl N2 O3 S
CAS: 94-20-2
Molecular weight: 276
Origin: Japan AIST/NIMC Database- Spectrum MS-IW-2146
m/z	RELATIVE INTENSITY
14	10
15	60
16	10
25	10
26	99
27	509
28	789
29	499
30	7579
31	159
32	10
36	40
37	99
38	189
39	319
40	70
41	659
42	389
43	919
44	239
45	80
46	40
47	20
48	90
49	90
50	1329
51	589
52	80
53	30
54	70
55	40
56	759
57	199
58	829
59	769
60	40
61	169
62	109
63	269
64	159
65	70
66	10
69	90
70	30
71	20
72	40
73	369
74	859
75	3689
76	789
77	139
78	20
79	20
80	10
81	30
82	30
83	20
84	249
85	2929
86	199
87	159
88	20
89	40
90	159
91	40
92	40
93	20
95	30
96	20
97	10
98	20
99	359
100	40
101	389
102	30
105	10
106	30
107	20
108	90
109	50
110	109
111	9999
112	819
113	3269
114	259
115	20
123	30
124	20
125	50
126	209
127	1659
128	1919
129	639
130	579
131	119
132	10
133	40
134	10
139	10
140	40
141	10
142	30
143	20
144	30
145	10
146	10
149	20
151	10
153	10
159	159
160	20
161	50
162	10
169	20
170	10
171	10
174	10
175	8329
176	629
177	3069
178	219
179	139
184	20
191	499
192	70
193	199
194	20
195	10
204	20
212	299
213	30
214	99
215	10
217	2899
218	279
219	1139
220	99
221	50
235	30
237	10
247	189
248	20
249	70
254	30
256	20
258	10
261	10
276	40
278	20
