Mass Spectrum: 1,2-Ethanediol, monobenzoate
Formula: C9 H10 O3
CAS: 94-33-7
Molecular weight: 166
Origin: J.Little, Eastman Chem.Comp.
m/z	RELATIVE INTENSITY
43	561
44	801
45	651
50	1541
51	3133
52	470
74	611
75	520
76	931
77	6356
78	1251
79	1141
91	320
92	370
93	70
103	120
104	220
105	9999
106	2072
107	190
118	70
121	60
122	981
123	6095
124	1151
125	120
135	540
136	370
137	30
148	120
149	110
150	10
167	30
