Mass Spectrum: Benzoic acid, 2-phenylethyl ester
Formula: C15 H14 O2
CAS: 94-47-3
Molecular weight: 226
Origin: RADIAN CORP
m/z	RELATIVE INTENSITY
27	90
28	30
32	20
38	20
39	260
40	10
41	80
42	20
43	40
50	360
51	1260
52	140
53	60
55	50
56	20
57	40
62	30
63	190
64	60
65	690
66	50
67	20
71	10
74	100
75	120
76	250
77	4690
78	910
79	270
80	10
83	10
84	20
85	20
89	140
90	70
91	1410
92	160
93	30
97	10
98	10
101	10
102	80
103	580
104	9999
105	5850
106	430
107	50
108	160
111	10
115	20
121	20
122	20
139	10
163	10
165	30
181	20
183	20
199	20
210	10
