Mass Spectrum: Nicotinic acid benzyl ester
Formula: C13 H11 N O2
CAS: 94-44-0
Molecular weight: 213
Origin: RADIAN CORP
m/z	RELATIVE INTENSITY
27	70
38	40
39	420
41	40
50	430
51	1610
52	320
53	100
62	70
63	310
64	90
65	1620
66	110
74	20
75	20
76	70
77	820
78	2790
79	1610
80	110
89	930
90	1450
91	8830
92	670
93	20
105	280
106	9999
107	1230
108	190
126	60
127	10
141	20
166	100
167	130
168	410
169	30
194	30
195	50
212	1620
213	4160
214	590
215	50
