Mass Spectrum: 1,2-Ethanediol, dibenzoate
Formula: C16 H14 O4
CAS: 94-49-5
Molecular weight: 270
Origin: Japan AIST/NIMC Database- Spectrum MS-NW-4115
m/z	RELATIVE INTENSITY
18	20
27	30
28	30
29	10
38	10
39	30
50	139
51	529
52	30
74	30
75	40
76	99
77	1959
78	139
79	10
94	10
104	30
105	9999
106	769
107	40
118	30
122	30
135	10
148	189
149	99
150	10
181	10
227	799
228	119
229	10
270	50
