Mass Spectrum: Benzoic acid, octyl ester
Formula: C15 H22 O2
CAS: 94-50-8
Molecular weight: 234
Origin: Japan AIST/NIMC Database- Spectrum MS-IW-3822
m/z	RELATIVE INTENSITY
27	209
28	40
29	339
38	10
39	199
40	40
41	849
42	419
43	659
44	30
50	129
51	599
52	50
53	70
54	119
55	939
56	1149
57	409
58	20
63	10
65	30
66	10
67	109
68	239
69	909
70	1499
71	229
72	10
74	30
75	40
76	159
77	3209
78	269
79	509
80	30
81	30
82	249
83	1019
84	1009
85	70
91	40
92	10
93	10
94	10
97	129
98	10
104	50
105	8199
106	689
107	70
111	30
112	1329
113	119
119	10
120	40
121	20
122	1309
123	9999
124	799
125	60
133	10
135	60
136	30
137	20
140	10
149	20
150	10
163	40
178	20
234	119
235	20
