Mass Spectrum: 1,4-Cyclohexanedicarboxylic acid, dimethyl ester
Formula: C10 H16 O4
CAS: 94-60-0
Molecular weight: 200
Origin: Japan AIST/NIMC Database- Spectrum MS-IW-1277
m/z	RELATIVE INTENSITY
15	719
16	10
18	20
26	30
27	529
28	329
29	329
30	20
31	189
32	129
33	70
38	20
39	719
40	149
41	1389
42	109
43	209
44	30
45	309
47	10
50	40
51	119
52	80
53	639
54	1199
55	1709
56	90
57	50
58	30
59	1359
60	40
61	90
63	20
65	129
66	669
67	1669
68	359
69	419
70	139
71	209
72	60
73	40
74	269
75	50
77	299
78	70
79	1329
80	4169
81	9999
82	1059
83	159
84	30
85	90
86	20
87	1039
88	90
89	10
91	70
92	30
93	50
94	229
95	219
96	70
97	279
98	229
99	139
100	789
101	249
102	10
105	10
106	10
107	139
108	6299
109	3629
110	339
111	329
112	259
113	189
114	179
115	20
118	10
122	10
123	40
124	99
125	299
126	949
127	159
128	20
135	20
136	729
137	80
138	10
139	109
140	9319
141	3239
142	299
143	20
146	20
153	20
154	20
155	20
156	99
157	40
167	10
168	3249
169	2159
170	219
171	20
200	60
201	50
