Mass Spectrum: Benzenamine, N-ethyl-2-methyl-
Formula: C9 H13 N
CAS: 94-68-8
Molecular weight: 135
Origin: NIST Mass Spectrometry Data Center, 1998.
m/z	RELATIVE INTENSITY
15	10
26	20
27	170
28	100
29	100
30	50
37	20
38	60
39	400
40	50
41	130
42	90
43	10
44	70
45	10
46	10
49	10
50	190
51	490
52	300
53	190
54	70
55	10
56	10
59	200
60	170
61	30
62	100
63	350
64	120
65	1100
66	100
67	50
73	10
74	50
75	50
76	80
77	1020
78	350
79	330
80	100
81	10
85	10
86	20
87	20
88	10
89	280
90	110
91	2340
92	420
93	330
94	50
102	20
103	80
104	240
105	120
106	840
107	110
108	10
115	60
116	30
117	240
118	880
119	350
120	9999
121	990
122	40
130	30
131	10
132	50
133	20
134	520
135	3800
136	400
137	20
