Mass Spectrum: Cyclohexanone, 2-propyl-
Formula: C9 H16 O
CAS: 94-65-5
Molecular weight: 140
Origin: Japan AIST/NIMC Database- Spectrum MS-IW-3592
m/z	RELATIVE INTENSITY
15	30
26	40
27	779
28	199
29	589
30	10
31	10
38	30
39	829
40	169
41	2269
42	1149
43	869
44	40
45	10
50	30
51	90
52	40
53	279
54	659
55	2609
56	1099
57	239
58	40
63	20
65	60
66	40
67	509
68	199
69	1119
70	2019
71	159
72	20
77	80
78	20
79	139
80	90
81	479
82	60
83	1819
84	419
85	60
86	20
91	40
93	119
94	30
95	70
96	239
97	1459
98	9999
99	769
100	50
107	20
109	10
110	10
111	719
112	70
113	10
125	10
138	10
139	10
140	259
141	30
