Mass Spectrum: [(4-Chloro-o-tolyl)oxy]acetic acid
Formula: C9 H9 Cl O3
CAS: 94-74-6
Molecular weight: 200
Origin: MASS SPECTROMETRY CENTER, UNIV. OF UTAH; EPA-PTSEL 4340
m/z	RELATIVE INTENSITY
14	249
15	104
16	114
18	28
26	141
27	382
28	218
29	465
30	67
31	771
32	27
36	263
37	189
38	475
39	1128
40	133
41	53
42	330
43	130
44	307
45	510
49	151
50	1095
51	2522
52	630
53	282
55	58
59	45
60	262
61	237
62	611
63	1664
64	284
65	323
72	53
73	648
74	368
75	658
76	179
77	6399
78	1272
79	269
85	141
86	133
87	240
89	2201
90	582
91	893
92	65
97	37
99	724
101	199
105	140
106	154
107	1649
108	149
111	80
112	488
113	1121
114	240
115	376
119	61
121	66
124	58
125	3637
126	415
127	1499
128	153
129	82
140	143
141	9999
142	3076
143	3305
144	971
145	67
153	67
154	434
155	2756
156	530
157	931
158	133
165	92
182	99
200	7756
201	702
202	2472
203	252
