Mass Spectrum: Phenol, 2-ethoxy-
Formula: C8 H10 O2
CAS: 94-71-3
Molecular weight: 138
Origin: RADIAN CORP
m/z	RELATIVE INTENSITY
20	10
26	100
27	630
29	310
37	20
38	100
39	460
42	30
45	60
50	350
51	460
52	600
53	1080
54	310
55	70
61	30
62	150
63	730
64	1140
65	430
66	110
67	30
74	40
75	10
77	60
79	120
80	120
81	2460
82	860
83	50
91	120
92	700
93	110
94	40
95	120
109	920
110	9999
111	690
112	40
121	80
122	10
123	30
136	10
137	10
138	4020
139	340
140	30
