Mass Spectrum: Benzene, 2,4-dichloro-1-(chloromethyl)-
Formula: C7 H5 Cl3
CAS: 94-99-5
Molecular weight: 194
Origin: Chuck Anderson, Aldrich Chemical Co.
m/z	RELATIVE INTENSITY
25	5
26	32
27	20
28	17
35	59
36	30
37	180
38	166
39	278
40	8
43	248
44	155
47	30
48	22
49	112
50	216
51	121
52	5
60	88
61	557
62	565
63	578
64	34
71	7
72	46
73	325
74	103
75	154
76	6
77	3
79	231
80	183
81	41
83	30
84	78
85	165
86	224
87	244
88	74
89	785
90	59
95	6
96	51
97	295
98	70
99	255
100	13
101	49
106	4
107	62
108	14
109	81
110	14
111	27
120	11
121	34
122	14
123	1452
124	439
125	510
126	145
127	9
131	15
133	282
134	12
135	184
136	7
137	26
157	56
158	68
159	9999
160	743
161	6012
162	468
163	996
164	71
167	4
169	3
193	48
194	1486
195	150
196	1334
197	111
198	443
199	30
200	41
