Mass Spectrum: 1,3,5,2,4,6-Triazatriphosphorine, 2,2,4,4,6,6-hexachloro-2,2,4,4,6,6-hexahydro-
Formula: Cl6 N3 P3
CAS: 940-71-6
Molecular weight: 345
m/z	RELATIVE INTENSITY
38	40
73	1060
76	250
80	80
90	50
105	70
108	170
111	410
120	20
135	30
146	1180
160	70
170	110
181	190
191	20
195	140
205	40
216	270
240	790
261	120
275	210
310	9999
345	2600
