Mass Spectrum: Benzonitrile, 3-chloro-2-fluoro-
Formula: C7 H3 Cl F N
CAS: 94087-40-8
Molecular weight: 155
Origin: NIST Mass Spectrometry Data Center, 1994
m/z	RELATIVE INTENSITY
12	56
13	19
14	82
16	31
17	24
18	76
19	16
24	25
25	73
26	219
27	79
28	744
31	1129
32	191
33	32
35	238
36	221
37	807
38	443
39	171
40	21
43	16
44	57
45	91
46	62
47	123
48	124
49	439
50	989
51	350
52	96
55	72
56	280
57	201
58	20
60	274
61	518
62	386
63	282
64	217
65	30
66	23
67	122
68	875
69	607
70	151
71	43
72	125
73	370
74	613
75	917
76	291
77	23
78	358
79	135
80	134
81	115
82	81
83	16
84	154
85	98
86	175
87	192
88	187
89	43
90	39
91	184
92	329
93	955
94	691
95	141
96	28
97	69
98	94
99	518
100	1563
101	129
102	33
103	60
104	170
105	52
106	70
107	14
108	32
109	96
110	50
111	38
115	35
116	28
117	62
118	166
119	608
120	2688
121	215
122	35
124	36
126	15
127	65
128	468
129	160
130	164
131	41
134	37
135	25
136	20
155	9999
156	880
157	3154
158	241
