Mass Spectrum: Ethanone, 1-(1-Naphthalenyl)-
Formula: C12 H10 O
CAS: 941-98-0
Molecular weight: 170
Origin: NIST Mass Spectrometry Data Center, 1990.
m/z	RELATIVE INTENSITY
14	44
15	189
27	92
28	34
38	66
39	289
42	67
43	822
49	87
50	503
51	671
52	96
53	47
57	92
61	128
62	306
63	911
65	86
69	76
71	111
73	67
74	636
75	795
76	553
77	1277
85	69
86	141
87	302
88	59
89	160
91	53
98	242
99	140
100	190
101	739
102	160
113	64
114	45
115	363
116	65
122	48
126	1961
127	9999
128	1137
129	52
139	225
140	82
141	171
152	47
155	8998
156	1006
157	53
170	4460
171	641
172	57
