Mass Spectrum: 1H-Indene, 2,3-dihydro-1,1,4,6-tetramethyl-
Formula: C13 H18
CAS: 941-60-6
Molecular weight: 174
m/z	RELATIVE INTENSITY
12	10
13	10
14	30
15	300
16	10
17	10
18	20
26	100
27	731
28	190
29	350
30	10
31	60
36	10
37	20
38	60
39	631
40	60
41	310
42	20
43	30
44	10
45	20
46	10
49	10
50	120
51	370
52	100
53	210
54	10
55	30
56	10
57	20
58	40
59	30
60	10
61	10
62	70
63	250
64	150
65	220
66	20
67	50
68	10
69	20
70	70
71	300
72	70
73	10
74	60
75	80
76	110
77	380
78	130
79	110
80	30
81	10
82	10
83	10
84	10
85	20
86	30
87	50
88	20
89	90
90	10
91	360
92	10
93	20
94	10
96	10
97	10
98	10
99	10
100	10
101	30
102	80
103	110
104	30
105	170
106	10
107	20
110	10
111	10
113	20
114	30
115	571
116	110
117	140
118	30
119	280
120	10
123	10
125	10
126	40
127	260
128	921
129	771
130	120
131	180
132	20
133	30
134	10
138	10
139	60
140	30
141	430
142	270
143	470
144	831
145	60
146	10
147	10
150	10
151	20
152	50
153	40
154	20
155	60
156	40
157	150
158	140
159	9999
161	10
165	10
171	10
172	40
173	90
174	1571
176	10
177	10
