Mass Spectrum: Benzenesulfonyl chloride, 4-(trifluoromethoxy)-
Formula: C7 H4 Cl F3 O3 S
CAS: 94108-56-2
Molecular weight: 260
Origin: NIST Mass Spectrometry Data Center, 1994
m/z	RELATIVE INTENSITY
16	30
26	70
35	116
36	143
37	281
38	855
39	339
44	35
45	34
47	105
48	534
49	125
50	918
51	241
52	120
53	232
54	105
57	129
58	106
61	258
62	675
63	2163
64	2651
65	403
66	154
69	3639
70	266
71	108
73	145
74	280
75	1456
76	367
77	85
79	72
80	39
81	66
82	73
83	264
84	92
85	60
86	74
92	1390
93	228
95	8568
96	664
97	132
98	60
99	339
101	155
103	44
107	35
108	199
109	46
111	60
113	97
115	84
123	44
125	86
127	177
129	52
133	128
140	30
149	80
161	5975
162	780
163	73
172	50
175	652
177	746
178	53
181	70
193	104
194	153
196	118
198	45
209	277
210	51
225	9999
226	763
227	455
228	41
241	68
260	1468
261	142
262	555
263	43
