Mass Spectrum: 1-Hexanone, 1-phenyl-
Formula: C12 H16 O
CAS: 942-92-7
Molecular weight: 176
Origin: Japan AIST/NIMC Database- Spectrum MS-NW-2036
m/z	RELATIVE INTENSITY
15	20
18	20
26	20
27	439
28	70
29	299
32	10
38	20
39	249
40	30
41	289
42	50
43	259
44	10
50	199
51	879
52	70
53	40
55	249
56	10
57	10
62	10
63	40
64	10
65	70
71	20
74	40
75	40
76	129
77	3739
78	629
79	60
89	10
91	189
92	60
102	10
103	30
104	30
105	9999
106	809
107	60
115	40
116	10
117	20
119	189
120	7189
121	659
122	40
128	10
129	20
131	10
133	629
134	179
135	10
147	50
148	10
158	10
175	30
176	789
177	109
