Mass Spectrum: 10-Undecenoic acid, propyl ester
Formula: C14 H26 O2
CAS: 94230-80-5
Molecular weight: 226
Origin: W.Jennings, T.Shibamoto
m/z	RELATIVE INTENSITY
27	70
29	390
37	791
41	1892
42	2382
43	8117
44	270
45	190
54	791
55	6736
56	1672
57	1191
58	70
59	591
60	5485
61	9999
62	190
66	691
67	2582
68	2272
69	5075
70	1471
71	1091
73	3793
74	470
75	70
79	270
80	380
81	3193
82	3994
83	5595
84	4894
85	1281
86	70
87	1391
88	70
91	70
93	380
94	470
95	1391
96	4884
97	3523
98	2993
99	881
100	671
101	1391
102	2993
103	390
105	270
106	70
107	470
108	70
109	791
110	1591
111	991
112	390
113	390
114	891
115	2192
116	190
117	70
119	270
121	390
122	1191
123	2182
124	4594
125	1591
126	190
127	380
128	70
129	380
132	270
133	791
137	891
138	681
139	190
140	270
141	390
142	190
143	270
147	470
148	681
149	2692
150	390
151	70
155	190
156	70
165	390
166	2512
167	2192
168	190
169	70
183	70
184	70
185	190
