Mass Spectrum: 1,2-Epoxy-5,9-cyclododecadiene
Formula: C12 H18 O
CAS: 943-93-1
Molecular weight: 178
Origin: Japan AIST/NIMC Database- Spectrum MS-NW-5212
m/z	RELATIVE INTENSITY
14	70
15	219
16	10
26	229
27	4579
28	1079
29	1859
30	40
31	329
32	109
37	40
38	259
39	6429
40	1119
41	9929
42	1989
43	1219
44	409
45	99
46	10
49	10
50	379
51	1279
52	759
53	3659
54	8159
55	4069
56	559
57	2099
58	149
59	40
60	20
61	20
62	109
63	469
64	159
65	1769
66	1459
67	9999
68	4279
69	2189
70	1929
71	329
72	40
73	10
74	70
75	90
76	90
77	2949
78	1989
79	8739
80	4659
81	6239
82	1509
83	2259
84	449
85	80
86	20
87	40
88	10
89	119
90	50
91	5999
92	1949
93	4499
94	1809
95	2679
96	1789
97	2949
98	369
99	70
100	10
101	20
102	70
103	329
104	1229
105	1969
106	2369
107	1409
108	759
109	3459
110	1479
111	709
112	70
113	20
114	10
115	449
116	239
117	2439
118	799
119	2099
120	719
121	1689
122	749
123	3089
124	1219
125	109
126	20
127	80
128	209
129	269
130	189
131	1809
132	1459
133	549
134	1609
135	969
136	549
137	419
138	50
139	20
140	10
141	60
142	30
143	60
144	20
145	629
146	80
147	169
148	60
149	989
150	519
151	80
152	40
153	30
154	20
155	30
156	40
157	30
158	60
159	229
160	1729
161	309
162	90
163	299
164	40
172	10
174	20
175	10
176	80
177	99
178	939
179	139
180	20
