Mass Spectrum: Ethanone, 1-[4-(1,1-dimethylethyl)phenyl]-
Formula: C12 H16 O
CAS: 943-27-1
Molecular weight: 176
m/z	RELATIVE INTENSITY
27	90
28	140
29	100
32	40
36	10
38	20
39	240
40	30
41	280
42	20
43	2953
44	80
45	40
50	120
51	320
52	60
53	70
55	70
56	10
57	170
58	200
59	40
62	40
63	140
64	60
65	240
66	30
67	20
71	100
72	240
73	90
74	130
75	70
76	100
77	370
78	110
79	80
80	10
86	20
87	30
88	10
89	110
90	160
91	561
92	60
93	50
101	30
102	110
103	200
104	60
105	470
106	40
108	20
114	10
115	430
116	120
117	360
118	470
119	130
120	30
121	30
127	20
128	50
129	30
130	10
131	80
132	30
133	1011
134	110
135	20
143	20
145	240
146	460
147	130
148	30
159	20
160	40
161	9999
162	1241
163	220
164	30
175	40
176	2282
177	310
178	60
