Mass Spectrum: Cyclohexanecarboxylic acid, 4-(1,1-dimethylethyl)-, trans-
Formula: C11 H20 O2
CAS: 943-29-3
Molecular weight: 184
Origin: DJ89-528-T4
m/z	RELATIVE INTENSITY
41	2200
43	600
53	300
54	300
55	900
56	5399
57	9999
58	500
60	100
67	900
68	400
69	500
73	600
77	300
79	300
80	400
81	2500
82	400
83	400
97	100
99	300
100	500
108	600
109	800
110	300
111	100
113	100
123	1500
124	100
126	500
127	5299
128	3000
129	8099
130	700
131	100
151	500
152	100
169	500
170	100
184	180
