Mass Spectrum: p-Nitro carbanilic acid, n-nonyl ester
Formula: C16 H24 N2 O4
CAS: 94373-85-0
Molecular weight: 308
Origin: A.A.Kutin, Moscow, Russia
m/z	RELATIVE INTENSITY
33	62
34	63
35	47
36	184
37	82
38	225
39	1241
40	958
41	6055
43	9999
44	538
45	97
46	28
47	6
48	6
50	218
51	150
52	215
53	333
55	2708
56	809
57	3352
58	133
59	22
60	13
61	43
62	114
63	425
64	397
65	347
66	78
67	212
68	225
69	863
70	415
71	2109
72	109
73	33
74	48
75	160
76	221
77	67
78	75
79	106
80	114
81	100
82	146
83	387
84	231
85	1007
86	69
88	27
90	349
91	214
92	241
93	116
94	16
95	29
96	49
97	234
98	160
99	26
100	7
101	7
102	3
103	4
104	12
105	37
106	89
107	59
108	558
109	49
110	8
111	19
112	10
113	5
114	2
115	7
116	4
117	11
118	46
119	79
120	27
121	35
122	131
123	30
124	30
125	25
126	61
127	20
128	5
129	7
130	5
131	6
132	18
133	20
134	86
135	56
136	25
138	1576
139	139
140	15
141	5
143	5
144	1
145	3
146	4
148	49
149	30
150	45
151	81
152	58
153	10
154	3
155	1
157	1
159	7
160	6
161	60
162	9
163	49
164	67
165	267
166	174
167	75
168	15
169	5
171	359
172	32
173	4
174	1
175	2
177	7
179	62
182	1623
183	888
184	100
185	13
187	22
188	1
189	14
190	1
191	4
193	33
194	3
195	3
205	1
207	31
208	4
209	4
217	1
221	23
223	37
224	4
235	27
236	3
237	1
247	2
278	22
279	5
291	7
292	23
293	4
306	1
308	361
309	64
310	6
