Mass Spectrum: 1H-Purine-2,6,8(3H)-trione, 7,9-dihydro-1,3-dimethyl-
Formula: C7 H8 N4 O3
CAS: 944-73-0
Molecular weight: 196
Origin: W.T.RAINEY OAK RIDGE NATIONAL LABORATORY,OAK RIDGE,TN.USA
m/z	RELATIVE INTENSITY
40	268
41	408
42	458
43	257
53	1411
54	512
55	453
56	857
57	240
58	369
67	428
68	4402
69	470
70	252
82	151
83	1554
84	247
96	114
98	120
110	336
111	773
112	453
122	35
123	55
124	40
138	731
139	3092
140	243
152	164
166	47
167	127
168	82
180	16
195	176
196	9999
197	907
