Mass Spectrum: Fonofos
Formula: C10 H15 O P S2
CAS: 944-22-9
Molecular weight: 246
Origin: ACCUSTANDARD Chemicals / NIST MS Data Center.
m/z	RELATIVE INTENSITY
13	9
14	11
15	93
17	13
18	29
24	4
26	165
27	1034
28	441
29	1901
30	46
31	18
32	59
33	10
34	8
35	10
37	21
38	86
39	699
40	33
41	13
42	14
43	77
44	8
45	368
46	8
47	315
48	109
49	306
50	195
51	585
52	59
53	17
54	4
57	129
58	135
59	127
60	29
61	159
62	4
63	1620
64	136
65	1414
66	329
67	21
68	4
69	523
70	42
71	64
73	14
74	55
75	95
76	104
77	874
78	163
79	61
80	207
81	1454
82	188
83	157
84	119
85	11
86	7
87	4
89	9
90	10
91	80
92	77
93	65
94	50
95	165
96	32
97	62
98	4
102	5
103	21
104	75
105	108
106	31
107	134
108	4
109	9999
110	1986
111	565
112	100
113	19
121	17
123	87
124	12
125	44
126	7
133	8
135	39
137	4443
138	265
139	317
140	97
141	308
142	81
143	25
144	6
152	11
153	55
155	59
157	216
158	29
159	11
167	7
169	144
170	72
171	347
172	62
173	139
174	516
175	53
176	50
177	6
185	126
186	39
187	17
188	17
189	98
190	11
191	10
201	198
202	272
203	49
204	28
205	5
217	143
218	149
219	30
220	15
230	9
243	6
244	8
246	3505
247	448
248	352
249	38
250	11
