Mass Spectrum: Cyclododecanone, oxime
Formula: C12 H23 N O
CAS: 946-89-4
Molecular weight: 197
Origin: Japan AIST/NIMC Database- Spectrum MS-IW-4706
m/z	RELATIVE INTENSITY
15	30
17	20
18	70
26	20
27	529
28	359
29	859
30	169
31	80
33	30
34	20
39	599
40	139
41	2659
42	629
43	709
44	179
45	60
46	99
51	40
52	40
53	459
54	579
55	2129
56	409
57	849
58	129
59	109
60	269
65	90
66	80
67	1139
68	389
69	919
70	739
71	129
72	229
73	9999
74	509
75	30
77	90
78	20
79	269
80	269
81	1369
82	869
83	2589
84	429
85	429
86	3889
87	709
88	70
91	70
92	10
93	179
94	399
95	1759
96	769
97	719
98	969
99	489
100	419
101	129
102	30
105	20
106	20
107	149
108	409
109	2029
110	489
111	109
112	749
113	1929
114	379
115	129
116	10
119	10
120	20
121	329
122	269
123	489
124	209
125	40
126	889
127	579
128	269
129	70
134	10
135	309
136	219
137	99
138	139
139	20
140	729
141	259
142	229
143	20
149	169
150	70
151	10
152	80
153	10
154	549
155	99
156	389
157	40
163	90
164	679
165	1549
166	219
167	20
168	239
169	249
170	30
178	60
179	10
180	1349
181	239
182	439
183	50
195	20
196	109
197	1769
198	379
199	30
