Mass Spectrum: Benzene, (phenoxymethyl)-
Formula: C13 H12 O
CAS: 946-80-5
Molecular weight: 184
Origin: NIST Mass Spectrometry Data Center, 1990.
m/z	RELATIVE INTENSITY
16	15
18	12
27	116
37	36
38	102
39	668
40	29
41	118
42	38
50	155
51	361
52	64
61	26
62	100
63	364
64	161
65	1566
66	127
74	52
76	38
77	194
78	38
89	202
91	9999
92	746
93	70
94	15
105	36
115	34
128	36
152	42
153	38
184	1472
185	215
