Mass Spectrum: 3H-Pyrazol-3-one, 2,4-dihydro-4,4,5-trimethyl-2-phenyl-
Formula: C12 H14 N2 O
CAS: 947-82-0
Molecular weight: 202
m/z	RELATIVE INTENSITY
37	156
38	580
39	3348
40	714
41	9196
42	2768
43	357
62	156
63	893
64	1786
65	915
66	223
67	625
68	558
69	6004
70	402
71	201
74	179
75	134
76	246
77	7276
78	737
81	670
82	134
97	2544
98	179
103	112
104	156
105	1094
106	491
115	134
117	223
118	670
119	223
159	223
173	2165
174	982
175	134
187	759
188	156
201	67
202	9999
203	1540
204	156
