Mass Spectrum: 2-Biphenylcarboxylic acid
Formula: C13 H10 O2
CAS: 947-84-2
Molecular weight: 198
Origin: Japan AIST/NIMC Database- Spectrum MS-NW-6274
m/z	RELATIVE INTENSITY
14	50
15	10
16	30
26	50
27	149
28	20
29	50
30	10
37	40
38	119
39	479
40	70
41	90
42	20
43	40
44	209
45	109
46	10
47	10
49	30
50	429
51	719
52	169
53	60
54	30
55	50
56	20
57	70
58	50
59	10
60	20
61	119
62	249
63	669
64	139
65	269
66	90
67	60
68	40
69	80
70	149
71	119
72	40
73	60
74	449
75	509
76	1469
77	809
78	159
79	80
80	30
81	10
82	20
83	20
84	189
85	90
86	159
87	209
88	80
89	179
90	299
91	169
92	189
93	129
94	669
95	70
96	10
97	30
98	189
99	399
100	80
101	199
102	249
103	50
104	189
105	199
106	169
107	40
108	10
109	20
110	40
111	40
112	10
113	99
114	80
115	609
116	80
117	10
118	10
119	20
120	50
121	80
122	209
123	809
124	90
125	99
126	499
127	449
128	119
129	70
130	20
131	20
132	10
133	10
134	10
135	10
136	10
137	20
138	20
139	259
140	80
141	609
142	229
143	40
144	20
146	10
147	10
148	10
149	50
150	429
151	1299
152	4249
153	3259
154	759
155	109
156	10
157	10
163	20
164	20
165	60
166	30
167	30
168	109
169	299
170	149
171	30
172	10
173	10
174	30
175	60
176	10
177	40
178	10
179	60
180	679
181	7849
182	1169
183	119
184	20
192	10
193	10
194	10
195	50
196	60
197	4289
198	9999
199	1449
200	159
201	20
