Mass Spectrum: Silanediol, diphenyl-
Formula: C12 H12 O2 Si
CAS: 947-42-2
Molecular weight: 216
Origin: Japan AIST/NIMC Database- Spectrum MS-IW-7208
m/z	RELATIVE INTENSITY
26	10
27	40
28	40
32	10
37	30
38	60
39	239
40	10
41	10
43	10
44	10
45	499
46	20
47	20
49	20
50	299
51	599
52	369
53	20
55	10
61	10
62	60
63	159
64	10
65	40
66	30
67	20
73	30
74	119
75	70
76	179
77	1379
78	2889
79	199
87	219
88	20
89	20
91	40
92	20
93	30
94	279
95	209
96	10
97	10
98	40
99	479
100	30
101	10
102	10
105	10
107	10
108	60
109	10
111	30
112	10
113	70
114	10
115	40
121	669
122	80
123	50
126	20
127	30
128	30
135	20
137	199
138	159
139	9999
140	1209
141	469
142	30
143	20
147	10
149	10
150	20
151	80
152	309
153	179
154	4959
155	659
156	40
169	10
171	10
181	10
196	10
197	619
198	489
199	169
200	40
213	20
214	20
215	259
216	6549
217	1199
218	379
219	50
