Mass Spectrum: Dimethyl bicyclo[2.2.1]-2,5-heptadiene-2,3-dicarboxylate
Formula: C11 H12 O4
CAS: 947-57-9
Molecular weight: 208
Origin: NIST Mass Spectrometry Data Center, 1994
m/z	RELATIVE INTENSITY
12	68
13	83
15	9999
16	172
17	39
18	97
24	15
25	47
26	360
27	1212
28	567
29	1962
30	504
31	580
32	78
33	32
36	25
37	481
38	1232
39	4634
40	907
41	548
42	54
43	240
44	112
45	509
46	77
47	20
48	21
49	168
50	1180
51	2067
52	917
53	1061
54	130
55	225
56	6
57	22
58	6
59	5507
60	165
61	493
62	1786
63	4571
64	1682
65	2581
66	8849
67	591
69	184
70	17
71	29
73	89
74	291
75	355
76	17
77	3833
78	1651
79	1995
80	308
81	93
83	73
84	37
85	100
86	230
87	279
88	29
89	4723
90	5136
91	4839
92	1333
93	1090
94	156
95	684
96	132
97	34
101	30
103	530
104	462
105	2519
106	1041
107	262
108	40
109	65
110	58
111	433
112	35
113	11
115	52
117	950
118	3621
119	3276
120	406
121	1585
122	213
123	81
124	171
125	20
126	15
129	8
131	103
133	1133
134	401
135	252
136	46
137	187
138	60
139	48
143	54
144	90
145	293
146	135
147	267
148	1139
149	6125
150	1003
151	306
152	36
154	63
155	11
159	17
161	2260
162	242
163	472
164	61
165	83
166	8
172	8
173	17
174	15
176	4113
177	3741
178	517
179	70
180	37
182	290
183	26
193	1576
194	177
195	23
205	11
207	581
208	1895
209	226
210	24
