Mass Spectrum: Azacyclotridecan-2-one
Formula: C12 H23 N O
CAS: 947-04-6
Molecular weight: 197
Origin: Japan AIST/NIMC Database- Spectrum MS-NW-3507
m/z	RELATIVE INTENSITY
15	149
18	50
26	109
27	1719
28	249
29	2259
30	9999
31	239
37	10
38	50
39	1589
40	369
41	6199
42	1779
43	3039
44	2709
45	1099
46	109
47	10
48	20
49	10
50	30
51	99
52	60
53	609
54	889
55	5019
56	2499
57	1209
58	1029
59	1089
60	1659
61	50
63	20
65	99
66	99
67	1099
68	849
69	1989
70	1289
71	639
72	2519
73	3529
74	339
75	20
77	80
78	30
79	269
80	199
81	889
82	769
83	1029
84	1849
85	1319
86	3079
87	2279
88	189
91	50
92	20
93	179
94	179
95	619
96	769
97	919
98	4129
99	1779
100	4489
101	1389
102	169
103	10
105	20
106	10
107	99
108	159
109	299
110	399
111	899
112	2719
113	1309
114	2029
115	589
116	60
119	30
120	20
121	99
122	80
123	109
124	119
125	489
126	1859
127	479
128	919
129	329
130	40
133	30
134	20
135	40
136	80
137	109
138	479
139	119
140	1719
141	429
142	529
143	159
144	20
149	20
150	30
151	50
152	70
153	40
154	2209
155	519
156	1679
157	179
162	60
164	10
166	10
167	20
168	1689
169	399
170	50
178	20
179	30
180	119
181	20
182	499
183	70
195	30
196	439
197	8729
198	1259
199	109
