Mass Spectrum: Phosfolan
Formula: C7 H14 N O3 P S2
CAS: 947-02-4
Molecular weight: 255
Origin: MASS SPECTROMETRY CENTER, UNIV. OF UTAH EPA-PTSEL 1610
m/z	RELATIVE INTENSITY
15	130
26	132
27	1624
28	827
29	2874
30	29
31	22
35	35
43	280
45	1747
46	640
47	722
57	19
58	458
59	2323
60	4948
61	847
62	299
63	38
64	1212
65	525
66	32
72	99
79	45
81	2930
82	9
86	315
87	31
88	10
90	317
91	1006
92	9999
93	696
94	981
96	9
97	80
99	33
108	531
109	1867
110	10
118	12
119	151
122	627
123	448
125	33
127	11
136	43
137	165
138	380
139	276
140	6104
141	119
142	403
155	23
162	42
166	23
167	120
168	3443
169	114
170	136
182	652
183	463
184	72
195	587
196	5053
197	450
198	280
199	375
200	15
210	563
211	217
222	35
227	2272
228	189
229	258
255	2782
256	296
257	288
