Mass Spectrum: Butanoic acid, 2-ethyl-, 1,2-ethanediylbis(oxy-2,1-ethanediyl) ester
Formula: C18 H34 O6
CAS: 95-08-9
Molecular weight: 346
Origin: J. Little, Eastman chemical company.
m/z	RELATIVE INTENSITY
27	360
29	671
31	110
39	270
41	911
42	310
43	3393
44	450
45	871
55	941
57	200
58	250
69	420
70	921
71	5925
72	470
73	631
83	120
86	340
87	230
88	250
89	250
98	721
99	4574
100	320
101	280
113	1001
114	330
115	320
117	100
127	811
128	140
141	200
142	3763
143	9999
144	761
145	100
173	70
186	310
187	100
202	80
215	20
218	40
230	100
