Mass Spectrum: 5-Norbornene-2-methanol
Formula: C8 H12 O
CAS: 95-12-5
Molecular weight: 124
Origin: Japan AIST/NIMC Database- Spectrum MS-NW-8370
m/z	RELATIVE INTENSITY
15	20
18	30
26	20
27	299
28	80
29	149
30	10
31	179
37	20
38	60
39	669
40	289
41	369
42	30
43	40
50	70
51	179
52	80
53	149
54	30
55	70
57	159
58	10
61	10
62	30
63	80
64	20
65	529
66	9999
67	869
68	60
69	20
70	30
77	489
78	239
79	359
80	409
81	50
82	10
83	30
89	10
91	499
92	60
93	129
94	10
95	40
96	10
103	10
105	50
106	149
107	20
124	119
125	10
