Mass Spectrum: Benzo[b]thiophene
Formula: C8 H6 S
CAS: 95-15-8
Molecular weight: 134
Origin: Japan AIST/NIMC Database- Spectrum MS-NW-8776
m/z	RELATIVE INTENSITY
26	10
27	20
32	10
37	50
38	80
39	249
40	10
44	20
45	299
47	10
49	20
50	179
51	189
52	20
53	20
54	80
57	40
58	139
59	10
60	10
61	80
62	189
63	499
64	80
65	30
66	80
67	659
68	40
69	469
70	30
71	50
73	30
74	149
75	149
76	60
77	70
81	80
82	169
83	30
84	119
85	30
86	50
87	60
88	30
89	1019
90	979
91	80
92	10
93	109
94	20
95	60
98	20
99	10
101	20
102	209
103	20
105	20
106	30
107	20
108	409
109	30
110	20
115	10
117	20
119	10
129	20
131	60
132	60
133	369
134	9999
135	979
136	479
137	40
