Mass Spectrum: Indene
Formula: C9 H8
CAS: 95-13-6
Molecular weight: 116
Origin: Japan AIST/NIMC Database- Spectrum MS-NW- 50
m/z	RELATIVE INTENSITY
26	10
27	80
28	20
37	60
38	149
39	559
40	30
41	30
49	20
50	319
51	309
52	40
53	10
57	299
58	259
60	10
61	139
62	409
63	979
64	129
65	299
66	10
73	20
74	189
75	159
76	80
77	50
84	10
85	70
86	159
87	219
88	179
89	1009
90	119
91	70
109	10
110	20
113	219
114	289
115	7929
116	9999
117	959
118	50
