Mass Spectrum: 1H-Benzotriazole
Formula: C6 H5 N3
CAS: 95-14-7
Molecular weight: 119
Origin: ALPHA Chemicals / NIST MS Data Center.
m/z	RELATIVE INTENSITY
13	61
15	44
24	26
25	132
26	455
27	442
28	26
29	310
36	251
37	1693
38	2476
39	1599
40	413
41	1378
42	56
45	309
46	284
48	68
49	264
50	636
51	856
52	2410
53	153
60	216
61	819
62	1565
63	5554
64	8270
65	2144
66	104
73	48
74	115
75	147
76	237
77	45
86	70
87	122
88	170
91	7962
92	492
119	9999
120	828
121	33
