Mass Spectrum: Chlorzoxazone
Formula: C7 H4 Cl N O2
CAS: 95-25-0
Molecular weight: 169
Origin: Japan AIST/NIMC Database- Spectrum MS-IW- 854
m/z	RELATIVE INTENSITY
26	40
27	30
28	119
31	10
36	40
37	70
38	279
39	169
40	10
43	10
44	20
47	10
48	10
49	80
50	269
51	499
52	239
53	40
54	10
56	109
57	30
60	40
61	90
62	199
63	609
64	60
65	20
70	109
71	40
72	30
73	30
74	20
75	70
76	349
77	119
78	2339
79	229
80	10
84	259
85	80
86	129
87	50
88	40
89	70
90	239
91	30
97	20
98	219
99	20
100	70
106	70
112	90
113	2819
114	239
115	919
116	60
125	219
126	20
127	70
134	20
140	99
141	60
142	40
143	20
168	70
169	9999
170	849
171	3259
172	269
173	20
