Mass Spectrum: 2,3-Butanedione, dioxime
Formula: C4 H8 N2 O2
CAS: 95-45-4
Molecular weight: 116
Origin: Japan AIST/NIMC Database- Spectrum MS-NW- 366
m/z	RELATIVE INTENSITY
15	2629
16	30
17	40
18	159
25	30
26	299
27	1409
28	1689
29	219
30	489
31	1769
32	30
33	20
34	10
37	99
38	259
39	669
40	1679
41	2709
42	9999
43	619
44	179
45	40
46	99
49	30
50	129
51	249
52	369
53	329
54	1019
55	579
56	169
57	1219
58	4119
59	119
60	20
63	10
64	40
65	20
66	249
67	669
68	2539
69	979
70	40
71	10
72	80
80	10
81	359
82	299
83	40
84	719
85	70
86	20
97	10
98	639
99	3799
100	199
101	149
115	10
116	7829
117	419
118	40
