Mass Spectrum: o-Chloroaniline
Formula: C6 H6 Cl N
CAS: 95-51-2
Molecular weight: 127
Origin: Japan AIST/NIMC Database- Spectrum MS-NW-8470
m/z	RELATIVE INTENSITY
15	20
26	40
27	60
28	299
29	10
30	10
31	10
35	10
36	80
37	249
38	449
39	839
40	129
41	429
42	139
43	10
44	119
45	509
46	40
47	30
48	20
49	80
50	179
51	189
52	599
53	50
54	70
60	40
61	179
62	299
63	839
64	1159
65	2429
66	309
67	60
72	40
73	299
74	119
75	199
76	50
77	10
78	20
84	20
85	10
86	30
87	20
88	60
89	40
90	259
91	909
92	2019
93	169
97	20
98	10
99	449
100	679
101	219
102	219
103	20
110	10
112	10
125	10
126	139
127	9999
128	739
129	3219
130	219
