Mass Spectrum: 1,4-Dioxane, 2,3-dichloro-
Formula: C4 H6 Cl2 O2
CAS: 95-59-0
Molecular weight: 156
Origin: Japan AIST/NIMC Database- Spectrum MS-NW-2721
m/z	RELATIVE INTENSITY
12	10
13	50
14	169
15	369
16	10
24	10
25	40
26	779
27	1639
28	9999
29	2429
30	1159
31	1599
32	20
35	109
36	369
37	50
38	109
39	10
40	10
41	60
42	219
43	719
44	60
45	349
47	60
48	139
49	3029
50	80
51	959
52	10
54	10
55	40
56	60
57	669
58	689
59	50
60	70
61	459
62	299
63	3209
64	2049
65	1139
66	629
67	70
71	99
73	50
76	30
77	509
78	40
79	159
80	10
82	10
83	90
84	10
85	60
86	849
87	30
91	209
92	599
93	189
94	179
95	40
96	329
97	40
98	219
99	20
100	30
102	10
107	20
109	20
119	30
120	769
121	5169
122	499
123	1689
124	70
125	10
126	10
127	20
128	10
129	10
154	60
155	60
156	499
157	60
158	299
159	20
160	50
