Mass Spectrum: Phenol, 2-chloro-
Formula: C6 H5 Cl O
CAS: 95-57-8
Molecular weight: 128
Origin: NIST Mass Spectrometry Data Center, 1990.
m/z	RELATIVE INTENSITY
14	42
16	17
24	13
25	55
26	143
27	113
28	299
29	190
31	102
32	209
35	90
36	134
37	690
38	979
39	1280
40	69
41	34
42	46
43	30
44	18
46	225
47	108
48	91
49	338
50	512
51	230
52	18
53	627
54	41
55	82
60	190
61	612
62	1073
63	3303
64	4986
65	2107
66	252
67	40
68	22
71	33
72	209
73	945
74	413
75	431
76	52
77	26
84	75
85	41
86	30
87	35
88	11
89	59
90	29
91	11
92	2090
93	270
94	26
96	24
97	46
99	648
100	885
101	267
102	309
103	17
108	8
128	9999
129	836
130	3394
131	210
132	13
