Mass Spectrum: Benzenamine, 2,4-dimethyl-
Formula: C8 H11 N
CAS: 95-68-1
Molecular weight: 121
Origin: Japan AIST/NIMC Database- Spectrum MS-NW- 565
m/z	RELATIVE INTENSITY
15	40
17	10
26	40
27	269
28	339
29	40
30	119
37	40
38	99
39	529
40	90
41	259
42	239
43	20
44	40
45	20
46	99
47	20
49	10
50	159
51	419
52	359
53	379
54	189
55	30
56	10
58	219
59	179
60	159
61	40
62	90
63	189
64	60
65	359
66	129
67	70
68	40
73	10
74	40
75	50
76	60
77	1149
78	419
79	379
80	239
81	60
86	10
87	10
89	80
90	40
91	729
92	169
93	359
94	139
95	20
101	10
102	70
103	329
104	269
105	179
106	5439
107	439
108	10
116	20
117	90
118	309
119	279
120	7099
121	9999
122	859
123	40
