Mass Spectrum: Benzene, 1,2,4-trimethyl-
Formula: C9 H12
CAS: 95-63-6
Molecular weight: 120
Origin: NIST Mass Spectrometry Data Center, 1990.
m/z	RELATIVE INTENSITY
14	260
15	192
16	115
17	6
18	11
26	82
27	536
28	1486
29	58
32	6
37	38
38	153
39	1082
40	184
41	396
42	15
43	9
44	35
45	11
50	434
51	960
52	271
53	327
54	21
55	16
58	165
59	152
61	61
62	201
63	516
64	105
65	645
66	78
67	28
73	22
74	159
75	138
76	143
77	1474
78	614
79	1183
80	85
81	4
84	4
85	22
86	45
87	54
89	197
91	1222
92	175
93	84
94	8
98	21
99	8
101	29
102	185
103	810
104	710
105	9999
106	920
107	37
110	5
115	457
116	96
117	333
118	5
119	1301
120	4521
121	444
122	20
