Mass Spectrum: Benzenamine, 3,4-dimethyl-
Formula: C8 H11 N
CAS: 95-64-7
Molecular weight: 121
Origin: NIST Mass Spectrometry Data Center, 1998.
m/z	RELATIVE INTENSITY
15	20
26	40
27	200
28	70
29	20
30	40
37	40
38	130
39	550
40	100
41	290
42	200
43	20
44	10
45	20
46	60
49	10
50	270
51	580
52	450
53	500
54	220
55	20
58	300
59	270
60	160
62	130
63	300
64	100
65	560
66	270
67	120
68	40
73	10
74	90
75	90
76	120
77	1730
78	560
79	530
80	400
81	60
85	10
86	20
87	20
88	10
89	150
90	90
91	1380
92	300
93	720
94	320
95	20
98	10
101	20
102	110
103	480
104	430
105	240
106	8519
107	730
108	20
116	50
117	220
118	610
119	460
120	9249
121	9999
122	960
123	40
