Mass Spectrum: 1,4-Benzenediamine, 2-methyl-
Formula: C7 H10 N2
CAS: 95-70-5
Molecular weight: 122
Origin: Japan AIST/NIMC Database- Spectrum MS-IW-3908
m/z	RELATIVE INTENSITY
15	10
16	10
26	20
27	90
28	50
29	30
30	10
36	20
37	40
38	109
39	349
40	109
41	279
42	209
43	60
44	40
45	10
46	50
47	90
50	109
51	269
52	459
53	359
54	339
55	90
56	30
57	20
59	70
60	339
61	639
62	50
63	109
64	99
65	309
66	319
67	309
68	109
69	30
70	10
71	10
73	10
74	30
75	50
76	80
77	799
78	469
79	239
83	20
89	10
90	20
91	40
92	139
93	539
94	1599
95	369
96	40
97	10
98	119
100	10
102	30
103	20
104	869
105	399
106	1009
107	329
108	30
109	10
118	20
119	189
120	60
121	5249
122	9999
123	859
124	30
