Mass Spectrum: Benzenamine, 2,5-dimethyl-
Formula: C8 H11 N
CAS: 95-78-3
Molecular weight: 121
Origin: RADIAN CORP
m/z	RELATIVE INTENSITY
26	10
27	150
28	150
29	20
30	50
37	30
38	100
39	500
40	90
41	230
42	260
43	20
44	30
46	10
47	60
49	20
50	340
51	690
52	500
53	550
54	270
55	30
59	270
60	220
61	140
62	170
63	440
64	160
65	800
66	330
67	140
68	60
73	20
74	140
75	160
76	220
77	2470
78	1150
79	960
80	480
81	70
84	20
85	10
86	50
87	30
88	10
89	230
90	140
91	1860
92	410
93	900
94	340
95	40
101	30
102	210
103	990
104	800
105	660
106	9090
107	760
108	30
116	80
117	230
118	630
119	290
120	7780
121	9999
122	920
123	40
