Mass Spectrum: Benzenamine, 2,5-dichloro-
Formula: C6 H5 Cl2 N
CAS: 95-82-9
Molecular weight: 161
Origin: Japan AIST/NIMC Database- Spectrum MS-NW-1859
m/z	RELATIVE INTENSITY
25	30
26	60
27	40
28	259
31	10
35	50
36	90
37	509
38	619
39	449
40	99
41	279
42	50
43	10
44	479
45	149
46	10
47	109
48	70
49	179
50	259
51	199
52	999
53	80
54	30
60	189
61	689
62	1009
63	2269
64	519
65	499
66	119
67	20
68	10
71	40
72	179
73	759
74	279
75	329
76	80
77	30
78	30
80	399
81	259
82	40
83	80
84	80
85	70
86	129
87	90
88	189
89	369
90	2599
91	549
92	30
95	20
96	60
97	249
98	449
99	1749
100	289
101	599
102	50
103	20
107	50
108	30
109	70
110	20
111	20
112	10
114	20
120	10
122	10
124	139
125	779
126	1269
127	389
128	399
129	40
133	429
134	259
135	309
136	169
137	60
138	30
160	90
161	9999
162	729
163	6419
164	459
165	1039
166	70
