Mass Spectrum: Benzene, 1,2,4,5-tetramethyl-
Formula: C10 H14
CAS: 95-93-2
Molecular weight: 134
Origin: Japan AIST/NIMC Database- Spectrum MS-NW-1697
m/z	RELATIVE INTENSITY
14	20
15	30
26	20
27	299
28	20
29	60
37	10
38	70
39	749
40	99
41	639
42	20
43	10
44	20
50	149
51	529
52	179
53	329
54	20
55	80
57	119
58	90
59	20
61	20
62	90
63	319
64	189
65	579
66	209
67	129
74	70
75	70
76	50
77	789
78	229
79	319
80	30
86	20
87	30
89	99
90	30
91	1349
92	159
93	139
94	20
98	10
101	20
102	99
103	339
104	219
105	349
106	60
107	20
114	10
115	599
116	209
117	689
118	219
119	9999
120	999
121	40
127	30
128	60
129	40
131	60
132	80
133	1079
134	5619
135	599
136	30
