Mass Spectrum: Ethanedioic acid, diethyl ester
Formula: C6 H10 O4
CAS: 95-92-1
Molecular weight: 146
Origin: Chuck Anderson, Aldrich Chemical Co.
m/z	RELATIVE INTENSITY
13	2
14	34
15	185
16	12
17	6
18	24
19	57
25	4
26	175
27	1655
28	1030
29	9999
30	548
31	1469
32	31
36	3
41	79
42	46
43	337
44	76
45	781
46	61
47	50
56	105
57	127
58	7
59	60
60	3
73	226
74	755
75	171
76	6
87	2
91	6
118	8
119	5
146	37
147	3
