Mass Spectrum: 1,4-Dioxane-2,5-dione, 3,6-dimethyl-
Formula: C6 H8 O4
CAS: 95-96-5
Molecular weight: 144
m/z	RELATIVE INTENSITY
25	500
26	2602
27	4604
28	9999
29	4004
30	300
42	901
43	8107
44	2002
45	9208
46	400
55	2002
56	9999
57	1001
144	801
