Mass Spectrum: Dispiro[5.1.5.1]tetradecane-7,14-dione
Formula: C14 H20 O2
CAS: 950-21-0
Molecular weight: 220
Origin: Japan AIST/NIMC Database- Spectrum MS-IW-2707
m/z	RELATIVE INTENSITY
27	109
28	50
29	50
39	249
40	99
41	469
42	40
43	30
50	10
51	50
52	40
53	319
54	489
55	199
56	10
63	10
65	60
66	80
67	2119
68	209
69	50
77	119
78	60
79	329
80	70
81	639
82	969
83	169
91	60
92	99
93	50
94	20
95	70
96	20
97	10
105	10
107	30
108	30
109	389
110	9999
111	839
112	50
121	30
122	10
135	20
138	10
149	20
150	10
163	20
164	309
165	40
191	10
192	40
220	1479
221	229
222	20
