Mass Spectrum: Phosphoric acid, dimethyl 4-nitrophenyl ester
Formula: C8 H10 N O6 P
CAS: 950-35-6
Molecular weight: 247
Origin: J. SHAW, BORRISTON RESEARCH, ROCKVILLE, MD, USA
m/z	RELATIVE INTENSITY
25	10
26	260
27	240
28	870
29	750
30	3263
31	700
32	70
33	70
36	10
37	160
38	990
39	680
40	50
41	80
42	40
43	70
44	30
45	150
46	150
47	1121
48	100
49	150
50	1131
51	520
52	420
53	340
54	210
55	80
56	10
57	40
58	10
59	10
60	60
61	140
62	640
63	2572
64	1581
65	930
66	450
67	60
68	90
69	30
71	10
73	50
74	470
75	1321
76	710
77	550
78	340
79	3543
80	230
81	300
82	140
83	70
84	10
85	10
87	10
88	110
89	1331
90	150
91	180
92	510
93	1361
94	130
96	7647
97	160
98	50
99	140
100	10
102	10
103	90
104	90
105	640
106	310
107	620
109	9999
110	350
111	170
112	20
113	140
115	20
118	10
119	60
120	50
121	90
122	270
123	550
124	50
125	20
127	250
128	10
130	20
135	1651
136	860
137	320
139	1221
140	150
141	70
142	10
143	70
149	320
150	40
152	410
153	200
154	30
155	80
156	190
157	20
161	30
162	20
166	10
169	100
170	190
171	30
172	20
173	50
179	10
186	870
187	60
188	10
198	10
200	1331
201	460
202	40
215	10
216	50
217	70
218	10
230	1971
231	320
232	70
246	280
247	1581
248	220
249	30
