Mass Spectrum: 3,4,5-Trimethoxyphenylacetic acid
Formula: C11 H14 O5
CAS: 951-82-6
Molecular weight: 226
Origin: Japan AIST/NIMC Database- Spectrum MS-NW-6990
m/z	RELATIVE INTENSITY
14	20
15	429
16	10
17	10
18	20
26	60
27	339
28	189
29	139
30	10
31	40
32	10
37	50
38	189
39	719
40	70
41	279
42	50
43	199
44	40
45	249
49	20
50	259
51	569
52	589
53	509
54	50
55	299
56	20
57	70
59	70
60	10
61	40
62	109
63	329
64	289
65	379
66	179
67	269
68	80
69	229
70	20
71	40
74	50
75	70
76	99
77	519
78	269
79	639
80	299
81	209
82	50
83	99
84	10
85	40
86	10
87	10
88	20
89	159
90	219
91	239
92	169
93	179
94	119
95	499
96	179
97	199
98	50
99	10
103	10
104	40
105	279
106	189
107	319
108	129
109	499
110	60
111	109
112	20
113	20
116	10
117	10
118	30
119	50
120	179
121	299
122	109
123	389
124	579
125	129
126	60
127	40
133	30
134	70
135	309
136	409
137	1149
138	309
139	1159
140	139
141	979
142	80
143	10
145	20
147	30
148	599
149	129
150	80
151	409
152	60
153	199
154	30
155	30
163	20
164	10
165	449
166	219
167	399
168	149
169	429
170	40
175	10
177	10
179	40
180	70
181	5229
182	649
183	329
184	40
193	70
194	30
195	20
196	50
197	60
198	80
199	10
201	10
203	10
205	10
208	30
209	30
210	80
211	4959
212	589
213	90
223	10
224	10
225	40
226	9999
227	1199
228	189
229	20
