Mass Spectrum: 2-Hydroxy-5-methylazobenzene
Formula: C13 H12 N2 O
CAS: 952-47-6
Molecular weight: 212
Origin: Japan AIST/NIMC Database- Spectrum MS-NW-5777
m/z	RELATIVE INTENSITY
15	20
17	10
18	30
26	70
27	509
28	119
29	50
31	20
37	60
38	249
39	1319
40	149
41	179
43	329
49	10
50	319
51	1609
52	429
53	389
54	40
55	239
58	10
61	30
62	99
63	329
64	329
65	1129
66	299
67	90
68	20
74	70
75	70
76	129
77	8859
78	1129
79	799
80	70
81	70
85	20
86	10
87	10
89	80
90	50
91	199
92	359
93	159
94	109
102	20
103	30
104	20
105	1639
106	309
107	9999
108	949
109	50
115	189
116	30
118	20
120	60
121	20
123	30
127	70
128	99
129	80
130	20
131	10
134	20
135	4129
136	389
137	30
139	40
140	30
141	159
142	40
149	30
151	20
152	90
153	119
154	50
155	119
156	60
157	20
158	10
164	10
165	179
166	40
167	50
168	129
169	80
170	20
181	70
182	40
183	369
184	189
185	30
210	20
211	109
212	9249
213	1409
214	129
