Mass Spectrum: Morinamide
Formula: C10 H14 N4 O2
CAS: 952-54-5
Molecular weight: 222
Origin: Finnigan MAT: Toxicological Library (LIBR-TX)
m/z	RELATIVE INTENSITY
41	622
42	1273
52	2633
53	1366
56	3481
57	3892
70	424
79	4450
80	1379
86	4504
87	614
88	290
99	686
100	3271
107	3286
108	495
115	9999
116	684
135	503
136	1780
137	999
179	94
222	497
223	102
