Mass Spectrum: Benzene, 1,1'-(1,2-ethanediyl)bis[2-methyl-
Formula: C16 H18
CAS: 952-80-7
Molecular weight: 210
Origin: D.HENNEBERG, MAX-PLANCK INSTITUTE, MULHEIM, WEST GERMANY
m/z	RELATIVE INTENSITY
26	85
27	116
29	10
30	7
32	13
37	9
39	40
40	97
41	34
42	10
43	9
44	16
50	14
51	31
52	25
53	54
54	8
56	89
57	9
60	4
63	11
64	5
65	62
66	7
67	10
73	32
76	9
77	718
78	209
79	804
80	33
81	4
91	246
92	25
93	5
95	7
100	5
101	20
102	52
103	469
104	386
105	9999
106	919
107	44
113	1
114	1
117	60
118	68
119	65
120	5
121	8
123	5
127	5
129	4
131	5
139	3
143	8
148	4
149	61
151	26
153	5
155	5
160	5
165	59
166	22
168	3
175	4
178	15
179	34
180	43
181	15
185	32
188	2
194	8
195	2
196	6
197	5
198	12
199	5
202	2
205	12
206	11
207	16
210	2313
211	435
212	27
