Mass Spectrum: 2-Propenoic acid, 3-(4-nitrophenyl)-, ethyl ester
Formula: C11 H11 N O4
CAS: 953-26-4
Molecular weight: 221
Origin: Japan AIST/NIMC Database- Spectrum MS-IW-7211
m/z	RELATIVE INTENSITY
15	30
18	10
26	50
27	309
28	139
29	679
30	229
31	40
37	10
38	50
39	189
40	10
41	20
42	10
43	70
44	50
45	469
46	20
49	10
50	529
51	689
52	229
53	50
55	20
61	20
62	99
63	369
64	99
65	229
66	20
69	159
71	10
73	20
74	299
75	509
76	999
77	339
78	30
79	80
80	10
85	10
86	10
87	40
88	40
89	389
90	759
91	589
92	249
93	20
95	10
98	60
99	70
100	20
101	449
102	2279
103	399
104	70
105	20
106	10
107	70
108	10
115	60
116	70
117	99
118	759
119	219
120	20
121	30
127	10
128	50
129	499
130	3279
131	499
132	50
133	30
134	10
135	60
136	40
137	10
142	10
143	20
144	10
145	80
146	679
147	499
148	269
149	459
150	70
151	50
152	50
153	10
156	10
157	10
158	239
159	259
160	619
161	80
162	30
163	109
164	20
165	40
166	30
173	30
174	369
175	369
176	9999
177	1189
178	139
179	20
180	20
186	30
190	20
191	20
192	609
193	4359
194	479
195	60
203	90
204	1219
205	289
206	109
207	139
208	10
220	139
221	3879
222	539
223	60
