Mass Spectrum: Methyl trithion
Formula: C9 H12 Cl O2 P S3
CAS: 953-17-3
Molecular weight: 314
m/z	RELATIVE INTENSITY
31	229
45	5329
46	917
47	2550
50	745
51	630
61	745
62	831
63	2550
75	1518
76	688
77	630
79	1433
93	4871
99	372
108	1203
121	945
122	831
123	372
125	5787
126	745
127	573
143	1547
144	974
145	774
157	9999
158	1948
159	3868
160	573
172	1232
190	544
314	3667
316	1433
