Mass Spectrum: N-(5-Bromopentyl)phthalimide
Formula: C13 H14 Br N O2
CAS: 954-81-4
Molecular weight: 295
Origin: NIST Mass Spectrometry Data Center, 1994
m/z	RELATIVE INTENSITY
15	99
18	47
26	193
27	1567
28	823
29	778
30	38
32	19
37	51
38	156
39	1221
40	220
41	1761
42	216
43	54
50	1695
51	906
52	207
53	320
54	185
55	719
56	261
62	49
63	124
64	89
65	156
66	159
67	207
68	143
69	275
70	67
72	25
73	58
74	577
75	923
76	3128
77	2710
78	279
79	40
80	45
81	42
82	44
89	88
90	136
91	67
92	29
93	109
94	30
95	71
102	548
103	357
104	2141
105	1286
106	166
107	110
109	84
115	38
116	49
117	459
118	48
128	31
130	1747
131	174
132	434
133	1268
134	102
135	47
137	43
146	35
147	117
148	780
149	79
160	9999
161	3741
162	378
174	502
175	56
186	42
188	273
189	47
216	1989
217	256
218	29
295	872
296	163
297	906
298	127
