Mass Spectrum: Nordiphenamid
Formula: C15 H15 N O
CAS: 954-21-2
Molecular weight: 225
Origin: S.I.M. SKINNER & R. GREENHALGH, CHEMISTRY & BIOLOGY RESEARCH INST., AGRICULTURE, CANADA
m/z	RELATIVE INTENSITY
38	100
39	1300
40	133
41	300
42	233
43	166
44	33
49	33
50	300
51	833
52	166
53	33
55	100
56	66
57	266
58	4533
59	100
60	33
61	33
62	233
63	1300
64	133
65	633
66	33
69	266
70	100
71	66
73	66
74	133
75	200
76	333
77	466
78	133
79	33
81	166
82	633
83	366
84	33
86	33
87	133
88	100
89	733
90	300
91	900
92	33
100	33
101	166
113	133
114	33
115	833
116	100
118	33
126	100
127	100
128	400
129	33
137	33
138	33
139	500
140	66
141	200
143	66
150	33
151	300
152	2833
153	833
154	100
163	333
164	533
165	4800
166	1633
167	9100
168	9999
169	1466
170	66
225	326
226	53
