Mass Spectrum: Furan, 2,5-diphenyl-
Formula: C16 H12 O
CAS: 955-83-9
Molecular weight: 220
Origin: Japan AIST/NIMC Database- Spectrum MS-IW- 439
m/z	RELATIVE INTENSITY
39	40
50	20
51	119
52	10
62	30
63	90
64	10
65	70
69	10
73	10
74	10
75	30
76	20
77	799
78	50
81	10
82	60
83	50
86	10
87	20
88	30
89	159
90	20
94	119
95	80
96	10
105	979
106	70
109	10
110	789
111	10
113	30
114	50
115	1589
116	159
139	10
152	10
163	10
164	10
165	119
166	20
187	10
188	10
189	169
190	99
191	679
192	199
193	30
201	40
202	30
203	70
204	10
218	30
219	329
220	9999
221	1759
222	159
223	10
