Mass Spectrum: 3-Acetamido-5-acetylfuran
Formula: C8 H9 N O3
CAS: 95598-28-0
Molecular weight: 167
Origin: R.A. FRANICH, FOREST RES. INST., ROTORUA, NEW ZEALAND
m/z	RELATIVE INTENSITY
43	6800
44	2500
45	300
54	1500
55	1000
56	200
66	200
67	200
68	500
69	800
80	300
81	1400
82	8000
83	2000
84	200
95	300
96	1400
110	9999
111	700
124	5700
125	8800
126	700
166	2600
167	5700
168	600
