Mass Spectrum: Phenanthrene, 9,10-dihydro-1-methyl-
Formula: C15 H14
CAS: 95676-48-5
Molecular weight: 194
Origin: R.A.HITES, INDIANA UNIV., BLOOMINGTON, IN
m/z	RELATIVE INTENSITY
149	400
150	500
151	700
152	1300
153	400
163	500
164	500
165	1600
166	400
176	1200
177	900
178	7100
179	9999
180	1700
181	100
188	500
189	2100
190	900
191	2200
192	3000
193	2700
194	8500
195	1700
196	100
