Mass Spectrum: Diphenamid
Formula: C16 H17 N O
CAS: 957-51-7
Molecular weight: 239
Origin: ACCUSTANDARD Chemicals / NIST MS Data Center.
m/z	RELATIVE INTENSITY
12	10
15	744
18	523
29	20
30	9
37	15
38	72
39	450
40	13
41	99
42	510
43	118
44	186
45	9
50	187
51	372
52	64
53	17
56	209
57	25
58	27
61	23
62	142
63	412
64	96
65	219
66	14
67	7
70	52
72	9999
73	386
74	117
75	115
76	128
77	203
78	89
79	14
82	92
83	97
85	10
86	56
87	101
88	85
89	333
90	127
91	155
92	17
98	23
99	25
100	14
101	35
102	81
103	25
104	13
105	16
106	7
110	10
111	16
113	81
114	74
115	404
116	89
118	75
119	11
120	8
122	7
125	16
126	75
127	77
128	168
129	24
130	13
131	25
132	15
133	10
134	26
137	29
138	64
139	319
140	47
141	77
142	11
144	7
146	34
149	10
151	268
152	1269
153	179
154	15
160	13
161	61
162	61
163	310
164	10
165	3086
166	1547
167	5631
168	796
169	54
178	14
179	9
180	9
181	14
182	9
192	5
193	13
194	24
195	9
210	16
236	7
239	1429
240	268
241	28
