Mass Spectrum: 2,6-Difluorobutyrophenone
Formula: C10 H10 F2 O
CAS: 95727-77-8
Molecular weight: 184
Origin: NIST Mass Spectrometry Data Center, 1994
m/z	RELATIVE INTENSITY
12	6
14	39
15	231
16	9
17	1
18	5
19	6
25	7
26	145
27	1144
28	170
29	104
31	39
33	16
37	72
38	116
39	617
40	93
41	648
42	224
43	509
44	28
49	17
50	155
51	85
53	23
55	152
56	49
57	188
58	12
61	85
62	241
63	1514
64	97
65	8
68	190
69	105
70	40
71	74
72	10
73	28
74	132
75	162
76	19
77	56
79	8
80	38
81	147
82	19
83	24
84	9
85	13
86	35
87	88
88	56
89	9
92	56
93	221
94	167
95	52
96	15
98	16
99	54
100	13
101	144
102	9
105	16
107	105
108	37
109	18
110	11
111	26
112	184
113	2023
114	345
115	30
118	11
119	42
120	15
121	22
122	21
123	31
125	38
127	250
128	47
133	18
136	8
138	32
139	47
141	9999
142	750
143	66
149	19
151	19
156	1611
157	149
158	10
164	23
165	19
166	15
169	218
170	22
184	581
185	71
