Mass Spectrum: trans-1,2-Dibenzoylethylene
Formula: C16 H12 O2
CAS: 959-28-4
Molecular weight: 236
Origin: Japan AIST/NIMC Database- Spectrum MS-IW-4897
m/z	RELATIVE INTENSITY
26	20
27	50
28	30
38	10
39	50
50	239
51	999
52	70
53	80
54	40
62	20
63	40
65	10
74	80
75	80
76	159
77	3989
78	309
79	10
82	20
87	10
89	30
90	20
101	10
102	90
103	259
104	50
105	9999
106	859
107	50
110	10
115	80
118	40
130	70
131	599
132	60
133	20
143	10
152	10
159	269
160	30
165	30
178	40
179	80
180	50
181	10
189	10
191	30
192	10
207	309
208	579
209	99
210	10
218	10
220	90
221	10
235	10
236	3729
237	669
238	109
239	10
