Mass Spectrum: 2-Propen-1-one, 3-(4-methoxyphenyl)-1-phenyl-
Formula: C16 H14 O2
CAS: 959-33-1
Molecular weight: 238
Origin: J. Little, Eastman chemical company.
m/z	RELATIVE INTENSITY
27	300
29	440
31	520
39	540
41	320
43	320
50	550
51	1641
55	320
57	230
62	220
63	971
64	621
65	340
74	230
75	320
76	530
77	5165
78	550
79	510
89	1461
90	1191
91	280
92	581
102	601
103	611
105	2372
108	3343
109	330
115	280
117	260
118	1041
119	160
130	310
132	190
133	2372
134	300
135	310
139	180
149	140
151	200
152	681
153	150
161	4564
162	571
165	1161
166	480
167	1111
168	220
177	340
178	540
179	761
180	150
194	550
195	1471
196	270
207	1962
208	380
209	701
210	771
211	150
221	240
222	200
223	2582
224	460
237	4014
238	9999
239	1962
240	250
241	30
