Mass Spectrum: 2-Propenoic acid, 2-methyl-, 2-propenyl ester
Formula: C7 H10 O2
CAS: 96-05-9
Molecular weight: 126
Origin: Chuck Anderson, Aldrich Chemical Co.
m/z	RELATIVE INTENSITY
12	1
13	2
14	8
15	84
24	2
25	3
26	186
27	450
28	26
29	438
30	49
31	148
32	2
33	1
36	10
37	186
38	516
39	4927
40	853
41	9806
42	462
43	208
44	42
45	89
46	3
47	3
48	1
49	3
50	12
51	15
52	17
53	175
54	82
55	297
56	72
57	865
58	61
59	85
60	5
61	4
62	3
63	2
64	1
65	38
66	21
67	181
68	92
69	9999
70	630
71	55
72	11
73	4
74	12
75	1
77	28
78	5
79	456
80	237
81	3292
82	262
83	163
84	88
85	43
86	12
87	157
88	7
89	1
90	6
91	3
93	49
94	4
95	9
96	6
97	432
98	207
99	19
100	2
107	27
108	58
109	42
111	1490
112	91
113	8
114	1
123	1
125	71
126	67
127	16
128	2
