Mass Spectrum: 7-Oxabicyclo[4.1.0]heptane, 1-methyl-4-(2-methyloxiranyl)-
Formula: C10 H16 O2
CAS: 96-08-2
Molecular weight: 168
Origin: RADIAN CORP
m/z	RELATIVE INTENSITY
15	130
26	100
27	1690
28	160
29	1710
30	110
31	590
37	20
38	110
39	2670
40	450
41	3070
42	500
43	9999
44	580
45	680
46	20
50	180
51	520
52	290
53	1680
54	520
55	2900
56	430
57	1020
58	800
59	380
60	10
61	40
62	40
63	170
64	40
65	780
66	330
67	3060
68	580
69	1200
70	290
71	1080
72	180
73	30
74	40
75	410
76	30
77	1620
78	300
79	2810
80	630
81	2050
82	1140
83	1250
84	590
85	540
86	60
87	70
89	30
91	1720
92	740
93	2740
94	1410
95	2610
96	350
97	1290
98	380
99	110
100	10
103	70
104	20
105	530
106	180
107	2240
108	520
109	1020
110	700
111	670
112	80
113	50
115	50
117	170
118	20
119	200
120	60
121	500
122	360
123	750
124	130
125	410
126	50
127	260
128	10
132	40
133	10
135	360
136	70
137	520
138	140
139	160
140	50
149	30
150	60
151	30
153	280
154	30
168	160
169	10
