Mass Spectrum: Aluminum, chlorodiethyl-
Formula: C4 H10 Al Cl
CAS: 96-10-6
Molecular weight: 120
Origin: D.HENNEBERG, MAX-PLANCK INSTITUTE, MULHEIM, WEST GERMANY
m/z	RELATIVE INTENSITY
26	3740
27	5479
28	9999
29	3592
30	1753
31	159
35	70
36	397
37	28
38	103
39	118
40	25
41	214
42	42
43	100
44	18
45	68
46	24
47	52
48	4
49	9
50	23
51	9
52	71
53	39
54	9
55	39
56	173
57	854
58	27
59	18
61	5
62	1126
63	3986
64	434
65	1220
66	58
68	48
69	47
70	11
71	33
73	76
74	8
75	115
76	63
77	89
78	38
79	18
80	6
81	7
84	4
85	1274
86	60
87	64
88	4
89	135
90	59
91	6847
92	204
93	2236
94	65
95	84
96	26
97	187
98	7
99	130
100	24
101	52
102	22
103	17
104	25
105	42
106	17
107	116
108	4
109	41
110	7
111	8
112	9
113	9
114	33
115	14
117	16
119	66
120	1278
121	75
122	490
123	33
124	38
125	70
126	29
127	48
