Mass Spectrum: 1-Propene, 1,2,3-trichloro-
Formula: C3 H3 Cl3
CAS: 96-19-5
Molecular weight: 144
Origin: Japan AIST/NIMC Database- Spectrum MS-NW-2892
m/z	RELATIVE INTENSITY
12	20
13	20
14	20
24	20
25	70
26	109
27	40
28	80
29	20
35	209
36	239
37	679
38	809
39	1239
40	40
42	10
44	10
47	309
48	179
49	1119
50	60
51	349
53	10
59	20
60	159
61	209
62	60
63	60
71	50
72	179
73	1759
74	239
75	619
76	60
77	30
82	20
83	2389
84	40
85	1609
86	20
87	259
94	10
95	169
96	90
97	109
98	60
99	20
107	90
108	30
109	9999
110	359
111	6379
112	209
113	1009
114	30
143	129
144	2249
145	289
146	2099
147	199
148	709
149	50
150	70
