Mass Spectrum: 1-Butanamine, 2-methyl-
Formula: C5 H13 N
CAS: 96-15-1
Molecular weight: 87
Origin: Japan AIST/NIMC Database- Spectrum MS-NW-3318
m/z	RELATIVE INTENSITY
15	40
26	30
27	269
28	319
29	339
30	9999
31	229
32	169
37	10
38	20
39	209
40	30
41	499
42	139
43	119
44	179
45	20
50	10
51	20
52	10
53	30
54	40
55	199
56	159
57	60
58	169
59	20
69	30
70	129
71	10
72	10
86	40
87	379
88	20
