Mass Spectrum: 2-Propanol, 1,3-dibromo-
Formula: C3 H6 Br2 O
CAS: 96-21-9
Molecular weight: 216
Origin: Japan AIST/NIMC Database- Spectrum MS-NW-4379
m/z	RELATIVE INTENSITY
12	10
13	40
14	229
15	1859
16	30
17	10
18	30
25	50
26	279
27	1149
28	119
29	969
30	50
31	909
32	10
36	40
37	119
38	219
39	809
40	80
41	219
42	609
43	5919
44	3289
45	99
53	20
55	80
56	10
57	519
58	70
61	10
79	139
80	119
81	159
82	129
83	20
87	10
91	50
92	70
93	689
94	299
95	649
96	229
97	50
104	10
105	99
106	70
107	159
108	80
109	70
110	10
111	20
117	10
119	119
120	20
121	179
122	619
123	9999
124	799
125	9159
126	229
127	30
128	10
135	80
136	60
137	179
138	60
139	80
141	10
142	10
201	10
215	10
216	99
217	20
218	189
219	10
220	99
