Mass Spectrum: 1-Butanol, 2-amino-
Formula: C4 H11 N O
CAS: 96-20-8
Molecular weight: 89
Origin: Japan AIST/NIMC Database- Spectrum MS-NW-9497
m/z	RELATIVE INTENSITY
14	10
15	169
17	10
18	30
26	50
27	259
28	719
29	269
30	1149
31	249
32	10
37	10
38	20
39	239
40	50
41	2959
42	1509
43	799
44	199
45	10
46	10
50	10
51	20
52	30
53	60
54	99
55	109
56	419
57	249
58	9999
59	499
60	2079
61	50
68	10
69	10
70	90
71	90
72	429
73	20
74	50
86	10
88	20
90	249
91	10
