Mass Spectrum: Monothioglycerol
Formula: C3 H8 O2 S
CAS: 96-27-5
Molecular weight: 108
Origin: NIST Mass Spectrometry Data Center
m/z	RELATIVE INTENSITY
13	10
14	80
15	1221
16	30
17	20
18	50
19	290
25	30
26	250
27	1021
29	2242
30	220
31	3363
32	240
33	420
34	240
35	290
36	30
37	80
38	110
39	290
40	30
41	110
42	911
43	6426
44	2392
45	2682
46	1021
47	3894
48	2622
49	971
50	130
51	30
53	40
54	20
55	300
56	210
57	4794
58	881
59	9999
60	1021
61	5415
62	490
63	90
64	20
65	10
68	10
69	50
71	140
72	480
73	100
74	110
75	40
76	641
77	4894
78	180
79	240
87	10
89	100
90	5795
91	270
92	290
93	10
108	20
110	10
