Mass Spectrum: Urea, N,N'-dimethyl-
Formula: C3 H8 N2 O
CAS: 96-31-1
Molecular weight: 88
Origin: Japan AIST/NIMC Database- Spectrum MS-NW-4955
m/z	RELATIVE INTENSITY
12	50
13	40
14	99
15	2249
16	60
18	20
26	99
27	919
28	3789
29	949
30	9999
31	4249
32	199
38	60
39	50
40	90
41	99
42	369
43	319
44	539
45	60
53	40
54	60
55	179
56	929
57	2279
58	4449
59	329
60	20
68	10
69	249
70	309
71	20
72	60
86	10
88	4949
89	229
90	10
