Mass Spectrum: Acetic acid, hydroxy-, methyl ester
Formula: C3 H6 O3
CAS: 96-35-5
Molecular weight: 90
Origin: Japan AIST/NIMC Database- Spectrum MS-IW-3840
m/z	RELATIVE INTENSITY
12	10
13	40
14	149
15	1129
16	30
18	20
26	10
27	20
28	409
29	2819
30	689
31	9999
32	639
33	2329
34	30
40	20
41	109
42	839
43	219
44	159
45	1119
46	40
47	10
56	60
57	10
58	99
59	5169
60	599
61	2359
62	639
63	40
72	30
73	319
74	409
75	199
89	30
90	1569
91	90
92	10
