Mass Spectrum: Cyclopentane, methyl-
Formula: C6 H12
CAS: 96-37-7
Molecular weight: 84
Origin: Japan AIST/NIMC Database- Spectrum MS-NW-1064
m/z	RELATIVE INTENSITY
14	20
15	70
26	119
27	999
28	99
29	719
30	20
31	10
37	40
38	119
39	1399
40	359
41	4949
42	2469
43	1119
44	30
49	10
50	109
51	149
52	60
53	279
54	319
55	2309
56	9999
57	609
58	10
61	20
62	20
63	30
65	70
66	30
67	229
68	409
69	3539
70	189
71	10
73	10
74	10
77	30
79	30
81	30
83	80
84	1749
85	119
86	20
