Mass Spectrum: Butyrolactone
Formula: C4 H6 O2
CAS: 96-48-0
Molecular weight: 86
Origin: NIST Mass Spectrometry Data Center, 1990.
m/z	RELATIVE INTENSITY
13	165
14	416
15	302
18	20
25	325
26	2051
27	4246
28	6790
29	4956
30	376
31	274
32	242
37	441
38	656
39	1980
40	1516
41	6107
42	9999
43	549
44	324
45	96
53	237
55	793
56	2280
57	504
85	665
86	2535
