Mass Spectrum: 1,3-Dioxolan-2-one
Formula: C3 H4 O3
CAS: 96-49-1
Molecular weight: 88
Origin: Japan AIST/NIMC Database- Spectrum MS-NW-4916
m/z	RELATIVE INTENSITY
12	40
13	99
14	579
15	3229
16	539
17	20
18	60
25	30
26	199
27	199
28	439
29	9999
30	1709
31	429
32	30
33	99
41	50
42	649
43	5439
44	1749
45	359
56	10
58	559
59	20
62	10
73	99
87	20
88	2549
89	119
90	20
