Mass Spectrum: Phenol, 4,4'-thiobis[2-(1,1-dimethylethyl)-6-methyl-
Formula: C22 H30 O2 S
CAS: 96-66-2
Molecular weight: 358
Origin: Japan AIST/NIMC Database- Spectrum MS-NW-8294
m/z	RELATIVE INTENSITY
27	50
28	50
29	129
39	129
40	20
41	379
42	10
43	70
45	70
50	10
51	50
52	20
53	80
55	70
56	60
57	619
58	30
59	159
63	20
65	70
66	10
67	60
69	30
71	20
73	10
76	10
77	179
78	50
79	90
80	10
81	10
83	10
85	20
89	20
90	10
91	229
92	40
93	40
94	10
95	20
97	40
99	10
100	10
101	10
102	20
103	70
104	30
105	139
106	20
107	70
108	90
109	40
110	10
111	50
112	10
113	10
114	10
115	209
116	60
117	149
118	80
119	119
120	40
121	139
122	40
123	50
124	10
125	10
126	10
127	60
128	189
129	219
130	139
131	70
132	40
133	90
134	50
135	109
136	1479
137	149
138	10
139	159
140	20
141	30
142	30
143	40
144	10
145	60
146	70
147	169
148	90
149	119
150	729
151	319
152	179
153	129
154	20
155	10
157	70
158	20
159	20
160	30
161	149
162	60
163	90
164	659
165	159
166	20
167	10
171	359
172	90
173	10
175	10
177	30
178	30
179	719
180	259
181	139
182	30
183	10
184	10
185	10
187	10
189	10
191	30
192	10
193	50
194	10
195	1249
196	219
197	90
198	20
199	10
201	10
202	10
203	10
205	10
207	10
208	10
209	10
210	10
211	20
212	10
213	10
214	20
215	10
216	10
217	10
219	10
221	20
222	10
223	10
224	10
225	20
226	20
227	20
228	20
229	20
230	20
231	20
235	10
236	10
237	10
238	20
239	20
240	10
241	20
242	10
243	30
244	30
245	30
246	50
247	10
251	10
252	10
253	20
254	30
255	20
256	10
257	40
258	10
259	40
260	10
267	20
268	10
269	30
270	10
271	20
272	10
273	10
278	10
283	10
285	30
286	20
287	269
288	50
289	20
295	10
299	20
300	10
301	30
302	249
303	50
304	20
309	10
311	20
313	10
315	259
316	60
317	20
325	40
326	50
327	40
329	50
341	10
342	50
343	1849
344	459
345	139
346	30
356	30
357	149
358	9999
359	2519
360	789
361	139
362	10
