Mass Spectrum: 4,4'-Methylenebis(6-tert-butyl-o-cresol)
Formula: C23 H32 O2
CAS: 96-65-1
Molecular weight: 340
Origin: NIST Mass Spectrometry Data Center, 1994
m/z	RELATIVE INTENSITY
16	24
17	46
18	127
28	85
29	246
32	19
39	296
41	1496
42	73
43	261
44	36
51	79
52	36
53	186
55	292
57	1364
58	77
63	48
65	209
66	48
67	143
69	146
76	43
77	527
78	131
79	263
80	46
82	35
83	52
89	83
91	900
92	151
93	118
95	36
101	42
102	83
103	214
104	131
105	810
106	137
107	117
108	64
112	56
115	583
116	168
117	233
118	124
119	311
120	133
121	641
122	69
123	40
127	2658
128	918
129	553
130	193
131	205
132	114
133	592
134	332
135	247
141	793
143	277
144	90
145	204
146	159
147	495
148	157
149	38
152	98
153	102
155	621
157	44
158	36
159	89
160	36
161	1874
162	255
163	193
164	55
165	205
166	88
167	61
169	33
171	35
175	133
177	3337
178	558
179	124
180	44
181	88
182	43
183	50
185	34
189	91
190	57
191	117
192	61
193	57
194	51
195	100
196	58
197	66
198	32
202	81
203	69
205	56
206	35
207	42
208	58
209	94
210	49
211	57
213	35
215	48
216	29
219	56
220	45
221	52
222	35
223	76
224	38
225	67
226	54
227	59
234	36
235	52
236	32
237	38
238	34
239	69
241	99
249	29
251	55
253	107
267	182
268	52
269	61
281	60
283	4306
284	943
285	111
293	40
297	433
298	81
307	67
308	27
309	147
310	45
323	228
325	9999
326	2491
327	353
328	45
340	6377
341	1681
342	215
