Mass Spectrum: Soman
Formula: C7 H16 F O2 P
CAS: 96-64-0
Molecular weight: 182
Origin: VERIFIN - Methodology B1-1979
m/z	RELATIVE INTENSITY
27	300
28	400
29	600
32	100
36	100
39	800
40	100
41	3703
42	200
43	1501
45	600
47	300
51	50
53	200
54	50
55	600
56	200
57	2101
58	70
67	200
68	60
69	4904
70	200
76	60
79	90
80	70
81	600
82	5004
83	1401
84	1000
85	900
98	600
99	8507
100	60
125	300
126	9999
127	400
