Mass Spectrum: (Diisopropylamino)ethanol
Formula: C8 H19 N O
CAS: 96-80-0
Molecular weight: 145
Origin: Japan AIST/NIMC Database- Spectrum MS-NW-2118
m/z	RELATIVE INTENSITY
15	289
16	10
17	99
18	359
26	70
27	1179
28	609
29	239
30	7749
31	219
32	40
37	20
38	40
39	529
40	109
41	1739
42	1729
43	2759
44	1859
45	529
46	10
51	10
52	20
53	30
54	149
55	149
56	1169
57	219
58	789
59	30
60	549
61	10
67	30
68	129
69	109
70	2929
71	299
72	6879
73	329
74	10
80	40
81	40
82	40
83	30
84	639
85	139
86	669
87	60
88	3339
89	159
90	10
94	10
95	30
96	20
98	139
99	50
100	229
101	40
102	789
103	50
108	10
110	20
112	199
113	60
114	9999
115	869
116	30
123	20
124	10
127	239
128	139
129	50
130	1609
131	119
144	109
145	469
146	50
