Mass Spectrum: Mepivacaine
Formula: C15 H22 N2 O
CAS: 96-88-8
Molecular weight: 246
Origin: NIST Mass Spectrometry Data Center, 1990.
m/z	RELATIVE INTENSITY
14	25
27	84
28	286
29	65
30	66
32	47
39	172
40	45
41	255
42	986
43	78
44	225
50	22
51	85
52	63
53	106
54	93
55	264
56	124
57	77
63	41
65	151
66	32
67	78
68	278
69	32
70	1650
71	87
77	352
78	99
79	129
80	66
81	55
82	107
83	41
84	72
89	28
91	238
92	65
93	53
94	83
95	28
96	413
97	28
98	9999
99	678
103	85
104	59
105	98
106	45
117	27
118	69
119	44
120	114
121	42
132	27
148	28
