Mass Spectrum: Picramic acid
Formula: C6 H5 N3 O5
CAS: 96-91-3
Molecular weight: 199
Origin: Japan AIST/NIMC Database- Spectrum MS-NW-1644
m/z	RELATIVE INTENSITY
14	10
15	20
16	10
25	10
26	80
27	109
28	819
29	99
30	979
32	10
36	10
37	149
38	319
39	469
40	189
41	649
42	119
43	50
44	959
45	50
46	50
48	20
49	129
50	909
51	2349
52	1559
53	889
54	719
55	99
56	20
57	60
60	20
61	119
62	329
63	139
64	339
65	339
66	409
67	289
68	389
69	469
70	40
71	20
73	20
74	20
75	99
76	479
77	549
78	1559
79	939
80	429
81	679
82	80
83	90
84	70
85	10
88	10
89	40
90	109
91	90
92	60
93	60
94	719
95	199
96	60
97	20
99	50
104	10
105	179
106	2299
107	1099
108	189
109	20
110	10
111	50
120	20
121	50
122	479
123	149
124	169
125	20
135	10
136	50
137	10
141	30
151	349
152	229
153	1259
154	109
155	20
156	10
169	70
182	509
183	129
184	10
198	30
199	9999
200	769
201	129
202	10
