Mass Spectrum: Benzenamine, 2,4-dinitro-N-phenyl-
Formula: C12 H9 N3 O4
CAS: 961-68-2
Molecular weight: 259
Origin: Japan AIST/NIMC Database- Spectrum MS-NW-4102
m/z	RELATIVE INTENSITY
16	10
17	10
18	20
26	30
27	119
28	199
29	10
30	379
32	10
37	60
38	209
39	509
40	50
41	40
42	10
43	10
44	40
46	80
49	20
50	419
51	1359
52	309
53	99
54	20
55	50
56	10
57	30
61	80
62	309
63	839
64	309
65	299
66	109
67	20
68	70
69	179
70	129
71	20
73	30
74	349
75	419
76	279
77	1769
78	399
79	60
80	30
81	90
82	119
83	80
84	20
85	10
86	60
87	119
88	159
89	329
90	229
91	99
92	119
93	159
94	70
95	10
97	10
98	30
99	40
100	40
101	119
102	169
103	169
104	80
105	20
106	30
107	10
109	20
110	20
111	30
112	30
113	229
114	269
115	309
116	149
117	209
118	40
119	30
120	20
121	20
125	40
126	109
127	249
128	399
129	179
130	80
131	70
132	10
133	20
134	10
137	80
138	179
139	1749
140	1199
141	229
142	80
143	60
144	30
145	20
146	10
149	10
150	10
151	30
152	119
153	149
154	979
155	499
156	319
157	279
158	40
159	40
163	20
164	319
165	339
166	3109
167	4129
168	1749
169	229
170	70
171	30
172	20
173	10
175	10
176	30
177	80
178	20
179	649
180	329
181	90
182	669
183	229
184	209
185	40
186	10
189	10
190	20
191	10
194	10
195	179
196	1179
197	189
198	40
199	10
200	20
201	20
202	60
203	10
204	10
205	109
206	10
211	20
212	879
213	349
214	499
215	70
216	10
225	339
226	159
227	30
228	80
229	149
230	99
231	20
241	40
242	579
243	179
244	20
257	10
258	50
259	9999
260	1459
261	189
262	20
