Mass Spectrum: o-Methoxybenzoic acid, octadecyl ester
Formula: C26 H44 O3
CAS: 96173-98-7
Molecular weight: 404
Origin: Zaikin V.G., TIPS RAS, Moscow, Russia
m/z	RELATIVE INTENSITY
26	30
27	90
29	200
36	50
37	10
38	40
39	120
40	30
41	561
42	130
43	841
44	140
45	10
50	50
51	80
52	20
53	50
54	100
55	751
56	220
57	601
58	20
62	10
63	60
64	70
65	70
66	30
67	170
68	120
69	440
70	160
71	240
72	10
73	20
74	10
75	10
76	60
77	761
78	120
79	180
80	20
81	110
82	120
83	290
84	90
85	130
90	10
91	40
92	290
93	60
94	140
95	70
96	110
97	200
98	50
99	20
104	30
105	581
106	160
107	100
108	70
109	40
110	20
111	80
112	20
113	10
118	20
119	30
120	200
121	220
122	90
123	2112
124	170
125	40
126	10
133	721
134	420
135	9999
136	861
137	100
138	40
139	30
140	10
147	10
149	10
150	10
151	480
152	4974
153	9489
154	791
155	80
163	10
165	20
177	10
179	70
180	90
181	10
191	20
193	30
194	90
195	10
221	70
222	10
252	10
267	10
277	20
282	30
283	20
291	10
305	10
319	10
333	10
341	10
347	10
355	10
361	10
375	10
376	10
404	530
405	150
406	20
