Mass Spectrum: Diazoxon
Formula: C12 H21 N2 O4 P
CAS: 962-58-3
Molecular weight: 288
Origin: MASS SPEC DATA COMPILATION OF PEST. AND IND. CHEMICALS, T. CAIRNS, FDA, USA
m/z	RELATIVE INTENSITY
40	1090
41	3430
42	5100
43	3380
44	490
47	210
51	200
52	550
53	440
54	3350
55	1050
56	290
64	200
65	420
66	1430
67	1020
68	2210
69	1330
70	820
81	1400
82	1350
83	1300
84	4800
85	330
91	290
93	1450
94	200
96	230
99	450
108	330
109	1960
110	1520
111	670
119	1020
120	200
123	250
124	2020
125	280
133	780
134	2370
135	910
136	510
137	9999
138	1630
147	210
150	230
151	3940
152	5620
153	760
162	890
163	240
165	330
199	200
204	250
215	650
217	1430
218	240
231	260
232	230
243	340
244	200
245	940
246	550
259	270
260	1860
261	350
273	7670
274	1860
275	200
287	1040
288	4070
289	950
