Mass Spectrum: Demoxepam
Formula: C15 H11 Cl N2 O2
CAS: 963-39-3
Molecular weight: 286
Origin: Shen K. Yang, Dept. of Pharmacology., USUHS, Bethesda, MD 20814
m/z	RELATIVE INTENSITY
41	372
42	1470
43	371
44	306
45	51
46	197
47	240
48	114
49	1297
50	1702
51	4704
52	1163
53	299
54	130
55	188
56	128
57	110
59	4
60	53
61	334
62	1259
63	2750
64	686
65	915
66	178
67	117
68	157
69	600
71	362
72	112
73	572
74	1339
75	3293
76	3150
77	7070
78	801
79	318
80	155
81	351
82	636
83	230
84	998
85	238
86	1009
87	909
88	620
89	2550
90	905
91	1130
92	192
93	251
94	213
95	276
97	1239
98	780
99	831
100	731
101	707
102	1586
103	1318
104	670
105	1883
107	2197
108	242
109	110
110	365
111	1121
112	437
113	575
114	599
115	630
116	461
117	232
118	64
120	373
121	215
122	136
123	314
124	913
125	626
126	1320
127	545
128	332
129	306
130	158
131	14
132	108
133	28
134	67
135	78
136	219
137	307
138	755
139	743
140	564
141	147
142	55
143	42
144	29
145	20
146	10
147	50
148	20
149	280
150	1646
151	2273
152	2363
153	570
154	187
155	73
156	33
157	14
158	187
159	24
160	39
161	75
162	150
163	714
164	547
165	1121
166	1075
167	909
168	352
169	63
170	36
171	9
173	60
174	81
175	169
176	445
177	1438
178	1289
179	1372
180	677
181	174
182	133
183	28
184	16
185	25
186	250
187	71
188	161
189	116
190	210
191	253
192	377
193	472
194	300
195	385
196	93
197	34
198	26
199	106
200	101
201	240
202	267
203	397
204	225
205	1807
206	719
207	395
208	123
209	34
211	35
212	146
213	425
214	807
215	515
216	334
217	142
218	54
219	31
220	34
221	1936
222	645
223	251
224	98
225	9
226	100
227	172
228	260
229	722
230	418
231	394
232	190
233	250
234	386
235	226
236	35
237	20
238	75
239	642
240	418
241	2342
242	1312
243	944
244	410
245	130
246	21
247	15
249	62
250	169
251	1696
252	252
253	45
255	562
256	369
257	1999
258	364
259	752
260	153
261	33
267	158
268	260
269	2787
270	1209
271	1068
272	370
273	65
274	10
282	6
283	28
285	9999
286	9493
287	4673
288	3077
289	519
290	58
