Mass Spectrum: trans-2-Methyl-4-hexen-3-ol
Formula: C7 H14 O
CAS: 96346-76-8
Molecular weight: 114
Origin: NIST Mass Spectrometry Data Center, 1990.
m/z	RELATIVE INTENSITY
15	181
26	134
27	1358
28	695
29	577
31	286
32	122
38	176
39	1522
40	251
41	2338
42	383
43	3589
44	172
45	144
50	127
51	197
52	104
53	1128
54	158
55	533
56	104
57	307
67	176
69	489
71	9999
72	496
73	89
77	124
79	284
81	485
96	150
99	130
114	231
