Mass Spectrum: L-Asparagine, 3TBDMS derivative
Formula: C22 H50 N2 O3 Si3
CAS: 96381-41-8
Molecular weight: 474
Origin: J.M. Halket, Trace Anal. Unit (TAU), London, UK
m/z	RELATIVE INTENSITY
39	140
40	10
41	600
42	90
43	180
44	130
45	480
46	60
47	160
53	10
54	30
55	100
56	140
57	620
58	260
59	840
60	130
61	90
69	30
70	60
71	40
73	9999
74	1320
75	2200
76	160
77	60
83	10
84	40
85	90
86	100
87	70
88	30
97	20
98	70
99	170
100	480
101	110
102	140
103	150
104	20
105	10
112	10
113	30
115	690
116	1030
117	280
118	110
119	70
125	60
126	30
127	40
128	390
129	110
130	300
131	180
132	370
133	580
134	120
135	60
142	130
143	80
144	250
145	60
147	1650
148	360
149	410
150	50
151	20
155	10
156	230
157	10
158	970
159	180
160	180
161	40
162	30
170	10
171	20
172	90
173	110
174	840
175	140
176	70
177	30
183	140
184	50
185	20
186	40
187	20
188	120
189	320
190	90
191	30
199	40
200	30
201	50
202	110
203	40
204	140
205	50
206	40
207	40
211	20
216	30
217	40
218	30
221	10
227	10
228	20
229	10
230	260
231	70
232	420
233	90
234	30
244	610
245	300
246	110
247	30
248	50
257	320
258	160
259	100
260	40
262	40
270	20
272	150
273	30
274	20
283	50
284	10
285	230
286	190
287	80
288	40
297	30
300	30
302	920
303	250
304	90
305	20
315	330
316	110
317	50
326	110
327	90
328	30
342	40
343	70
344	20
346	20
376	20
389	10
400	380
401	140
402	60
403	20
417	3860
418	1370
419	610
420	150
421	30
459	100
460	40
461	10
474	40
475	10
