Mass Spectrum: L-Glutamine, 3TBDMS derivative
Formula: C23 H52 N2 O3 Si3
CAS: 96381-42-9
Molecular weight: 488
Origin: NIST Mass Spectrometry Data Center
m/z	RELATIVE INTENSITY
26	10
27	40
29	160
30	10
31	20
36	10
37	10
38	10
39	130
40	30
41	440
42	70
43	140
44	40
45	480
46	50
47	230
48	10
49	10
50	10
51	10
52	10
53	30
54	70
55	160
56	460
57	601
58	280
59	1091
60	170
61	160
62	10
63	10
65	10
66	20
67	20
68	30
69	20
70	40
71	20
72	170
73	9999
74	1311
75	3974
76	280
77	160
78	10
79	10
80	10
81	10
82	20
83	370
84	220
85	170
86	90
87	60
88	40
89	20
92	10
93	50
94	30
95	30
96	20
97	30
98	110
99	260
100	651
101	190
102	120
103	250
104	40
105	30
107	20
108	10
109	10
110	20
111	40
112	110
113	60
114	260
115	901
116	270
117	500
118	110
119	100
120	10
121	20
124	30
125	10
126	30
127	30
128	701
129	170
130	210
131	240
132	550
133	981
134	180
135	100
136	10
137	10
138	10
139	320
140	120
141	80
142	1141
143	180
144	150
145	50
146	170
147	2833
148	721
149	971
150	150
151	70
152	20
153	10
154	20
155	50
156	140
157	130
158	190
159	90
160	190
161	40
162	30
163	10
165	10
167	60
168	280
169	60
170	330
171	70
172	100
173	140
174	200
175	80
176	30
177	20
178	10
181	40
182	40
183	10
184	70
185	60
186	80
187	60
188	70
189	230
190	90
191	40
192	10
193	10
195	10
197	1051
198	1371
199	240
200	90
201	30
202	50
203	20
204	10
205	20
206	20
207	30
208	10
209	10
210	10
212	10
213	40
214	150
215	60
216	50
217	10
218	20
219	10
221	30
222	10
223	10
225	20
226	10
227	10
228	10
229	10
230	210
231	90
232	50
233	10
234	10
235	10
241	40
242	50
243	20
244	40
245	120
246	90
247	30
248	10
253	30
254	10
255	30
256	30
257	10
258	240
259	120
260	50
261	10
271	1541
272	611
273	220
274	70
275	10
281	20
282	10
283	20
284	20
285	10
287	10
288	10
289	10
290	30
291	10
297	10
299	851
300	300
301	130
302	140
303	80
304	20
305	10
311	120
312	40
313	50
314	20
315	10
316	90
317	40
318	10
327	30
329	1331
330	370
331	140
332	40
333	10
339	30
340	20
341	130
342	70
343	20
344	10
345	10
355	10
356	30
357	841
358	250
359	100
360	30
361	10
373	10
374	10
385	420
386	160
387	70
388	20
403	20
404	10
413	100
414	30
415	40
416	10
417	10
429	10
431	5005
432	1872
433	851
434	200
435	50
436	10
455	20
456	10
470	10
471	10
473	210
474	80
475	40
476	10
488	110
489	40
490	20
