Mass Spectrum: Pyridaben
Formula: C19 H25 Cl N2 O S
CAS: 96489-71-3
Molecular weight: 364
Origin: Richard Turcotte. Direction des laboratoires d'expertises et d'analyses alimentaires, Quebec, Canada.
m/z	RELATIVE INTENSITY
51	20
53	30
55	100
56	90
57	460
63	20
65	50
69	30
77	70
78	40
79	50
89	60
90	30
91	450
92	50
93	30
102	20
103	70
104	150
105	460
106	50
107	100
115	330
116	140
117	1181
118	130
119	420
120	40
121	20
123	20
127	40
128	70
129	80
130	30
131	530
132	1051
133	190
134	30
135	20
145	160
147	9999
148	1271
149	120
159	20
161	20
162	50
163	50
164	40
165	20
217	20
257	20
273	20
293	60
295	20
308	230
309	631
310	190
311	240
312	40
364	540
365	120
366	210
367	40
