Mass Spectrum: N-Trifluoroacetyl-2-octylamine
Formula: C10 H18 F3 N O
CAS: 96592-05-1
Molecular weight: 225
Origin: NIST Mass Spectrometry Data Center, 2010
m/z	RELATIVE INTENSITY
15	10
26	10
27	150
28	150
29	190
30	10
38	10
39	150
40	40
41	550
42	240
43	340
44	90
45	160
46	10
47	70
50	10
51	20
52	10
53	60
54	50
55	651
56	240
57	190
58	10
59	10
63	10
65	20
66	60
67	60
68	50
69	651
70	520
71	140
72	150
73	10
74	20
77	10
78	50
79	10
81	20
82	40
83	170
84	120
85	10
86	10
90	10
92	160
93	110
94	40
95	10
96	40
97	320
98	40
100	10
104	10
106	10
110	20
111	20
112	210
113	230
114	260
120	10
121	20
122	10
124	10
126	220
127	10
132	10
138	30
139	240
140	9999
141	1421
142	120
143	10
150	30
152	50
153	10
154	40
155	110
156	1521
157	160
158	10
164	10
166	10
168	180
169	40
170	10
182	300
183	120
184	10
192	10
196	50
197	10
210	731
211	70
212	10
224	10
225	30
226	10
