Mass Spectrum: Petroselinic acid, TMS derivative
Formula: C21 H42 O2 Si
CAS: 96851-53-5
Molecular weight: 354
Origin: NIST Mass Spectrometry Data Center
m/z	RELATIVE INTENSITY
15	10
26	10
27	180
28	50
29	540
30	10
31	10
38	10
39	270
40	60
41	2022
42	350
43	2412
44	150
45	500
46	30
47	260
48	10
49	10
50	10
51	20
52	20
53	280
54	681
55	2893
56	500
57	1141
58	150
59	170
60	70
61	380
62	30
63	20
65	110
66	110
67	1621
68	651
69	1101
70	240
71	300
72	350
73	6496
74	701
75	5455
76	400
77	390
78	80
79	761
80	470
81	1501
82	791
83	1001
84	2112
85	400
86	100
87	60
88	70
89	200
90	40
91	300
92	100
93	420
94	300
95	1471
96	2182
97	1291
98	1041
99	270
100	30
101	120
102	20
103	60
104	10
105	180
106	70
107	200
108	160
109	701
110	941
111	510
112	190
113	60
114	20
115	90
116	931
117	9999
118	991
119	591
120	90
121	230
122	90
123	811
124	360
125	200
126	50
127	40
129	4384
130	651
131	561
132	1181
133	450
134	200
135	140
136	50
137	380
138	280
139	80
140	30
141	60
142	120
143	210
145	2052
146	260
147	170
148	80
149	60
150	40
151	210
152	290
153	70
154	30
155	581
156	140
157	180
158	70
159	260
160	40
161	50
162	20
163	20
164	40
165	110
166	210
167	70
168	40
169	310
170	100
171	340
172	110
173	150
174	40
175	30
176	10
177	10
178	10
179	70
180	611
181	130
182	20
183	240
184	50
185	691
186	170
187	110
188	40
189	20
191	10
192	10
193	60
194	70
195	20
196	10
197	70
199	611
200	110
201	110
202	20
203	10
205	10
206	10
207	50
208	30
209	30
210	10
211	50
212	10
213	120
214	30
215	30
216	10
217	10
220	120
221	120
222	931
223	180
224	20
225	20
226	10
227	90
228	20
229	30
230	10
235	70
236	110
237	20
239	20
241	70
242	20
243	30
244	10
245	10
246	50
247	20
249	10
253	10
255	50
256	10
257	70
258	30
259	10
263	10
264	601
265	120
266	10
267	10
269	20
270	10
271	40
272	60
273	10
281	10
283	20
285	10
286	40
287	10
295	50
296	20
297	30
298	10
299	30
300	10
309	10
311	70
312	20
313	20
321	20
323	10
325	20
326	10
337	10
339	2492
340	681
341	180
342	30
353	10
354	370
355	100
356	30
357	10
