Mass Spectrum: 3-Methyl-N-naphthalen-1-yl-benzamide
Formula: C18 H15 N O
CAS: 96963-49-4
Molecular weight: 261
Origin: Zaikin V.G., TIPS RAS, Moscow, Russia
m/z	RELATIVE INTENSITY
28	10
39	90
41	40
50	30
51	50
63	100
64	30
65	540
66	30
77	30
88	30
89	200
90	150
91	2923
92	240
113	50
114	90
115	721
116	140
118	40
119	9999
120	721
121	40
127	40
140	110
141	70
142	60
143	340
144	190
217	30
260	30
261	4604
262	821
263	80
