Mass Spectrum: Benzoic acid, 2-hydroxy-5-sulfo-
Formula: C7 H6 O6 S
CAS: 97-05-2
Molecular weight: 218
Origin: Japan AIST/NIMC Database- Spectrum MS-NW-9015
m/z	RELATIVE INTENSITY
26	40
27	159
28	519
29	70
31	50
32	109
34	10
36	10
37	90
38	199
39	569
40	30
41	50
42	40
43	20
44	419
45	229
46	50
48	119
49	30
50	139
51	389
52	309
53	749
54	90
55	179
56	10
57	20
58	10
60	20
61	149
62	509
63	1319
64	459
65	239
66	80
67	30
68	30
69	169
70	30
71	50
73	20
74	80
75	80
76	10
77	50
78	20
79	1319
80	679
81	409
82	50
83	50
84	10
85	10
89	10
90	119
91	659
92	699
93	109
94	30
95	60
96	40
97	40
98	10
99	30
105	20
107	1689
108	569
109	189
110	40
111	20
118	30
119	139
120	439
121	50
123	10
124	10
125	60
126	10
127	10
128	10
135	249
136	40
137	129
138	209
139	30
151	20
152	50
153	30
155	379
156	30
157	40
167	99
168	20
170	20
172	2919
173	239
174	249
175	10
183	70
184	40
185	10
200	9999
201	1089
202	599
203	60
204	10
218	2839
219	259
220	169
221	10
