Mass Spectrum: Benzenamine, 2,4-dinitro-
Formula: C6 H5 N3 O4
CAS: 97-02-9
Molecular weight: 183
Origin: Japan AIST/NIMC Database- Spectrum MS-NW- 791
m/z	RELATIVE INTENSITY
14	10
16	10
17	10
18	30
26	50
27	90
28	109
29	40
30	449
32	30
36	10
37	169
38	349
39	589
40	259
41	689
42	80
43	40
44	169
45	10
46	50
49	40
50	229
51	439
52	2499
53	379
54	119
55	60
56	20
57	40
60	30
61	239
62	669
63	1459
64	1639
65	569
66	379
67	159
68	50
69	70
70	20
71	20
73	30
74	99
75	119
76	189
77	149
78	369
79	899
80	179
81	40
82	20
83	20
85	10
86	10
87	30
88	80
89	289
90	649
91	4219
92	629
93	249
94	40
95	159
96	20
97	20
98	10
103	80
104	20
105	50
106	149
107	1279
108	99
109	20
111	10
119	40
120	80
121	30
122	10
123	20
129	10
135	10
136	30
137	799
138	60
153	1749
154	129
155	20
165	10
166	50
167	249
168	20
177	10
182	30
183	9999
184	769
185	109
