Mass Spectrum: Bithionol
Formula: C12 H6 Cl4 O2 S
CAS: 97-18-7
Molecular weight: 354
Origin: Japan AIST/NIMC Database- Spectrum MS-NW-4302
m/z	RELATIVE INTENSITY
17	10
18	30
26	10
27	10
28	99
29	20
32	20
35	60
36	459
37	80
38	139
39	50
41	30
43	20
44	30
45	339
46	10
47	50
48	10
49	50
50	119
51	99
52	10
53	239
54	10
55	20
57	20
58	10
60	40
61	189
62	429
63	579
64	30
65	20
66	30
68	10
69	419
70	40
71	50
72	80
73	299
74	70
75	99
76	10
77	40
78	40
79	509
80	10
81	189
82	30
83	70
84	50
85	139
86	40
87	80
88	10
89	30
90	50
91	60
92	40
93	249
94	109
95	299
96	149
97	669
98	369
99	289
100	129
101	40
102	10
103	90
104	20
105	90
106	40
107	109
108	30
109	70
110	40
111	40
112	10
113	99
114	60
115	40
116	20
117	20
118	10
119	20
120	20
121	60
122	30
123	70
124	40
125	60
126	339
127	109
128	209
129	979
130	219
131	449
132	149
133	419
134	99
135	229
136	40
137	40
138	10
139	10
141	70
142	189
143	119
144	40
145	30
146	20
147	40
148	20
149	90
150	20
151	50
152	10
153	20
154	10
155	20
156	70
157	269
158	99
159	259
160	189
161	329
162	9999
163	839
164	6879
165	939
166	1399
167	439
168	119
169	90
170	20
171	10
172	10
176	20
177	60
178	90
179	50
180	30
181	10
182	20
183	30
184	10
185	30
186	20
187	10
188	10
189	30
190	30
191	70
192	169
193	1199
194	249
195	829
196	159
197	179
198	50
199	20
200	10
201	10
202	10
203	40
204	20
205	60
206	10
207	30
208	10
209	10
210	10
211	10
212	10
213	10
214	10
215	10
217	10
218	10
219	30
220	70
221	219
222	60
223	119
224	30
225	40
226	60
227	30
228	50
229	30
230	30
231	20
232	10
233	10
235	10
237	20
238	20
239	40
240	20
241	30
242	10
243	10
247	10
248	20
249	60
250	20
251	50
252	20
253	20
254	50
255	329
256	129
257	249
258	80
259	80
260	30
261	20
266	20
267	10
268	10
269	10
273	30
274	10
275	40
276	10
277	10
283	129
284	429
285	159
286	369
287	90
288	129
289	70
290	40
291	90
292	20
293	50
294	10
295	20
301	10
302	20
303	10
304	30
305	10
306	10
318	249
319	70
320	269
321	70
322	119
323	30
324	20
325	10
336	10
338	10
340	10
353	10
354	1989
355	279
356	2439
357	349
358	1319
359	189
360	319
361	50
362	40
