Mass Spectrum: Phenol, 2,4-dichloro-, benzenesulfonate
Formula: C12 H8 Cl2 O3 S
CAS: 97-16-5
Molecular weight: 302
Origin: S.M. Lee, CA Export Lab. Services, CA, USA
m/z	RELATIVE INTENSITY
51	3283
52	170
53	140
54	10
57	20
58	10
59	10
60	50
61	310
62	701
63	1621
64	140
65	130
66	20
67	10
68	10
69	80
70	20
71	70
72	290
73	1081
74	440
75	581
76	280
77	9999
78	671
79	40
80	10
81	30
82	30
83	370
84	40
85	260
86	30
87	60
88	10
89	40
90	10
91	20
92	10
93	10
94	10
95	30
96	70
97	731
98	260
99	210
100	90
101	20
102	10
106	30
107	300
108	50
109	280
110	40
111	60
112	20
113	20
114	30
115	40
116	10
125	220
126	80
127	20
128	20
129	10
133	2312
134	140
135	1431
136	90
137	240
138	40
139	350
141	6876
142	510
143	350
144	20
145	20
146	10
147	20
148	10
149	90
150	10
151	30
152	10
153	10
161	821
162	180
163	540
164	100
165	100
166	20
167	30
168	500
169	70
170	10
173	20
175	240
176	30
177	70
178	10
179	10
202	80
203	20
204	30
205	10
206	10
302	2122
303	310
304	1461
305	210
306	290
307	40
308	10
309	10
