Mass Spectrum: .alpha.-D-Glucopyranoside, methyl
Formula: C7 H14 O6
CAS: 97-30-3
Molecular weight: 194
Origin: Japan AIST/NIMC Database- Spectrum MS-NW- 635
m/z	RELATIVE INTENSITY
12	10
13	10
14	119
15	1259
16	20
17	109
18	459
19	109
26	129
27	869
28	669
29	1679
30	229
31	2459
32	129
33	919
37	10
38	40
39	349
40	80
41	769
42	809
43	1799
44	739
45	1959
46	80
47	149
49	10
50	20
51	30
52	20
53	119
54	139
55	779
56	1239
57	4329
58	239
59	909
60	9999
61	4169
62	159
63	20
67	20
68	90
69	909
70	739
71	1859
72	309
73	5129
74	6719
75	1199
76	60
77	20
78	30
79	30
80	20
81	80
82	20
83	80
84	50
85	879
86	249
87	839
88	80
89	119
90	10
91	139
94	10
95	10
96	20
97	589
98	779
99	229
100	30
101	109
102	30
103	299
104	259
105	40
109	30
113	30
114	30
115	60
116	559
117	80
120	40
121	179
122	10
126	20
127	159
128	10
129	10
130	50
131	469
132	30
133	80
134	20
144	359
145	439
146	30
163	149
164	10
