Mass Spectrum: Guanidine, N,N'-bis(2-methylphenyl)-
Formula: C15 H17 N3
CAS: 97-39-2
Molecular weight: 239
Origin: NIST Mass Spectrometry Data Center, 1998.
m/z	RELATIVE INTENSITY
26	10
27	90
28	110
29	20
30	90
37	10
38	50
39	550
40	60
41	190
42	50
43	170
50	150
51	500
52	280
53	200
54	60
55	20
60	40
61	10
62	60
63	350
64	160
65	1820
66	160
67	40
68	10
74	20
75	50
76	90
77	1080
78	540
79	510
80	130
81	20
86	10
87	10
88	20
89	530
90	290
91	1920
92	210
93	80
94	30
97	10
98	10
99	10
102	40
103	50
104	600
105	170
106	3960
107	9999
108	870
109	40
110	10
111	30
112	10
114	10
115	30
116	790
117	200
121	20
127	10
128	10
129	20
130	30
131	400
132	380
133	1230
134	150
135	10
139	10
141	10
145	10
146	120
147	50
148	110
149	10
151	10
152	20
153	10
154	10
165	20
166	10
167	20
168	10
169	10
177	10
178	20
179	20
180	100
181	40
182	30
183	10
192	10
193	10
194	40
195	20
196	20
197	20
198	10
204	10
205	40
206	40
207	70
208	40
209	10
214	10
219	20
220	30
221	80
222	120
223	60
224	1400
225	230
226	20
236	20
237	20
238	590
239	3090
240	540
241	40
