Mass Spectrum: 2-Methoxyaniline-5-sulfonic acid diethylamide
Formula: C11 H18 N2 O3 S
CAS: 97-35-8
Molecular weight: 258
Origin: NIST Mass Spectrometry Data Center, 1994
m/z	RELATIVE INTENSITY
14	9
15	163
18	18
26	60
27	451
28	805
29	1041
30	164
38	52
39	224
40	67
41	313
42	858
43	88
44	596
45	53
48	22
50	112
51	531
52	1144
53	427
54	164
55	94
56	290
57	69
58	295
62	63
63	214
64	279
65	806
66	164
67	582
68	76
69	33
70	81
71	33
72	4918
73	277
74	52
77	1093
78	674
79	1195
80	539
81	47
82	32
83	29
84	47
90	183
91	204
92	787
93	466
94	322
95	168
96	49
99	49
104	35
105	51
106	192
107	531
108	1659
109	128
110	120
111	52
119	27
120	106
122	9999
123	2497
124	254
134	23
135	77
136	96
137	34
138	252
139	129
149	29
151	34
155	262
156	35
170	238
172	33
179	238
180	39
186	4721
187	580
188	288
189	35
214	172
243	904
244	108
245	57
258	3320
259	468
260	199
261	33
