Mass Spectrum: 2-Cyclohexen-1-ol, 2-methyl-5-(1-methylethenyl)-, propanoate
Formula: C13 H20 O2
CAS: 97-45-0
Molecular weight: 208
Origin: NIST Mass Spectrometry Data Center, 1992
m/z	RELATIVE INTENSITY
12	9
13	15
14	39
15	148
16	7
17	57
18	271
19	13
26	272
27	2435
28	1048
29	6057
30	185
31	68
37	26
39	2382
40	485
41	2885
42	291
43	853
44	46
45	159
46	10
47	7
50	149
51	601
52	310
53	1312
54	339
55	1696
56	7
57	9999
58	343
59	74
60	8
61	14
62	56
63	211
64	7
65	848
66	305
67	979
68	441
69	384
70	35
71	92
72	47
73	68
74	110
75	143
76	8
77	1921
78	599
79	1849
80	731
81	643
82	386
83	447
84	2261
85	130
86	34
87	14
89	121
91	4353
92	2074
93	2156
94	464
95	406
96	426
97	283
98	30
99	8
100	22
102	72
103	259
105	1861
106	867
107	1109
108	1159
109	4998
110	481
111	105
112	20
115	275
116	100
117	614
118	20
119	5780
120	563
121	93
122	103
123	356
124	159
125	21
126	8
127	15
128	26
129	17
131	49
132	97
133	394
134	2284
135	330
136	8
137	394
138	56
139	66
140	151
141	16
152	3250
153	322
154	24
164	176
165	713
166	84
167	12
179	12
208	13
