Mass Spectrum: Ethyl chrysanthemate
Formula: C12 H20 O2
CAS: 97-41-6
Molecular weight: 196
Origin: NIST Mass Spectrometry Data Center, 1994
m/z	RELATIVE INTENSITY
15	716
16	40
17	31
18	55
27	4201
28	954
29	6418
30	232
31	285
39	3564
40	703
41	5905
42	451
43	4271
44	191
45	275
46	31
50	190
51	710
52	322
53	1883
54	269
55	2080
56	202
57	1065
58	85
59	516
60	39
62	46
63	216
65	998
66	347
67	2346
68	259
69	1752
70	130
71	79
72	19
73	38
74	21
75	24
77	1362
79	2139
81	8566
82	742
83	578
84	69
85	196
86	23
87	122
88	31
89	34
90	21
91	1858
92	263
93	1226
94	23
95	1658
96	180
97	201
98	56
99	54
100	269
101	46
102	21
103	68
104	21
105	466
106	21
107	2090
108	530
109	521
110	97
111	258
112	135
113	122
115	15
116	22
117	23
119	46
121	412
123	9999
124	956
125	446
126	64
128	212
129	22
133	30
135	222
136	35
137	34
139	111
140	20
141	17
151	751
153	658
154	73
167	29
168	22
181	317
182	34
196	847
197	121
