Mass Spectrum: Benzenamine, 2-methyl-4-[(2-methylphenyl)azo]-
Formula: C14 H15 N3
CAS: 97-56-3
Molecular weight: 225
Origin: Japan AIST/NIMC Database- Spectrum MS-NW-5853
m/z	RELATIVE INTENSITY
15	10
17	20
18	109
26	20
27	109
28	239
29	30
30	109
31	30
32	20
37	10
38	60
39	519
40	50
41	189
42	90
43	10
50	90
51	319
52	249
53	239
54	139
55	30
56	10
59	10
61	10
62	40
63	199
64	80
65	839
66	199
67	60
68	30
74	20
75	40
76	60
77	1189
78	359
79	1349
80	189
81	20
84	10
88	10
89	139
90	70
91	1959
92	199
93	80
94	50
102	20
103	30
104	289
105	219
106	9999
107	989
108	60
112	139
113	30
115	40
116	10
117	20
118	30
119	149
120	60
121	90
122	60
127	20
128	40
129	30
130	30
131	20
132	20
133	20
134	2229
135	209
136	10
139	10
141	40
142	10
143	20
144	20
152	30
153	40
154	30
155	20
156	20
164	10
165	109
166	40
167	90
168	30
169	20
170	20
178	50
179	60
180	169
181	179
182	129
183	30
184	20
192	10
193	10
194	30
195	30
196	90
197	60
198	10
206	10
207	30
208	60
209	249
210	199
211	30
222	10
223	30
224	739
225	6619
226	1109
227	90
