Mass Spectrum: Propanoic acid, 2-methyl-, ethyl ester
Formula: C6 H12 O2
CAS: 97-62-1
Molecular weight: 116
Origin: Japan AIST/NIMC Database- Spectrum MS-NW- 444
m/z	RELATIVE INTENSITY
14	30
15	219
17	10
18	30
25	20
26	329
27	1949
28	409
29	4139
30	99
31	139
37	30
38	70
39	559
40	139
41	2149
42	1309
43	9999
44	329
45	979
46	30
47	50
50	30
51	70
52	119
53	129
54	20
55	40
56	80
57	169
58	20
59	60
60	40
63	10
65	20
67	20
68	10
69	20
70	70
71	4309
72	199
73	729
74	30
75	10
77	20
78	80
84	40
85	20
86	10
87	40
88	899
89	599
90	30
97	80
98	80
99	20
100	10
101	199
102	10
116	1409
117	99
