Mass Spectrum: Methacrylic acid, ethyl ester
Formula: C6 H10 O2
CAS: 97-63-2
Molecular weight: 114
Origin: NIST Mass Spectrometry Data Center, 2011
m/z	RELATIVE INTENSITY
14	10
15	80
19	10
25	10
26	160
27	681
28	100
29	1461
36	10
37	120
38	320
39	2783
40	721
41	5825
42	571
43	310
45	701
50	10
53	120
54	30
55	280
56	30
57	130
58	330
59	60
60	30
66	10
67	40
68	711
69	9999
70	811
71	290
81	30
85	190
86	1702
87	220
88	20
95	30
96	320
97	50
99	2132
100	120
101	10
113	200
114	591
115	50
