Mass Spectrum: Bis(dimethylthiocarbamyl) sulfide
Formula: C6 H12 N2 S3
CAS: 97-74-5
Molecular weight: 208
Origin: Tox21 Consortium/NIST Mass Spectrometry Data Center, 2012
m/z	RELATIVE INTENSITY
14	10
15	90
18	50
26	10
27	30
28	130
29	30
30	40
32	20
33	10
38	10
39	10
40	50
41	70
42	961
43	180
44	681
45	290
46	60
47	280
48	10
49	10
52	10
54	20
55	20
56	400
57	30
58	30
59	40
60	10
61	140
63	10
64	100
66	10
70	30
71	20
72	470
73	1101
74	130
75	50
76	220
77	400
78	40
79	40
88	9999
89	540
90	470
91	30
104	90
105	40
120	190
121	30
122	10
152	10
178	10
208	851
209	80
210	110
211	10
212	10
