Mass Spectrum: Citronellyl isobutyrate
Formula: C14 H26 O2
CAS: 97-89-2
Molecular weight: 226
Origin: NIST Mass Spectrometry Data Center
m/z	RELATIVE INTENSITY
26	20
27	430
28	120
29	120
31	70
39	400
40	90
41	5175
42	771
43	5645
44	240
45	90
53	220
54	250
55	2572
56	1011
58	20
59	90
61	10
67	4614
68	3263
69	8708
70	1041
71	3793
72	220
73	110
81	8558
82	7537
83	1521
85	70
87	20
88	30
89	611
90	10
95	8688
96	2012
97	330
98	30
99	100
100	60
101	20
109	3934
110	961
111	80
113	60
123	9999
124	901
125	90
137	130
138	5525
139	631
140	30
155	40
