Mass Spectrum: Ethane, 2-chloro-1,1-dimethoxy-
Formula: C4 H9 Cl O2
CAS: 97-97-2
Molecular weight: 124
Origin: Japan AIST/NIMC Database- Spectrum MS-NW-4365
m/z	RELATIVE INTENSITY
13	20
14	109
15	1299
16	10
18	20
25	20
26	139
27	499
28	60
29	929
30	99
31	1559
32	50
33	30
35	20
36	50
37	10
38	20
41	30
42	289
43	4869
44	129
45	359
46	10
47	1439
48	90
49	829
50	149
51	269
52	40
53	10
57	139
58	219
59	109
60	20
61	80
62	50
63	169
64	20
65	50
73	70
74	30
75	9999
76	359
77	129
78	70
79	50
80	20
89	10
92	139
93	5649
94	229
95	1829
96	60
123	80
125	30
