Mass Spectrum: Borane, triethyl-
Formula: C6 H15 B
CAS: 97-94-9
Molecular weight: 98
Origin: CCC 0014
m/z	RELATIVE INTENSITY
2	30
10	30
11	120
12	80
13	280
14	40
15	220
16	10
23	10
24	20
25	90
26	781
27	2272
28	210
29	270
30	10
31	10
32	10
34	10
35	20
36	320
37	1161
38	651
39	2122
40	3143
41	9999
42	230
43	10
44	10
45	10
47	10
48	30
49	130
50	250
51	270
52	190
53	561
54	140
55	110
56	10
57	20
58	10
59	10
60	30
61	70
62	20
63	50
64	30
65	50
66	40
67	110
68	1722
69	6826
70	230
71	10
72	10
73	10
74	10
75	10
76	10
77	10
79	10
80	10
81	10
82	10
83	10
84	10
85	10
96	10
97	90
98	370
99	20
100	10
