Mass Spectrum: Butanal, 2-ethyl-
Formula: C6 H12 O
CAS: 97-96-1
Molecular weight: 100
Origin: NIST Mass Spectrometry Data Center, 1990.
m/z	RELATIVE INTENSITY
14	62
15	223
16	49
18	14
25	39
26	297
27	2529
28	367
29	2543
30	95
31	92
32	7
37	59
38	257
39	1801
40	333
41	3238
42	656
43	9999
44	445
50	148
51	178
53	298
54	150
55	1191
56	198
57	1175
58	233
67	91
69	107
70	246
71	2161
72	2976
73	144
82	388
83	53
85	73
100	296
