Mass Spectrum: 2-Furanmethanol, tetrahydro-
Formula: C5 H10 O2
CAS: 97-99-4
Molecular weight: 102
Origin: Japan AIST/NIMC Database- Spectrum MS-NW-1201
m/z	RELATIVE INTENSITY
14	50
15	199
17	20
18	90
19	10
26	109
27	1719
28	269
29	819
30	50
31	1299
32	50
37	30
38	80
39	719
40	189
41	2769
42	1089
43	5519
44	689
45	119
50	30
51	30
52	10
53	119
54	50
55	249
56	60
57	309
58	20
59	20
60	50
61	169
67	20
68	20
69	70
70	409
71	9999
72	469
73	70
74	10
81	10
83	40
84	70
85	30
101	10
102	20
