Mass Spectrum: 2-Acetylpiperidine
Formula: C7 H13 N O
CAS: 97073-22-8
Molecular weight: 127
Origin: T.Hofmann ET AL.J.Agr.Food Chem.,46,616(1998)
m/z	RELATIVE INTENSITY
39	380
40	50
41	771
42	1161
43	1181
44	190
53	70
54	460
55	1591
56	5805
57	480
58	80
67	561
68	380
69	70
78	20
82	851
83	360
84	9999
85	781
98	70
110	30
125	50
126	50
127	50
