Mass Spectrum: 2-Chlorobenzoic acid, octyl ester
Formula: C15 H21 Cl O2
CAS: 97221-94-8
Molecular weight: 268
Origin: Zaikin V.G., TIPS RAS, Moscow, Russia
m/z	RELATIVE INTENSITY
27	140
28	10
29	240
36	50
39	140
40	30
41	621
42	300
43	470
44	50
50	150
51	100
53	50
54	90
55	661
56	731
57	270
65	30
67	100
68	150
69	631
70	901
71	130
74	80
75	591
76	250
77	230
78	30
81	30
82	130
83	601
84	540
85	100
97	70
104	110
105	90
110	50
111	1591
112	611
113	601
114	60
121	40
139	7397
140	591
141	2282
142	190
156	2883
157	9999
158	1702
159	3103
160	240
268	110
270	30
