Mass Spectrum: 4-Chlorobenzoic acid, heptyl ester
Formula: C14 H19 Cl O2
CAS: 97222-05-4
Molecular weight: 254
Origin: V.G.Zaikin, Petrochem. Synth. Inst., Moscow
m/z	RELATIVE INTENSITY
26	50
27	571
28	190
29	871
30	50
31	20
36	310
38	270
39	530
40	150
41	1551
42	1031
43	1031
44	290
45	80
48	20
49	40
50	581
51	350
52	60
53	110
54	290
55	1912
56	3613
57	1061
61	50
64	120
65	90
66	60
67	150
68	510
69	2012
70	3493
71	190
73	70
74	290
75	1401
76	611
77	390
78	90
79	20
80	20
81	90
83	390
84	90
85	160
97	160
98	2853
99	140
103	20
104	180
105	120
110	90
111	3093
112	290
113	1151
114	80
115	60
138	80
139	9999
140	771
141	3153
142	290
152	50
156	5055
157	5715
158	2072
159	1712
160	150
169	50
170	30
171	20
254	30
255	10
