Mass Spectrum: 2-Chlorobenzoic acid, decyl ester
Formula: C17 H25 Cl O2
CAS: 97221-95-9
Molecular weight: 296
Origin: Zaikin V.G., TIPS RAS, Moscow, Russia
m/z	RELATIVE INTENSITY
27	70
28	30
29	140
36	40
39	90
41	460
42	160
43	460
44	50
50	120
51	70
53	40
54	110
55	691
56	571
57	360
65	30
67	140
68	190
69	581
70	691
71	140
74	70
75	430
76	200
77	180
81	60
82	160
83	520
84	390
85	140
95	30
96	80
97	440
98	240
104	90
105	90
110	80
111	1571
112	450
113	460
114	40
121	40
139	6156
140	921
141	1982
142	160
155	50
156	2532
157	9999
158	1541
159	3163
160	250
173	230
296	80
298	30
