Mass Spectrum: 4-Chlorobenzoic acid, pentyl ester
Formula: C12 H15 Cl O2
CAS: 97222-04-3
Molecular weight: 226
Origin: V.G.Zaikin, Petrochem. Synth. Inst., Moscow
m/z	RELATIVE INTENSITY
26	120
27	490
28	140
29	571
30	70
36	490
37	60
38	310
39	410
40	40
41	981
42	1882
43	771
44	160
45	90
49	50
50	691
51	410
52	40
53	90
55	1661
56	190
57	60
61	50
63	50
64	120
65	150
69	510
70	4164
71	210
73	90
74	340
75	1631
76	510
77	390
78	30
79	30
83	30
84	30
85	220
86	40
87	120
91	40
103	20
104	180
105	40
110	110
111	3073
112	310
113	1211
114	90
115	40
138	60
139	9999
140	851
141	3293
142	350
156	4794
157	3984
158	1782
159	1351
160	110
169	50
171	20
226	50
228	20
