Mass Spectrum: 2-Chlorobenzoic acid, hexyl ester
Formula: C13 H17 Cl O2
CAS: 97221-93-7
Molecular weight: 240
Origin: Zaikin V.G., TIPS RAS, Moscow, Russia
m/z	RELATIVE INTENSITY
26	30
27	210
28	10
29	230
36	50
39	170
40	30
41	561
42	390
43	550
44	40
50	210
51	130
53	40
54	60
55	691
56	1111
57	80
65	40
67	50
69	480
70	30
74	120
75	901
76	340
77	280
78	30
83	110
84	681
85	150
87	30
104	130
105	90
110	60
111	2082
112	240
113	781
114	70
115	30
121	30
139	9509
140	741
141	2973
142	240
156	3813
157	9999
158	1892
159	2963
160	240
169	30
240	180
241	30
242	60
