Mass Spectrum: 2-Chlorobenzoic acid, undecyl ester
Formula: C18 H27 Cl O2
CAS: 97221-96-0
Molecular weight: 310
Origin: Zaikin V.G., TIPS RAS, Moscow, Russia
m/z	RELATIVE INTENSITY
27	100
28	80
29	220
36	30
39	110
41	631
42	220
43	671
44	30
50	70
51	50
53	50
54	150
55	851
56	651
57	460
67	170
68	210
69	721
70	671
71	190
74	40
75	340
76	160
77	170
81	70
82	200
83	601
84	470
85	130
95	20
96	90
97	530
98	240
104	90
105	90
110	70
111	1031
112	260
113	370
114	30
121	40
125	90
126	190
139	5215
140	410
141	1651
142	130
154	270
155	30
156	2122
157	9999
158	1361
159	2953
160	230
161	30
310	30
