Mass Spectrum: 1,5-Anhydro-3-O-acetyl-2,4,6-tri-O-methyl-D-glucitol
Formula: C11 H20 O6
CAS: 97275-51-9
Molecular weight: 248
Origin: A. VAN LANGENHOVE, HARVARD SCH. PUBLIC HEALTH, BOSTON, USA
m/z	RELATIVE INTENSITY
71	5041
72	835
73	762
74	6787
75	9999
76	384
77	221
79	185
81	381
82	262
83	1826
84	478
85	1686
86	284
87	1501
88	403
89	717
95	296
96	116
97	1091
98	434
99	899
100	541
101	6130
102	805
103	371
107	127
109	160
111	1297
112	665
113	381
114	2125
115	2366
116	988
117	716
124	101
125	1808
126	395
127	1788
128	397
129	1679
130	186
131	150
139	801
140	137
141	857
142	364
143	4352
144	467
145	167
156	800
157	714
158	1599
159	299
161	140
171	765
172	106
184	104
188	431
203	216
