Mass Spectrum: 1,5-Anhydro-6-O-acetyl-2,3,4-tri-O-methyl-D-glucitol
Formula: C11 H20 O6
CAS: 97275-52-0
Molecular weight: 248
Origin: A. VAN LANGENHOVE, HARVARD SCH. PUBLIC HEALTH, BOSTON, USA
m/z	RELATIVE INTENSITY
68	139
69	907
70	916
71	3917
72	330
73	2043
74	383
75	6229
76	235
83	369
84	188
85	919
87	9999
88	5616
89	648
95	282
96	132
97	244
98	346
99	1110
100	172
101	8491
102	504
103	169
111	461
113	207
114	661
115	590
117	548
124	150
125	197
126	323
127	304
129	1581
130	3371
131	569
141	124
143	642
156	1023
157	106
158	168
175	205
186	315
188	727
216	364
