Mass Spectrum: Dinobuton
Formula: C14 H18 N2 O7
CAS: 973-21-7
Molecular weight: 326
Origin: MASS SPECTROMETRY CENTER, UNIV. OF UTAH. EPA-PTSEL 2540
m/z	RELATIVE INTENSITY
15	42
26	3
27	878
28	218
29	383
30	220
39	385
40	74
41	1474
42	251
43	9999
44	514
45	69
50	40
51	204
52	97
53	264
54	4
55	257
57	51
59	21
61	3
62	32
63	223
64	79
65	196
66	30
67	18
68	3
69	17
74	4
75	126
76	66
77	287
78	129
79	116
80	39
83	89
89	231
90	115
91	227
92	31
101	36
102	43
103	139
104	67
105	106
106	14
115	88
116	84
117	345
118	177
119	102
120	4
128	4
129	3
130	77
131	77
132	17
133	50
135	8
145	58
146	138
147	591
148	116
149	9
150	3
158	13
159	33
160	97
161	29
163	867
164	93
165	4
175	156
176	183
177	275
178	5
181	16
191	13
193	199
194	139
195	29
197	15
205	552
206	77
207	17
208	3
210	249
211	4524
212	503
213	68
222	132
223	397
224	69
225	191
240	601
241	135
267	219
268	3
