Mass Spectrum: (E)-9,11-Dodecadienal
Formula: C12 H20 O
CAS: 97475-11-1
Molecular weight: 180
Origin: T. ANDO,FAC. AGRIC.,TOKYO UNIV. AGRIC. TECHNOL.,TOKYO,JAPAN
m/z	RELATIVE INTENSITY
41	3200
54	9999
55	3500
65	600
66	800
67	9200
68	8000
69	2500
79	2700
80	2800
81	6900
82	3100
83	1000
84	900
85	300
91	800
92	500
93	1700
94	1400
95	3200
96	900
97	1000
98	2700
105	300
106	400
107	1200
108	1000
109	1000
110	500
111	800
112	1200
123	600
151	400
180	3500
181	300
