Mass Spectrum: 1-Ethyl-5-methylcyclopentene
Formula: C8 H14
CAS: 97797-57-4
Molecular weight: 110
Origin: NIST Mass Spectrometry Data Center, 1990.
m/z	RELATIVE INTENSITY
14	653
15	315
16	293
27	1485
28	180
29	623
38	252
39	2471
40	573
41	2277
42	285
43	164
50	386
51	908
52	367
53	1629
54	296
55	1417
63	330
65	816
66	403
67	4107
68	785
69	265
77	1349
78	333
79	2150
81	9999
82	935
91	547
93	596
95	5476
96	429
109	306
110	2652
111	290
