Mass Spectrum: Phenol, 4-(triphenylmethyl)-
Formula: C25 H20 O
CAS: 978-86-9
Molecular weight: 336
Origin: NIST Mass Spectrometry Data Center, 1994
m/z	RELATIVE INTENSITY
13	23
38	49
39	464
40	36
50	217
51	1069
52	122
53	90
55	242
62	62
63	197
64	40
65	298
66	54
75	108
76	134
77	808
78	152
79	84
81	37
82	32
86	24
87	38
88	65
89	137
90	21
91	225
92	32
94	46
99	29
100	40
101	137
102	120
103	112
105	60
107	97
113	132
114	78
115	448
116	65
118	35
120	148
125	42
126	147
127	157
128	139
129	271
130	24
131	69
137	39
138	81
139	247
140	50
141	78
142	22
143	33
145	46
149	33
150	137
151	337
152	1107
153	533
154	169
155	38
157	40
158	20
162	42
163	219
165	3448
166	688
167	133
168	82
169	29
170	95
174	29
175	32
176	100
177	48
178	70
181	2347
182	465
183	124
184	25
187	65
188	50
189	225
190	79
191	93
200	109
201	119
202	482
203	169
204	35
212	26
213	156
215	571
216	188
217	60
218	36
224	64
225	98
226	465
227	299
228	451
229	296
230	76
231	132
232	33
237	84
239	571
240	202
241	355
242	148
243	533
244	299
245	73
250	31
252	34
255	95
257	536
259	9999
260	2170
261	266
263	38
265	45
276	63
289	69
290	24
291	43
292	38
307	35
318	29
319	87
320	37
333	33
336	4213
337	1251
338	165
