Mass Spectrum: Propionitrile, 3-trimethylhydrazino-
Formula: C6 H13 N3
CAS: 97812-31-2
Molecular weight: 127
Origin: A.Pleshkova, Nesmeyanov Inst.Org.Elem.Cpds, Moscow
m/z	RELATIVE INTENSITY
27	921
28	811
29	210
30	621
41	731
42	2342
43	1231
44	6546
45	2833
46	120
56	2342
57	230
58	450
59	9999
60	621
61	90
85	831
86	210
99	430
100	2923
101	290
112	230
127	430
128	90
