Mass Spectrum: .alpha.-Linolenic acid, TMS derivative
Formula: C21 H38 O2 Si
CAS: 97844-13-8
Molecular weight: 350
Origin: O A MAMER, MCGILL UNIVERSITY, MONTRE
m/z	RELATIVE INTENSITY
14	70
15	191
18	154
26	164
27	710
28	450
29	1147
32	82
39	854
40	180
41	4637
42	365
43	1370
44	234
45	897
47	504
50	93
51	193
52	208
53	826
54	728
55	3935
56	301
57	534
58	194
59	286
60	136
61	669
65	489
66	707
67	5138
68	995
69	1474
70	157
71	204
72	349
73	9481
74	1003
75	9999
76	769
77	1809
78	1087
79	7741
80	3181
81	3458
82	799
83	660
84	236
85	215
89	315
91	2341
92	552
93	3949
94	2145
95	5254
96	797
97	463
98	207
99	204
101	119
105	1124
106	430
107	2140
108	3637
109	1343
110	250
111	205
116	416
117	2029
118	267
119	783
120	351
121	1688
122	1112
123	506
124	119
125	105
129	2335
130	345
131	987
132	574
133	669
134	288
135	1354
136	812
137	258
143	248
145	1200
146	206
147	547
148	219
149	1257
150	544
151	153
157	195
159	256
161	247
162	223
163	617
164	317
165	108
171	242
173	577
174	117
175	206
176	146
177	223
178	176
185	213
187	425
189	161
191	395
192	170
199	167
201	159
204	170
205	86
213	94
215	75
217	102
218	109
227	124
232	87
260	104
279	105
281	93
291	106
294	238
295	96
307	124
321	195
335	2442
336	694
337	227
350	771
351	249
352	84
