Mass Spectrum: Pinacolyl ethylphosphonofluoridate
Formula: C8 H18 F O2 P
CAS: 97931-20-9
Molecular weight: 196
Origin: VERIFIN - Methodology B1-1979
m/z	RELATIVE INTENSITY
27	400
28	90
29	700
39	500
40	70
41	2502
42	200
43	1201
44	50
45	300
51	60
53	200
55	500
56	200
57	1201
58	50
65	70
67	400
68	60
69	3202
70	100
83	70
84	1201
85	700
95	80
96	3903
97	400
111	300
112	2302
113	9999
114	200
139	400
140	6706
141	300
181	10
