Mass Spectrum: 2-Chlorobenzoic acid, 2-pentyl ester
Formula: C12 H15 Cl O2
CAS: 97989-30-5
Molecular weight: 226
Origin: V.Zaikin,Inst.Petrochem.Synth.,RAS,Moscow
m/z	RELATIVE INTENSITY
26	140
27	781
28	150
29	931
30	50
39	831
40	190
41	1351
42	1111
43	2562
44	80
50	901
51	711
52	320
53	120
54	50
55	1952
56	190
57	120
58	40
61	50
62	60
63	80
64	50
65	110
66	50
67	90
68	60
69	230
70	5935
71	751
72	30
73	140
74	470
75	1641
76	631
77	480
78	50
79	310
80	40
81	30
82	30
83	50
84	110
85	170
86	50
87	1071
88	70
89	40
90	30
91	100
92	60
93	60
94	40
95	60
99	50
101	40
103	50
104	150
105	130
110	110
111	2042
112	250
113	661
114	60
115	50
119	40
121	50
122	50
125	30
127	20
128	30
134	40
135	30
138	180
139	9999
140	731
141	3153
142	300
143	30
150	20
152	30
156	861
157	3163
158	550
159	1011
160	30
183	40
185	20
226	50
228	20
