Mass Spectrum: 4-Chlorobenzoic acid, 2-pentyl ester
Formula: C12 H15 Cl O2
CAS: 97989-39-4
Molecular weight: 226
Origin: V.Zaikin,Topchiev Inst.Petrochem.Synth.,Moscow
m/z	RELATIVE INTENSITY
26	60
27	601
29	601
30	20
32	20
36	50
37	20
38	70
39	400
40	80
41	781
42	841
43	1401
44	80
45	260
50	440
51	250
52	30
53	70
54	40
55	1641
56	40
58	20
61	20
63	20
65	60
67	30
68	20
69	80
70	5915
71	420
73	30
74	180
75	1371
76	400
77	240
78	30
79	60
84	20
85	100
87	681
88	40
92	10
93	20
97	10
101	10
104	120
105	40
110	60
111	2262
112	220
113	841
114	60
115	20
119	10
123	10
128	10
133	10
135	200
136	20
138	20
139	9999
140	731
141	3433
142	250
149	20
154	10
156	550
157	2522
158	390
159	851
160	60
176	10
183	100
184	10
185	30
191	20
226	30
228	10
