Mass Spectrum: 1-(5'-Chloro-2'-methylaminobenzoyl)-cyclohex-1-ene
Formula: C14 H16 Cl N O
CAS: 97994-57-5
Molecular weight: 249
Origin: H.Maurer ET AL.J.Chromatogr. 222,409(1981)
m/z	RELATIVE INTENSITY
75	571
77	571
89	370
111	971
115	370
138	771
139	370
140	340
164	741
165	571
166	571
167	370
178	951
179	370
180	540
193	741
194	1521
195	540
196	540
206	2132
207	9999
208	1932
209	3113
210	340
220	3143
221	741
222	951
223	340
232	340
234	2132
235	340
236	741
237	540
248	340
249	5535
250	951
251	1922
252	310
