Mass Spectrum: 2,4'-Methylenediphenol, 2TMS derivative
Formula: C19 H28 O2 Si2
CAS: 97993-27-6
Molecular weight: 344
Origin: L.Prokai, J.Chromatogr.,329,290 (1985)
m/z	RELATIVE INTENSITY
73	9999
74	801
75	510
76	430
77	30
135	100
136	140
147	360
148	180
149	180
157	360
158	100
162	30
163	360
164	30
165	100
166	140
179	871
180	180
181	250
182	30
207	250
222	180
223	250
241	100
242	510
243	70
255	140
256	100
271	70
329	691
330	180
343	761
344	6756
345	1972
346	581
347	70
