Mass Spectrum: 2,2'-Methylenediphenol, 2TMS derivative
Formula: C19 H28 O2 Si2
CAS: 97993-26-5
Molecular weight: 344
Origin: L.Prokai, J.Chromatogr.,329,290 (1985)
m/z	RELATIVE INTENSITY
73	9999
74	791
75	390
76	30
91	100
133	140
134	140
136	70
146	70
147	901
148	210
166	100
179	250
180	180
181	100
207	611
208	140
209	70
210	140
241	971
242	210
243	30
281	140
282	70
329	470
330	180
331	30
343	250
344	4524
345	1301
346	430
347	100
