Mass Spectrum: Benzenesulfonyl chloride
Formula: C6 H5 Cl O2 S
CAS: 98-09-9
Molecular weight: 176
Origin: Japan AIST/NIMC Database- Spectrum MS-NW-1007
m/z	RELATIVE INTENSITY
17	20
18	70
26	30
27	209
28	159
32	50
35	30
36	60
37	119
38	189
39	439
40	10
41	10
44	50
45	90
48	169
49	80
50	1119
51	2939
52	159
53	50
54	10
55	10
56	20
57	40
58	20
59	10
60	10
61	40
62	60
63	80
64	199
65	299
66	60
68	10
69	129
70	40
71	20
73	70
74	329
75	269
76	259
77	9999
78	849
79	30
81	20
82	30
83	10
84	30
85	10
91	10
92	10
93	10
94	10
95	20
97	129
99	20
108	30
109	199
110	139
111	30
112	219
113	20
114	60
115	10
125	329
126	50
127	20
141	3939
142	289
143	219
144	10
176	879
177	60
178	319
179	20
180	10
