Mass Spectrum: 2-Furanmethanol
Formula: C5 H6 O2
CAS: 98-00-0
Molecular weight: 98
Origin: NIST Mass Spectrometry Data Center
m/z	RELATIVE INTENSITY
13	10
14	50
15	80
17	10
24	10
25	70
26	390
27	1131
29	1682
30	140
31	931
35	50
36	110
37	961
38	1762
39	5505
40	711
41	6306
42	5105
43	991
44	751
45	30
49	390
50	1631
51	2062
52	1551
53	5735
54	390
55	1441
56	130
57	100
58	40
60	10
61	50
62	40
63	20
65	20
66	200
67	190
68	330
69	3643
70	3283
71	250
72	20
77	10
79	150
80	110
81	5625
82	310
83	20
95	701
96	110
97	5135
98	9999
99	561
100	50
