Mass Spectrum: Benzenesulfonamide
Formula: C6 H7 N O2 S
CAS: 98-10-2
Molecular weight: 157
m/z	RELATIVE INTENSITY
15	212
27	890
32	212
37	106
38	381
39	1165
40	169
48	127
49	42
50	2542
51	5720
52	318
63	212
64	106
65	466
66	678
67	424
70	106
74	636
75	424
76	381
77	9999
78	678
93	3644
94	1907
95	169
125	169
141	2118
142	233
143	169
157	3008
158	424
159	169
