Mass Spectrum: Benzenesulfonic acid
Formula: C6 H6 O3 S
CAS: 98-11-3
Molecular weight: 158
Origin: Japan AIST/NIMC Database- Spectrum MS-NW-1888
m/z	RELATIVE INTENSITY
17	40
18	159
26	60
27	449
28	109
29	20
32	20
36	10
37	189
38	349
39	1029
40	289
41	20
43	10
44	40
45	99
48	99
49	159
50	2349
51	5689
52	299
53	60
54	10
55	209
56	10
57	30
58	20
60	10
61	60
62	119
63	199
64	99
65	2179
66	1439
67	80
68	30
69	119
70	20
71	10
72	10
73	149
74	779
75	479
76	669
77	9999
78	799
79	40
80	10
81	90
82	40
83	10
84	10
90	20
91	10
92	40
93	719
94	9369
95	619
96	40
97	50
108	20
109	30
110	30
125	30
126	10
141	729
142	60
143	40
158	7039
159	539
160	369
161	20
