Mass Spectrum: Phenol, 3-(trifluoromethyl)-
Formula: C7 H5 F3 O
CAS: 98-17-9
Molecular weight: 162
Origin: Japan AIST/NIMC Database- Spectrum MS-NW-3026
m/z	RELATIVE INTENSITY
14	10
20	30
26	40
27	60
28	70
29	90
31	119
32	20
36	10
37	169
38	349
39	869
40	40
41	10
42	40
43	20
44	20
45	10
46	10
49	40
50	249
51	119
52	10
53	209
54	20
55	50
56	60
57	319
58	20
60	20
61	129
62	229
63	649
64	259
65	699
66	70
67	40
68	40
69	199
70	50
71	99
72	20
73	50
74	109
75	319
76	30
77	20
79	10
80	20
81	169
82	20
83	499
84	319
85	20
86	10
87	40
88	279
89	60
90	10
91	30
92	80
93	90
94	50
95	249
96	30
97	10
98	10
99	60
100	10
101	20
104	10
106	10
107	40
108	10
110	10
111	10
112	1639
113	519
114	1599
115	249
116	10
119	10
123	119
124	10
125	70
126	10
131	10
132	109
133	539
134	129
135	10
141	189
142	70
143	2459
144	189
145	489
146	40
160	10
161	939
162	9999
163	779
164	50
