Mass Spectrum: Benzene, 1-(1,1-dimethylethyl)-3,5-dimethyl-
Formula: C12 H18
CAS: 98-19-1
Molecular weight: 162
Origin: NIST Mass Spectrometry Data Center, 1990.
m/z	RELATIVE INTENSITY
15	190
27	385
28	55
29	289
39	835
40	151
41	1046
42	76
50	173
51	617
52	211
53	430
55	226
57	153
58	81
62	146
63	534
64	337
65	810
66	145
71	177
72	108
74	162
75	139
76	171
77	1454
78	547
79	682
89	294
91	2867
92	310
102	245
103	612
104	282
105	1527
106	377
107	2586
108	241
115	1427
116	612
117	694
118	241
119	4917
120	559
127	202
128	547
129	424
130	169
131	486
132	120
133	103
145	127
147	9999
148	1276
162	2301
163	316
