Mass Spectrum: 5-t-Butyl-1,2,3-trimethylbenzene
Formula: C13 H20
CAS: 98-23-7
Molecular weight: 176
Origin: NIST Mass Spectrometry Data Center, 1990.
m/z	RELATIVE INTENSITY
15	333
27	550
28	111
29	497
39	854
40	163
41	1282
50	114
51	460
52	136
53	349
54	114
55	314
57	131
63	240
64	252
65	473
71	206
72	94
73	80
76	99
77	845
78	309
79	497
81	125
89	135
91	1278
92	132
93	135
102	113
103	322
104	131
105	1184
106	184
115	875
116	284
117	397
118	123
119	1181
120	123
121	2953
122	295
127	213
128	670
129	592
130	337
131	428
132	123
133	2797
134	311
141	106
144	90
145	469
146	124
159	104
161	9999
162	1234
176	2120
177	298
