Mass Spectrum: p-tert.-Butylcatechol
Formula: C10 H14 O2
CAS: 98-29-3
Molecular weight: 166
Origin: Japan AIST/NIMC Database- Spectrum MS-NW-4290
m/z	RELATIVE INTENSITY
14	10
15	60
18	10
26	30
27	289
28	40
29	179
31	10
37	10
38	60
39	469
40	50
41	889
42	40
43	139
44	20
45	10
46	10
49	10
50	109
51	339
52	119
53	189
54	30
55	219
56	20
57	70
58	10
59	20
60	10
61	20
62	70
63	209
64	90
65	339
66	70
67	80
68	20
69	50
73	20
74	70
75	90
76	30
77	539
78	129
79	349
80	30
81	80
82	20
83	10
87	10
88	20
89	199
90	50
91	169
92	30
93	389
94	70
95	70
96	10
100	10
101	10
102	30
103	159
104	50
105	949
106	90
107	219
108	50
109	40
110	239
111	629
112	40
115	30
116	10
117	50
118	20
119	80
120	10
121	50
122	80
123	1739
124	149
125	60
129	10
131	50
132	20
133	319
134	50
135	209
136	139
137	80
138	10
147	30
148	10
149	20
150	249
151	9999
152	1019
153	90
165	30
166	2909
167	329
168	30
