Mass Spectrum: 4-tert-Butyl-2-chlorophenol
Formula: C10 H13 Cl O
CAS: 98-28-2
Molecular weight: 184
Origin: Japan AIST/NIMC Database- Spectrum MS-NW-4039
m/z	RELATIVE INTENSITY
15	70
26	30
27	259
28	30
29	209
35	10
36	40
37	30
38	90
39	589
40	50
41	2159
42	90
43	70
44	30
45	10
46	10
49	20
50	129
51	479
52	99
53	179
54	10
55	139
56	20
57	90
58	10
59	90
60	10
61	60
62	169
63	429
64	149
65	289
66	249
67	40
68	10
69	10
72	20
73	109
74	80
75	119
76	40
77	649
78	129
79	169
80	20
81	10
82	20
83	30
84	70
85	30
86	30
87	50
88	40
89	309
90	90
91	269
92	50
93	109
94	80
95	30
97	20
98	20
99	90
100	10
101	50
102	50
103	149
104	40
105	359
106	50
107	149
108	20
109	10
111	30
112	20
113	30
114	10
115	109
116	50
117	50
118	149
119	129
120	40
121	50
125	109
126	20
127	50
128	99
129	759
130	90
131	299
132	90
133	199
134	289
135	209
136	30
139	20
140	30
141	2339
142	209
143	809
144	70
145	20
147	10
148	20
149	50
150	50
151	10
152	20
153	199
154	109
155	139
156	40
157	30
167	20
168	109
169	9999
170	1049
171	3229
172	319
173	30
183	60
184	2179
185	259
186	709
187	80
