Mass Spectrum: .alpha.-Terpineol
Formula: C10 H18 O
CAS: 98-55-5
Molecular weight: 154
Origin: NIST Mass Spectrometry Data Center, 1990.
m/z	RELATIVE INTENSITY
14	140
15	165
27	981
28	350
29	632
30	140
31	789
32	37
39	2324
40	658
41	2888
42	376
43	3579
44	138
45	216
50	314
51	837
52	416
53	1927
54	587
55	1646
57	245
59	9999
60	345
61	109
62	155
63	399
64	155
65	1134
66	466
67	4177
68	3521
69	611
70	109
71	934
77	2677
78	646
79	3371
80	1206
81	4087
82	311
89	124
91	3099
92	3041
93	9093
94	1682
95	1533
96	467
103	222
104	115
105	894
106	213
107	1346
108	512
109	88
115	227
117	235
119	1019
121	5553
122	478
134	213
136	4386
137	506
139	653
