Mass Spectrum: 4-tert-Butyltoluene
Formula: C11 H16
CAS: 98-51-1
Molecular weight: 148
Origin: NIST Mass Spectrometry Data Center, 1990.
m/z	RELATIVE INTENSITY
15	245
17	13
18	4
26	43
27	424
28	127
29	240
37	19
38	110
39	1106
40	121
41	1378
42	58
43	17
44	7
50	188
51	546
52	147
53	208
54	21
55	95
56	20
57	138
59	35
61	29
62	132
63	460
64	359
65	862
66	90
71	44
72	50
73	50
74	79
75	88
76	100
77	874
78	241
79	310
80	23
85	11
86	28
87	63
88	11
89	315
90	11
91	1557
92	270
93	1454
94	116
101	35
102	136
103	288
104	35
105	5227
106	530
107	31
113	16
115	1026
116	343
117	755
118	118
119	57
120	12
126	16
127	81
128	127
129	72
130	27
131	140
132	12
133	9999
134	1102
135	57
148	2248
149	293
150	15
