Mass Spectrum: Benzenesulfonyl chloride, 4-chloro-
Formula: C6 H4 Cl2 O2 S
CAS: 98-60-2
Molecular weight: 210
Origin: Japan AIST/NIMC Database- Spectrum MS-NW-1901
m/z	RELATIVE INTENSITY
26	30
27	50
28	119
32	20
35	40
36	109
37	229
38	359
39	139
44	70
45	119
47	30
48	149
49	169
50	2139
51	799
52	40
53	40
54	20
55	60
56	30
57	50
58	20
60	40
61	209
62	129
63	229
64	169
65	10
68	10
69	149
70	20
71	20
72	40
73	499
74	1169
75	4379
76	839
77	90
79	30
81	40
82	40
83	10
84	129
85	459
86	60
87	159
88	30
89	10
93	10
95	40
96	20
97	10
99	249
100	10
101	80
105	10
106	10
107	30
108	119
109	50
110	90
111	9999
112	779
113	3189
114	239
115	20
127	119
128	10
129	30
131	90
133	30
140	10
142	20
143	50
144	30
145	20
146	169
147	20
148	109
150	10
159	149
160	10
161	50
175	6529
176	489
177	2419
178	179
179	109
210	1559
211	119
212	1079
213	80
214	209
215	10
