Mass Spectrum: 4-Chlorobenzenesulfonic acid
Formula: C6 H5 Cl O3 S
CAS: 98-66-8
Molecular weight: 192
Origin: Leung Pu, NIH, Bethesda, Maryland, U.S.
m/z	RELATIVE INTENSITY
41	125
43	127
44	69
45	625
47	386
48	1090
49	1309
50	3245
51	1667
52	66
53	183
55	134
57	377
58	211
60	177
61	464
62	543
63	1611
64	330
65	1922
66	64
69	1287
70	186
71	205
72	85
73	1426
74	2328
75	7927
76	1433
77	429
79	367
81	928
82	597
84	1101
85	1038
86	558
87	465
88	67
89	181
91	464
92	73
93	265
95	352
96	195
97	153
99	2575
101	1201
102	192
105	149
106	74
107	691
108	3822
109	436
110	261
111	9999
112	2185
113	3148
114	759
115	220
124	145
127	972
128	2786
129	465
130	1059
131	1268
133	516
139	131
142	289
143	3919
144	237
145	1616
146	95
147	93
152	153
159	8870
161	3880
162	294
163	158
172	283
175	5952
176	375
177	2808
178	374
179	145
191	58
192	2381
194	1142
