Mass Spectrum: Benzenesulfonic acid, 4-hydroxy-
Formula: C6 H6 O4 S
CAS: 98-67-9
Molecular weight: 174
Origin: Japan AIST/NIMS Database - Spectrum MS-NW-1183
m/z	RELATIVE INTENSITY
14	30
15	40
16	50
25	30
26	219
27	859
28	379
29	279
30	10
31	109
32	70
33	10
34	30
36	40
37	359
38	1159
39	5329
40	369
41	109
42	139
43	129
44	109
45	189
46	60
47	60
48	689
49	99
50	639
51	609
52	309
53	1399
54	279
55	649
56	40
57	70
58	50
59	10
60	60
61	359
62	889
63	2389
64	2089
65	6609
66	879
67	119
68	50
69	269
70	80
71	60
72	10
73	99
74	319
75	239
76	80
77	60
78	20
79	109
80	789
81	4199
82	569
83	60
84	30
85	70
86	10
87	20
89	10
90	30
91	60
92	1309
93	4809
94	3279
95	249
96	99
97	80
98	50
99	10
107	20
108	369
109	9999
110	3979
111	289
112	30
113	80
114	10
115	20
116	10
123	10
124	60
125	50
126	60
127	30
128	60
129	40
131	20
139	10
140	20
141	329
142	99
143	20
156	759
157	2029
158	199
159	119
174	8499
175	669
176	479
177	30
