Mass Spectrum: Benzenesulfonamide, 4-chloro-
Formula: C6 H6 Cl N O2 S
CAS: 98-64-6
Molecular weight: 191
Origin: Japan AIST/NIMC Database- Spectrum MS-NW-7211
m/z	RELATIVE INTENSITY
16	70
17	10
18	30
25	10
26	40
27	70
28	109
29	10
32	50
33	10
34	10
35	10
36	80
37	189
38	279
39	249
40	10
41	40
42	10
43	10
44	70
45	109
46	70
47	70
48	119
49	159
50	1929
51	809
52	80
53	50
54	20
55	10
57	40
58	20
60	40
61	209
62	139
63	329
64	749
65	399
66	50
67	10
68	20
69	129
70	20
71	20
72	50
73	419
74	1219
75	4649
76	889
77	109
78	10
79	30
80	109
81	40
82	30
83	20
84	149
85	459
86	80
87	199
88	10
89	20
90	40
91	70
92	159
93	50
95	40
96	20
97	20
98	10
99	369
100	119
101	119
102	40
104	10
105	10
106	10
107	20
108	109
109	50
110	179
111	9999
112	729
113	3249
114	249
115	20
117	10
124	10
125	10
126	60
127	1749
128	3039
129	789
130	989
131	149
132	10
133	30
139	20
140	10
142	30
143	20
144	10
159	99
160	10
161	40
174	20
175	4779
176	359
177	1799
178	129
179	80
191	5039
192	449
193	1889
194	169
195	99
196	10
