Mass Spectrum: L-Pyroglutamic acid
Formula: C5 H7 N O3
CAS: 98-79-3
Molecular weight: 129
Origin: Japan AIST/NIMC Database- Spectrum MS-NW-3151
m/z	RELATIVE INTENSITY
14	30
15	70
17	20
18	70
25	20
26	229
27	519
28	2549
29	279
30	179
31	20
36	30
37	40
38	70
39	319
40	99
41	2609
42	139
43	50
44	199
45	299
46	20
51	30
52	80
53	50
54	249
55	379
56	1259
57	80
66	90
67	50
68	40
69	30
71	10
73	129
74	40
82	40
83	309
84	9999
85	529
86	30
101	70
129	339
130	20
