Mass Spectrum: 4-Nitrobenzenesulphonyl chloride
Formula: C6 H4 Cl N O4 S
CAS: 98-74-8
Molecular weight: 221
Origin: Japan AIST/NIMC Database- Spectrum MS-NW-1379
m/z	RELATIVE INTENSITY
26	50
27	80
28	179
29	40
30	799
32	30
35	40
36	159
37	169
38	359
39	319
40	20
41	60
43	20
44	99
45	149
46	70
47	10
48	249
49	90
50	3289
51	549
52	149
53	109
54	30
55	30
56	99
57	40
58	50
60	10
61	109
62	199
63	609
64	899
65	129
66	30
67	10
68	10
69	189
70	159
71	10
72	10
73	169
74	1029
75	4339
76	3359
77	629
78	40
79	50
80	50
81	30
82	70
83	60
84	50
85	40
86	20
87	20
88	10
89	10
90	10
91	20
92	1339
93	139
94	10
95	99
96	90
97	10
98	10
99	439
100	30
101	139
102	10
105	20
106	60
107	30
108	50
109	20
110	30
111	309
112	60
113	109
114	10
117	20
119	10
121	10
122	5539
123	569
124	90
125	20
126	50
127	40
128	20
129	10
130	10
139	40
140	70
141	50
142	10
155	30
157	40
159	10
170	80
171	10
173	10
175	209
176	20
177	80
184	10
186	9999
187	789
188	539
189	40
201	10
203	20
205	40
207	20
221	919
222	70
223	329
224	20
225	20
