Mass Spectrum: .alpha.-Methylstyrene
Formula: C9 H10
CAS: 98-83-9
Molecular weight: 118
Origin: Japan AIST/NIMC Database- Spectrum MS-NW-2072
m/z	RELATIVE INTENSITY
14	10
15	40
26	50
27	279
28	40
29	10
37	70
38	149
39	1019
40	139
41	149
42	20
43	60
49	40
50	479
51	1329
52	339
53	109
55	10
57	239
58	369
59	70
61	60
62	169
63	469
64	80
65	439
66	50
71	20
73	30
74	199
75	179
76	229
77	1899
78	2859
79	249
80	10
85	20
86	40
87	60
88	20
89	289
90	119
91	1649
92	159
98	20
99	10
101	60
102	419
103	4539
104	419
105	60
113	20
114	30
115	1509
116	379
117	6319
118	9999
119	1039
120	50
