Mass Spectrum: Benzene, (dichloromethyl)-
Formula: C7 H6 Cl2
CAS: 98-87-3
Molecular weight: 160
Origin: NIST Mass Spectrometry Data Center, 1998.
m/z	RELATIVE INTENSITY
25	10
26	50
27	50
35	60
36	30
37	150
38	250
39	540
40	50
41	10
43	130
44	230
47	30
48	30
49	130
50	500
51	490
52	70
53	10
60	60
61	300
62	870
63	1550
64	250
65	140
66	10
71	10
72	40
73	320
74	120
75	210
76	30
77	60
78	20
83	20
84	50
85	130
86	180
87	150
88	60
89	2240
90	530
91	50
96	20
97	120
98	10
99	660
100	40
101	210
102	10
105	20
106	20
107	10
109	10
110	10
123	80
125	9999
126	820
127	3370
128	260
129	10
133	20
135	10
159	50
160	990
161	110
162	630
163	50
164	100
165	10
