Mass Spectrum: Cyclohexanamine, N,N-dimethyl-
Formula: C8 H17 N
CAS: 98-94-2
Molecular weight: 127
Origin: Japan AIST/NIMC Database- Spectrum MS-NW- 571
m/z	RELATIVE INTENSITY
15	149
26	20
27	239
28	60
29	169
30	60
38	10
39	269
40	30
41	449
42	879
43	219
44	629
45	99
46	40
50	20
51	40
52	20
53	99
54	80
55	339
56	539
57	70
58	619
59	20
60	10
65	20
66	10
67	60
68	99
69	30
70	409
71	1919
72	119
77	40
78	10
79	40
80	10
81	50
82	129
83	60
84	9999
85	739
86	20
94	10
96	60
97	40
98	289
99	20
110	20
112	50
113	10
120	40
121	30
124	20
125	10
126	199
127	1769
128	159
