Mass Spectrum: Pyrazinoic acid
Formula: C5 H4 N2 O2
CAS: 98-97-5
Molecular weight: 124
Origin: NIST Mass Spectrometry Data Center, 1998.
m/z	RELATIVE INTENSITY
12	20
13	20
16	10
24	60
25	230
26	1910
27	190
28	1080
29	150
30	10
31	10
37	80
38	390
39	340
40	410
41	190
42	320
43	20
44	130
45	780
48	10
50	390
51	2150
52	6279
53	6309
54	200
55	10
56	10
63	30
65	20
66	20
67	60
68	60
69	10
70	890
72	10
74	10
75	10
76	90
77	170
78	670
79	1610
80	9999
81	450
82	20
84	20
95	40
96	30
97	40
103	10
106	640
107	240
108	30
109	10
124	2020
125	180
126	20
