Mass Spectrum: O-Ethyl S-2-dimethylaminoethyl ethylphosphonothiolate
Formula: C8 H20 N O2 P S
CAS: 98543-25-0
Molecular weight: 225
Origin: VERIFIN - Methodology B1-1979
m/z	RELATIVE INTENSITY
27	100
29	100
30	70
42	500
43	400
44	200
47	60
56	400
57	100
58	9999
59	300
61	90
65	300
70	300
71	5605
72	600
93	400
102	100
121	50
180	50
