Mass Spectrum: 2-Methylacetoacetic acid, di(trimethylsilyl) deriv.
Formula: C11 H24 O3 Si2
CAS: 98779-02-3
Molecular weight: 260
Origin: S.Goodman ET AL.Diagnosis of Organic Acidemias
m/z	RELATIVE INTENSITY
43	1411
45	2202
47	350
52	90
53	130
55	190
59	611
61	90
66	340
71	40
72	180
73	6516
74	520
75	1611
76	10
77	140
78	10
83	581
98	250
113	310
127	581
131	470
133	571
147	9999
148	1451
149	861
155	70
170	140
171	1231
191	70
245	5275
246	1131
247	470
