Mass Spectrum: 3-Ketovaleric acid, bis(trimethylsilyl)-
Formula: C11 H24 O3 Si2
CAS: 98779-01-2
Molecular weight: 260
Origin: O A MAMER, MCGILL UNIVERSITY, MONTRE?
m/z	RELATIVE INTENSITY
14	80
15	320
16	52
26	72
27	269
28	318
29	588
30	43
31	104
39	169
40	43
41	129
42	108
43	755
44	552
45	2503
46	175
47	525
51	76
52	119
53	328
54	92
55	217
56	67
57	827
58	192
59	555
60	98
61	263
66	208
67	139
68	45
69	1130
70	105
71	94
72	357
73	9999
74	885
75	2038
76	153
77	142
79	130
81	153
83	73
85	206
86	56
87	52
95	40
96	46
97	65
98	290
99	612
100	86
101	94
103	56
105	43
111	91
113	206
114	64
115	207
116	105
117	134
118	38
119	56
127	139
128	83
129	58
131	316
132	65
133	598
134	93
135	71
141	98
142	145
143	273
144	43
147	6594
148	1063
149	659
150	86
151	76
155	428
156	70
157	85
163	439
164	78
165	44
169	136
170	1317
171	1585
172	270
173	169
174	65
204	72
215	42
217	49
229	58
231	2536
232	546
233	251
234	39
243	58
244	76
245	3026
246	663
247	302
248	62
260	597
261	152
262	71
