Mass Spectrum: Methylmalonic acid, 2TBDMS derivative
Formula: C16 H34 O4 Si2
CAS: 98830-29-6
Molecular weight: 346
Origin: NIST Mass Spectrometry Data Center
m/z	RELATIVE INTENSITY
15	10
26	10
27	100
28	110
29	370
30	10
31	40
38	10
39	170
40	40
41	891
42	70
43	290
44	80
45	721
46	50
47	380
48	20
49	20
50	10
51	20
52	30
53	50
54	30
55	550
56	571
57	1571
58	601
59	1141
60	180
61	240
62	20
63	10
66	380
69	50
70	20
71	50
73	9138
74	991
75	2853
76	200
77	110
78	10
79	10
81	20
83	490
84	50
85	210
86	350
87	100
88	20
89	30
94	160
97	40
98	20
99	360
100	80
101	80
102	40
103	100
104	20
105	50
106	10
107	10
109	10
111	10
113	260
114	60
115	1461
116	721
117	460
118	70
119	150
120	20
121	10
127	10
129	450
130	340
131	510
132	210
133	2172
134	310
135	200
136	20
137	10
143	60
144	10
145	40
147	8618
148	1601
149	1301
150	150
151	70
152	10
153	10
155	60
156	10
157	240
158	30
159	110
160	20
161	20
171	50
172	20
173	110
174	30
175	230
176	50
177	50
178	10
185	10
187	30
189	5985
190	1331
191	561
192	80
193	10
199	20
203	430
204	110
205	50
206	10
215	40
217	210
218	40
219	20
231	210
232	50
233	60
234	10
245	40
246	60
247	10
259	20
273	90
274	20
275	30
276	10
289	9999
290	3063
291	1291
292	210
293	40
331	591
332	160
333	60
334	10
347	10
