Mass Spectrum: Methylsuccinic acid, 2TBDMS derivative
Formula: C17 H36 O4 Si2
CAS: 98830-33-2
Molecular weight: 360
Origin: NIST Mass Spectrometry Data Center
m/z	RELATIVE INTENSITY
27	20
28	10
29	120
31	10
39	80
40	20
41	450
42	80
43	100
44	20
45	250
46	20
47	160
48	10
49	10
53	20
55	240
56	110
57	430
58	200
59	420
60	80
61	100
62	10
66	10
67	10
69	380
70	50
71	30
73	5565
74	550
75	2032
76	150
77	90
83	30
84	10
85	140
86	150
87	40
88	20
89	10
97	40
98	20
99	320
100	60
101	80
102	20
103	40
104	10
105	20
111	10
113	30
115	611
116	130
117	160
118	30
119	70
120	10
121	10
123	981
127	10
129	591
130	250
131	150
132	60
133	841
134	120
135	100
136	10
143	921
144	150
145	120
147	6846
148	1121
149	771
150	80
151	30
157	20
159	30
161	10
169	10
170	10
171	90
172	20
173	30
174	10
175	20
176	20
177	20
185	30
186	10
187	10
189	621
190	120
191	60
192	10
199	10
200	10
201	10
203	190
204	140
205	40
206	10
213	260
214	40
215	10
217	30
218	10
229	320
230	60
231	30
232	10
233	10
245	30
246	10
259	30
260	40
261	10
287	10
301	20
303	9999
304	2662
305	1101
306	190
307	30
345	540
346	150
347	60
348	10
