Mass Spectrum: Pentanedioic acid, 2TBDMS derivative
Formula: C17 H36 O4 Si2
CAS: 98830-34-3
Molecular weight: 360
Origin: J.M. Halket, Trace Anal. Unit (TAU), London, UK
m/z	RELATIVE INTENSITY
39	410
40	100
41	1610
42	350
43	460
44	100
45	1030
46	80
47	790
48	40
49	30
53	70
55	1990
56	350
57	1070
58	450
59	880
60	230
61	320
62	20
67	20
68	40
69	100
70	40
71	70
72	670
73	9999
74	1100
75	5720
76	380
77	210
81	40
83	30
84	10
85	340
86	90
87	70
88	120
89	30
95	10
97	340
98	40
99	240
100	60
101	280
102	50
103	50
105	10
111	10
113	40
114	30
115	560
116	680
117	170
118	50
119	70
123	470
127	90
129	1320
130	140
131	130
133	760
134	100
135	80
142	20
143	60
144	30
145	20
147	3570
148	650
149	530
150	70
151	30
155	10
159	10
161	90
171	120
173	20
175	10
176	30
185	20
189	250
190	90
191	60
195	20
200	30
201	40
203	60
204	40
213	120
214	20
229	200
230	40
231	30
245	180
246	40
275	110
276	30
298	10
299	20
300	10
301	10
302	30
303	3920
304	950
305	400
306	70
345	160
346	50
347	10
