Mass Spectrum: Benzoic acid, 3-amino-
Formula: C7 H7 N O2
CAS: 99-05-8
Molecular weight: 137
Origin: Japan AIST/NIMC Database- Spectrum MS-NW- 222
m/z	RELATIVE INTENSITY
15	70
16	50
17	20
18	70
25	40
26	149
27	289
28	689
29	70
32	239
36	60
37	399
38	799
39	1969
40	259
41	629
42	329
43	99
44	99
45	379
46	409
49	149
50	399
51	299
52	909
53	329
54	219
55	90
56	50
57	80
60	199
61	349
62	539
63	1009
64	909
65	3729
66	969
67	109
68	249
71	60
73	119
74	209
75	109
76	80
77	60
78	60
79	70
80	509
81	159
82	109
87	40
88	70
89	70
90	269
91	1129
92	5549
93	569
97	40
98	50
108	179
109	709
110	179
118	99
119	80
120	4079
121	349
136	159
137	9999
138	979
139	80
