Mass Spectrum: Benzene, 1-methyl-3-nitro-
Formula: C7 H7 N O2
CAS: 99-08-1
Molecular weight: 137
Origin: Japan AIST/NIMC Database- Spectrum MS-NW-2183
m/z	RELATIVE INTENSITY
15	10
17	10
18	30
26	50
27	179
28	60
29	10
30	359
37	109
38	239
39	1689
40	109
41	469
42	10
43	40
44	30
46	50
49	40
50	419
51	689
52	179
53	159
54	10
60	10
61	119
62	339
63	1049
64	309
65	4639
66	279
73	20
74	99
75	99
76	60
77	649
78	139
79	739
80	60
84	10
85	30
86	60
87	60
88	20
89	759
90	419
91	9999
92	799
93	20
104	20
105	20
106	70
107	769
108	60
120	30
121	159
122	10
135	10
136	50
137	5119
138	429
139	30
