Mass Spectrum: 5-Nitro-m-xylene
Formula: C8 H9 N O2
CAS: 99-12-7
Molecular weight: 151
Origin: NIST Mass Spectrometry Data Center
m/z	RELATIVE INTENSITY
26	20
27	270
29	20
30	200
37	50
38	190
39	1181
40	90
41	170
42	10
43	40
46	190
49	30
50	550
51	1341
52	430
53	761
54	50
55	50
61	130
62	480
63	1401
64	320
65	851
66	120
67	50
73	30
74	290
75	240
76	240
77	6156
78	1521
79	5465
80	370
81	10
85	30
86	100
87	110
88	20
89	420
90	120
91	1031
92	100
93	460
94	50
97	10
98	50
99	10
101	50
102	400
103	4084
104	1071
105	9028
106	861
107	40
116	20
117	10
118	30
119	10
120	30
121	1171
122	100
131	10
134	90
135	100
136	20
149	20
150	120
151	9999
152	941
153	70
