Mass Spectrum: Trehalose
Formula: C12 H22 O11
CAS: 99-20-7
Molecular weight: 342
Origin: RADIAN CORP
m/z	RELATIVE INTENSITY
15	50
17	60
18	330
19	110
26	70
27	340
28	830
29	1540
30	250
31	1650
32	310
33	10
38	80
39	450
40	130
41	730
42	1120
43	3080
44	3530
45	1390
46	120
47	450
49	100
50	20
51	90
52	70
53	270
54	210
55	1360
56	1310
57	3400
58	520
59	330
60	6390
61	2430
62	150
63	20
65	30
66	10
67	100
68	230
69	1420
70	810
71	1990
72	900
73	9999
74	1350
75	170
76	60
77	210
79	40
80	100
81	270
82	70
83	200
84	270
85	1740
86	540
87	800
88	110
89	390
90	190
91	590
95	240
96	300
97	1300
98	880
99	290
100	60
101	550
102	520
103	690
104	50
109	280
110	320
111	60
112	30
113	290
114	170
115	410
116	360
117	80
119	170
125	60
126	470
127	450
128	100
129	20
130	100
131	310
132	80
133	220
143	60
144	360
145	640
146	690
147	110
149	100
155	10
161	20
162	50
163	410
173	40
235	70
