Mass Spectrum: Phenol, 2,6-dibromo-4-nitro-
Formula: C6 H3 Br2 N O3
CAS: 99-28-5
Molecular weight: 295
Origin: Japan AIST/NIMC Database- Spectrum MS-NW-3153
m/z	RELATIVE INTENSITY
12	10
16	10
18	10
24	20
25	99
26	80
27	30
28	299
29	109
30	1339
31	50
32	10
36	139
37	659
38	299
39	189
40	20
41	10
42	10
43	10
44	109
45	80
46	90
48	50
49	239
50	579
51	329
52	219
53	2609
54	99
55	10
57	10
60	329
61	2139
62	4279
63	2689
64	159
65	70
66	159
67	10
68	30
69	30
70	50
71	60
72	40
73	219
74	359
75	99
76	109
77	99
78	129
79	299
80	80
81	119
82	70
84	10
85	30
86	30
87	10
88	10
89	99
90	2739
91	2359
92	179
93	60
94	20
103	10
104	80
105	50
106	90
107	50
109	30
115	30
116	129
117	369
118	129
119	339
120	30
122	20
128	40
129	209
130	149
131	399
132	129
133	199
134	20
135	20
137	10
139	30
140	189
141	1079
142	579
143	1059
144	399
145	40
146	20
152	20
153	10
154	30
155	20
156	40
157	519
158	119
159	519
160	99
161	10
168	30
169	1469
170	2839
171	1589
172	2759
173	209
174	10
175	30
184	109
185	1459
186	229
187	1459
188	139
189	30
195	50
197	90
199	70
200	10
201	50
202	10
209	50
210	10
211	90
213	50
217	40
218	10
219	50
220	50
221	759
222	129
223	1419
224	119
225	689
226	40
236	20
237	149
238	40
239	309
240	40
241	159
242	20
243	10
244	10
248	159
249	529
250	339
251	1019
252	219
253	509
254	40
263	90
264	20
265	2459
266	189
267	4509
268	319
269	2189
270	149
271	10
279	179
280	20
281	349
282	30
283	159
284	10
295	5109
296	379
297	9999
298	719
299	4929
300	349
301	40
