Mass Spectrum: Benzoic acid, 3-methyl-, methyl ester
Formula: C9 H10 O2
CAS: 99-36-5
Molecular weight: 150
Origin: Zaikin V.G., TIPS RAS, Moscow, Russia
m/z	RELATIVE INTENSITY
28	10
29	20
36	50
38	50
39	330
40	30
41	80
44	40
45	30
50	130
51	180
52	60
59	70
61	30
62	130
63	380
64	110
65	881
66	50
74	90
75	40
76	30
77	70
78	30
79	30
86	30
87	30
89	460
90	260
91	4044
92	320
105	110
118	40
119	9999
120	761
121	50
133	30
135	110
149	140
150	3623
151	340
152	30
