Mass Spectrum: 1,3,5-Trinitrobenzene
Formula: C6 H3 N3 O6
CAS: 99-35-4
Molecular weight: 213
Origin: Japan AIST/NIMC Database- Spectrum MS-IW-5430
m/z	RELATIVE INTENSITY
27	10
28	189
29	20
30	3709
31	10
37	119
38	189
39	40
44	20
46	199
49	40
50	119
51	80
52	30
53	40
55	10
60	10
61	179
62	509
63	629
64	70
65	20
66	30
67	10
69	10
73	269
74	2869
75	4949
76	399
77	60
78	10
79	50
80	10
81	10
86	10
87	50
88	40
89	40
90	40
91	989
92	80
93	20
104	30
105	20
107	10
120	1879
121	159
122	10
135	10
137	309
138	20
151	20
167	949
168	60
183	20
197	139
198	10
213	9999
214	799
215	49
