Mass Spectrum: Benzoyl chloride, 3,5-dinitro-
Formula: C7 H3 Cl N2 O5
CAS: 99-33-2
Molecular weight: 230
Origin: NIST Mass Spectrometry Data Center, 2010
m/z	RELATIVE INTENSITY
18	10
26	10
28	40
29	10
30	290
35	30
36	110
37	100
38	130
39	10
44	30
46	100
48	10
49	50
50	100
51	30
52	10
53	60
60	20
61	130
62	220
63	440
64	50
65	30
66	10
69	10
72	20
73	310
74	1822
75	4094
76	300
77	30
78	10
79	20
84	30
85	30
86	50
87	50
88	40
89	20
90	20
91	230
92	20
96	10
97	20
98	30
99	10
100	10
101	160
102	40
103	1031
104	80
105	10
107	20
108	10
109	50
110	160
111	30
112	60
113	10
118	10
119	220
120	210
121	60
122	10
124	10
125	10
126	30
128	10
137	350
138	90
139	120
140	30
148	140
149	2112
150	170
151	20
154	10
165	60
166	10
167	10
179	180
180	20
184	20
186	10
195	9999
196	811
197	130
198	10
200	10
202	10
214	40
216	10
