Mass Spectrum: Carvone
Formula: C10 H14 O
CAS: 99-49-0
Molecular weight: 150
Origin: N.W. Davies, Centr. Sci. Lab., Univ. Tasmania, Hobart, Australia
m/z	RELATIVE INTENSITY
27	820
29	200
38	200
39	3410
40	110
41	2280
42	200
43	120
50	290
51	670
52	370
53	1660
54	4360
55	450
58	970
63	190
65	430
66	210
67	730
68	200
69	310
77	700
78	200
79	980
80	470
82	9999
83	570
91	810
92	440
93	2610
94	530
95	320
105	190
106	1110
107	1620
108	2540
109	370
121	140
122	130
135	280
150	970
151	110
