Mass Spectrum: Benzenamine, 2-methyl-5-nitro-
Formula: C7 H8 N2 O2
CAS: 99-55-8
Molecular weight: 152
Origin: NIST Mass Spectrometry Data Center, 1990.
m/z	RELATIVE INTENSITY
14	39
15	68
16	41
17	54
18	75
25	31
26	133
27	481
28	1085
29	131
30	716
32	10
36	25
37	163
38	568
39	1460
40	272
41	514
42	429
43	38
44	46
46	215
49	110
50	948
51	1951
52	1456
53	1230
54	639
55	113
56	24
61	120
62	310
63	773
64	337
65	649
66	673
67	424
68	124
73	87
74	321
75	298
76	87
77	7667
78	1925
79	6174
80	680
81	55
85	24
86	58
87	58
88	60
89	233
90	95
91	196
92	125
93	586
94	1828
95	127
99	32
100	27
102	68
104	1375
105	900
106	6899
107	695
108	35
110	28
118	18
119	29
120	32
121	156
122	881
123	96
124	51
135	34
136	143
137	27
149	42
152	9999
153	878
154	60
