Mass Spectrum: Benzenamine, 2-methoxy-5-nitro-
Formula: C7 H8 N2 O3
CAS: 99-59-2
Molecular weight: 168
Origin: NIST Mass Spectrometry Data Center
m/z	RELATIVE INTENSITY
15	110
26	60
27	70
29	110
30	681
31	20
37	100
38	280
39	470
40	150
41	611
42	180
43	30
44	160
45	10
46	140
49	100
50	711
51	1962
52	3823
53	1091
54	380
55	140
56	50
57	10
58	20
60	10
61	190
62	460
63	821
64	410
65	1842
66	430
67	1611
68	330
69	130
70	10
73	10
74	100
75	140
76	350
77	1842
78	1742
79	3183
80	941
81	90
82	230
83	20
84	20
87	10
88	30
89	90
90	480
91	370
92	1141
93	881
94	410
95	3153
96	220
97	10
102	10
103	10
104	50
105	30
106	250
107	1541
108	140
109	40
110	911
111	70
119	10
120	70
121	280
122	2662
123	581
124	40
125	70
137	50
138	510
139	70
140	10
149	30
150	160
151	20
152	150
153	3493
154	250
155	30
168	9999
169	881
170	90
