Mass Spectrum: Benzene, 1,3-bis(1-methylethyl)-
Formula: C12 H18
CAS: 99-62-7
Molecular weight: 162
Origin: Japan AIST/NIMC Database- Spectrum MS-NW-5092
m/z	RELATIVE INTENSITY
15	60
26	20
27	599
28	40
29	129
38	30
39	539
40	50
41	1309
42	60
43	3339
44	119
50	129
51	449
52	119
53	209
54	20
55	99
56	20
57	60
58	99
59	60
62	50
63	229
64	249
65	519
66	519
67	50
69	40
70	30
71	70
72	40
73	70
74	50
75	90
76	70
77	719
78	239
79	559
80	40
81	10
82	10
85	20
86	20
87	30
88	10
89	99
90	30
91	2569
92	229
93	50
98	10
101	30
102	109
103	409
104	159
105	3019
106	299
107	60
113	10
114	10
115	479
116	239
117	479
118	149
119	4179
120	429
121	20
126	10
127	90
128	219
129	159
130	70
131	419
132	149
133	649
134	70
139	10
141	20
142	10
143	20
144	10
145	329
146	109
147	9999
148	1439
149	99
160	50
161	80
162	3639
163	509
164	40
