Mass Spectrum: Valproic Acid
Formula: C8 H16 O2
CAS: 99-66-1
Molecular weight: 144
Origin: NIST Mass Spectrometry Data Center
m/z	RELATIVE INTENSITY
14	20
15	70
26	90
27	1431
28	320
29	1131
30	30
31	100
38	50
39	861
40	160
41	1962
42	400
43	1131
44	50
45	591
46	20
50	20
51	60
53	180
54	90
55	1411
56	230
57	1471
58	90
59	140
60	100
65	30
67	80
68	50
69	230
70	40
71	50
73	9999
74	450
75	50
77	20
79	20
81	20
82	20
83	160
84	80
85	20
87	80
88	20
97	60
98	30
99	20
101	751
102	6536
103	350
104	40
115	530
116	30
