Mass Spectrum: Benzene, 1,3-dinitro-
Formula: C6 H4 N2 O4
CAS: 99-65-0
Molecular weight: 168
Origin: NIST Mass Spectrometry Data Center, 1990.
m/z	RELATIVE INTENSITY
16	58
17	16
25	60
26	154
27	156
28	277
29	16
30	8825
31	47
36	52
37	551
38	792
39	835
40	87
41	36
44	74
45	69
46	250
50	6487
51	1098
52	454
53	197
54	90
55	141
60	68
61	344
62	545
63	1826
64	2217
65	174
66	125
72	37
73	527
74	2877
75	7321
76	7549
77	720
78	76
79	109
80	72
86	34
87	53
88	60
90	72
92	3578
93	215
105	51
106	68
107	110
108	45
122	3125
123	210
124	31
138	277
139	24
152	557
153	39
168	9999
169	734
170	113
