Mass Spectrum: Benzaldehyde, 3-nitro-
Formula: C7 H5 N O3
CAS: 99-61-6
Molecular weight: 151
Origin: Japan AIST/NIMC Database- Spectrum MS-IW-3685
m/z	RELATIVE INTENSITY
17	10
18	30
25	10
26	40
27	249
28	229
29	299
30	359
36	20
37	239
38	309
39	449
40	20
41	10
43	10
44	10
46	30
48	10
49	159
50	2259
51	5279
52	259
53	90
55	10
57	10
60	30
61	149
62	209
63	349
64	229
65	739
66	60
72	10
73	199
74	1089
75	1139
76	2049
77	6859
78	469
79	10
84	10
85	30
86	50
87	30
88	20
89	10
90	10
91	20
92	329
93	99
94	10
103	80
104	1609
105	5179
106	409
107	20
119	10
120	40
121	199
122	129
123	30
133	10
134	10
135	109
136	10
137	10
150	8059
151	9999
152	829
153	90
