Mass Spectrum: Benzoic acid, 4-nitro-, ethyl ester
Formula: C9 H9 N O4
CAS: 99-77-4
Molecular weight: 195
Origin: Japan AIST/NIMC Database- Spectrum MS-NW-9044
m/z	RELATIVE INTENSITY
15	20
18	10
26	40
27	369
28	129
29	789
30	309
32	10
37	10
38	70
39	229
40	10
43	70
44	10
45	1209
46	30
49	10
50	1249
51	329
52	30
53	119
55	10
62	50
63	209
64	299
65	1319
66	90
67	10
73	20
74	419
75	1329
76	2409
77	379
78	40
79	20
81	149
82	10
89	10
90	20
91	50
92	1149
93	259
94	30
96	10
102	10
103	959
104	3169
105	299
106	30
107	10
108	10
109	369
110	20
117	10
119	30
120	1169
121	1289
122	209
123	40
131	10
134	559
135	879
136	90
137	379
138	30
148	219
149	289
150	9999
151	1439
152	159
153	20
162	10
165	60
166	10
167	4659
168	559
169	60
176	10
177	60
178	2299
179	349
180	80
181	10
194	129
195	749
196	80
197	10
