Mass Spectrum: Benzoic acid, 4-methyl-, methyl ester
Formula: C9 H10 O2
CAS: 99-75-2
Molecular weight: 150
Origin: Japan AIST/NIMC Database- Spectrum MS-NW- 688
m/z	RELATIVE INTENSITY
15	159
17	10
18	40
26	10
27	60
28	289
29	30
30	10
31	10
32	40
37	30
38	90
39	629
40	40
41	179
44	20
45	60
49	10
50	219
51	299
52	60
53	30
59	70
61	60
62	189
63	489
64	129
65	1269
66	70
69	10
74	99
75	40
76	30
77	90
78	40
79	10
85	10
86	30
87	40
88	20
89	439
90	299
91	3989
92	329
93	10
105	119
106	50
107	30
118	60
119	9999
120	929
121	90
133	40
135	50
136	10
148	10
149	149
150	3359
151	339
152	30
