Mass Spectrum: Cyclohexene, 4-methylene-1-(1-methylethyl)-
Formula: C10 H16
CAS: 99-84-3
Molecular weight: 136
m/z	RELATIVE INTENSITY
41	1802
43	751
51	500
53	601
55	400
65	500
67	400
68	100
69	701
77	2702
78	550
79	2702
80	651
81	200
91	2702
92	851
93	9999
94	1001
95	100
105	951
107	550
119	100
121	1101
136	2102
