Mass Spectrum: .gamma.-Terpinene
Formula: C10 H16
CAS: 99-85-4
Molecular weight: 136
Origin: Japan AIST/NIMC Database- Spectrum MS-NW-9657
m/z	RELATIVE INTENSITY
15	10
26	10
27	519
28	40
29	259
38	30
39	689
40	99
41	999
42	50
43	1759
44	60
50	90
51	409
52	169
53	409
54	30
55	279
56	20
57	80
58	109
59	50
60	20
62	40
63	159
64	50
65	519
66	80
67	259
68	90
69	50
74	20
75	30
76	20
77	2819
78	429
79	1859
80	779
81	209
82	20
87	10
89	80
90	30
91	3729
92	2149
93	9999
94	959
95	70
102	40
103	219
104	90
105	979
106	229
107	729
108	129
109	10
115	149
116	40
117	169
118	30
119	869
120	109
121	3039
122	299
123	10
133	10
134	189
135	80
136	3589
137	419
138	20
