Mass Spectrum: Acetophenone, 4'-hydroxy-
Formula: C8 H8 O2
CAS: 99-93-4
Molecular weight: 136
Origin: Japan AIST/NIMC Database- Spectrum MS-NW-8737
m/z	RELATIVE INTENSITY
14	10
15	90
17	20
18	80
26	30
27	99
28	40
29	40
31	10
32	10
37	50
38	209
39	1179
40	70
41	20
42	60
43	729
44	40
46	50
49	20
50	179
51	219
52	60
53	279
54	70
55	60
57	10
58	10
60	90
61	70
62	179
63	419
64	239
65	2229
66	219
67	30
73	20
74	90
75	70
76	30
77	239
78	40
79	90
81	10
89	30
90	10
91	30
92	169
93	3319
94	299
95	20
105	10
107	109
108	10
118	10
119	10
120	70
121	9999
122	789
123	70
128	20
135	40
136	3339
137	309
138	30
