Mass Spectrum: Acetophenone, 4'-amino-
Formula: C8 H9 N O
CAS: 99-92-3
Molecular weight: 135
Origin: Japan AIST/NIMC Database- Spectrum MS-NW-1557
m/z	RELATIVE INTENSITY
14	40
15	209
17	30
18	10
26	40
27	129
28	189
29	20
30	10
37	119
38	349
39	1209
40	129
41	389
42	139
43	709
44	40
45	109
46	309
49	30
50	249
51	279
52	439
53	219
54	139
55	10
58	10
60	209
61	129
62	239
63	589
64	479
65	3439
66	529
67	40
71	10
73	20
74	90
75	90
76	70
77	279
78	99
79	169
80	50
86	10
87	20
88	20
89	70
90	90
91	359
92	4839
93	419
94	20
104	50
105	10
106	259
107	20
108	10
117	30
118	30
119	99
120	9999
121	839
122	60
134	20
135	4799
136	449
137	30
