Mass Spectrum: Ethanone, 1-(4-chlorophenyl)-
Formula: C8 H7 Cl O
CAS: 99-91-2
Molecular weight: 154
Origin: Japan AIST/NIMC Database- Spectrum MS-NW-3158
m/z	RELATIVE INTENSITY
14	20
15	189
18	10
26	20
27	40
28	30
35	10
36	30
37	109
38	209
39	119
42	70
43	1379
44	40
45	30
47	10
48	10
49	90
50	889
51	469
52	40
53	20
55	99
56	30
60	20
61	119
62	119
63	209
64	30
65	40
69	139
70	50
72	20
73	179
74	539
75	1719
76	479
77	209
78	10
84	60
85	219
86	50
87	80
89	129
90	30
91	50
97	20
98	20
99	40
101	20
102	40
103	10
104	80
105	10
108	10
109	10
110	60
111	4199
112	419
113	1369
114	129
123	10
125	80
126	10
127	20
138	10
139	9999
140	759
141	3169
142	259
143	10
154	2669
155	229
156	879
157	80
