Mass Spectrum: Silane, methyl-
Formula: C H6 Si
CAS: 992-94-9
Molecular weight: 46
Origin: R.W.CRAWFORD UNIV. OF CALIFORNIA, LIVERMORE, CALIFORNIA, USA
m/z	RELATIVE INTENSITY
2	82
12	80
13	117
14	217
15	374
28	2795
29	2590
31	1508
32	149
33	45
40	281
41	1518
42	2177
43	4683
44	9999
45	7749
46	794
47	246
48	5
