Mass Spectrum: Hexaphenylbenzene
Formula: C42 H30
CAS: 992-04-1
Molecular weight: 534
Origin: D.HENNEBERG, MAX-PLANCK INSTITUTE, MULHEIM, WEST GERMANY
m/z	RELATIVE INTENSITY
26	13
28	113
29	12
32	19
39	21
41	20
44	9
50	17
51	34
52	10
53	8
55	9
63	9
65	6
74	5
75	9
76	37
77	68
78	19
79	9
89	12
91	54
92	5
102	9
103	124
104	13
105	8
115	18
126	14
127	6
128	10
129	9
137	5
138	11
139	16
141	6
145	7
146	6
149	16
150	24
151	36
152	68
153	18
154	18
155	4
157	11
158	13
159	8
162	16
163	26
164	11
165	145
166	35
167	157
168	26
169	13
170	7
174	19
175	58
176	83
177	54
178	272
179	91
182	66
183	6
186	14
187	81
188	188
189	239
190	27
191	40
193	21
194	55
195	58
196	6
199	69
200	181
201	88
202	35
203	14
204	10
207	283
208	65
209	12
211	59
212	208
213	244
214	113
215	30
216	12
219	218
220	202
221	60
222	13
224	203
225	225
226	111
227	64
228	152
231	202
232	123
233	27
234	41
236	88
237	156
238	152
239	96
240	36
241	26
244	78
245	72
246	141
247	20
248	17
249	35
250	51
251	44
252	100
253	62
254	18
255	17
256	14
257	11
258	11
259	21
260	6
261	9
262	7
263	37
264	18
265	183
266	67
267	212
268	35
269	4
274	17
275	15
276	97
277	63
278	81
279	63
280	18
281	4
287	14
288	9
289	103
290	37
291	63
292	19
293	4
298	9
299	10
300	48
301	35
302	115
303	58
304	16
311	11
312	8
313	35
314	19
315	29
316	12
317	7
322	5
323	6
324	24
325	14
326	70
327	37
328	20
329	10
335	9
336	6
337	35
338	22
339	100
340	40
341	32
342	13
343	4
346	5
347	6
348	23
349	21
350	97
351	77
352	110
353	74
354	43
355	60
356	27
357	9
359	7
360	7
361	30
362	29
363	220
364	148
365	301
366	149
367	118
368	45
369	13
370	7
372	16
373	17
374	71
375	73
376	246
377	219
378	260
379	271
380	149
381	38
382	9
383	6
385	14
386	13
387	58
388	40
389	67
390	47
391	69
392	40
393	21
394	10
397	7
398	25
399	24
400	96
401	81
402	79
403	74
404	41
405	14
406	6
408	4
409	11
410	9
411	42
412	32
413	121
414	66
415	165
416	84
417	32
418	10
420	5
421	5
422	16
423	16
424	58
425	60
426	85
427	106
428	89
429	72
430	37
431	16
432	10
433	10
434	10
435	26
436	20
437	80
438	58
439	125
440	88
441	222
442	151
443	96
444	28
445	8
446	9
447	9
448	33
449	30
450	59
451	57
452	60
453	75
454	80
455	216
456	166
457	289
458	434
459	276
460	86
461	33
462	16
463	26
464	19
465	21
466	11
467	30
468	13
469	36
470	17
471	5
472	9
473	8
474	14
475	16
476	21
477	28
478	43
479	54
480	50
481	37
482	14
483	8
485	8
486	6
487	11
488	10
489	18
490	14
491	50
492	29
493	184
494	80
495	17
496	5
498	6
499	4
503	20
504	26
505	46
506	33
507	27
508	12
511	5
513	6
514	5
515	9
516	9
517	27
518	28
519	55
520	24
521	7
525	4
531	22
532	70
533	214
534	9999
535	4273
536	922
537	141
