Mass Spectrum: Stannane, trimethyl(methylthio)-
Formula: C4 H12 S Sn
CAS: 993-46-4
Molecular weight: 212
Origin: Japan AIST/NIMC Database- Spectrum MS-NW-7702
m/z	RELATIVE INTENSITY
14	20
15	489
16	30
26	10
27	20
32	70
33	30
34	40
35	80
39	20
40	10
41	70
42	20
43	20
44	439
45	439
46	209
47	309
48	159
49	30
50	10
55	50
56	30
57	30
58	40
59	20
61	829
62	70
63	30
64	40
69	30
70	20
71	20
72	20
75	10
76	40
77	10
78	10
79	219
81	20
82	10
83	10
84	10
85	10
94	439
95	20
96	50
97	20
98	30
99	10
105	10
112	30
113	30
114	30
115	40
116	499
117	599
118	959
119	819
120	1239
121	749
122	159
123	109
124	199
125	139
126	50
127	129
128	20
129	129
130	229
131	1819
132	1139
133	2869
134	1309
135	3699
136	109
137	589
138	80
139	689
140	179
141	30
142	60
143	70
144	30
145	60
146	279
147	849
148	789
149	1389
150	1059
151	1679
152	409
153	309
154	139
155	289
156	80
157	60
158	10
159	109
160	30
161	749
162	449
163	1869
164	979
165	2919
166	1009
167	3189
168	169
169	779
170	60
171	569
172	20
173	60
174	40
175	10
176	30
177	40
178	539
179	339
180	929
181	469
182	1269
183	139
184	259
185	119
186	249
187	50
188	10
189	309
190	20
191	229
192	129
193	4359
194	2429
195	7389
196	2929
197	9999
198	539
199	1809
200	80
201	1809
202	80
203	80
204	70
206	50
207	30
208	969
209	559
210	1609
211	629
212	2179
213	129
214	409
215	10
216	389
217	10
218	20
