Mass Spectrum: Methylphosphonic acid
Formula: C H5 O3 P
CAS: 993-13-5
Molecular weight: 96
Origin: Pu Leung, NIH, Bethesda, MD
m/z	RELATIVE INTENSITY
42	160
43	236
44	211
45	240
47	2949
48	1104
49	400
50	126
51	92
53	15
54	8
55	45
56	14
57	31
58	4
59	59
60	73
61	75
63	1460
64	446
65	720
66	48
75	21
76	11
78	5169
79	1476
81	9999
82	77
94	10
95	12
96	6342
97	1345
98	143
