Mass Spectrum: Digermane, hexaethyl-
Formula: C12 H30 Ge2
CAS: 993-62-4
Molecular weight: 322
m/z	RELATIVE INTENSITY
74	110
75	380
77	430
103	1611
105	3603
131	220
132	160
133	4034
149	701
151	1131
161	1341
163	160
165	50
175	160
177	270
179	1291
181	971
207	380
209	4784
237	9999
238	811
265	8398
266	540
293	8067
294	811
322	2312
