Mass Spectrum: 3,4,4,-Trimethyl-1-pentyn-3-ol
Formula: C8 H14 O
CAS: 993-53-3
Molecular weight: 126
Origin: NIST Mass Spectrometry Data Center, 1990.
m/z	RELATIVE INTENSITY
15	298
26	159
27	790
29	1267
31	116
38	353
39	2563
40	619
41	5707
42	1008
43	7690
44	232
50	613
51	970
52	380
53	1386
55	2619
57	9999
58	508
59	109
62	131
63	208
65	376
66	143
67	508
69	4798
70	5554
71	786
77	1044
78	174
79	207
81	371
82	116
83	771
84	242
85	111
91	616
93	886
95	144
96	136
100	110
111	2343
112	227
