Mass Spectrum: 5-Methyl-1-hepten-4-ol
Formula: C8 H16 O
CAS: 99328-46-8
Molecular weight: 128
Origin: NIST Mass Spectrometry Data Center, 1990.
m/z	RELATIVE INTENSITY
15	235
26	245
27	2134
28	1195
29	2771
30	135
31	851
32	174
39	2341
41	5658
42	793
43	3859
45	9999
46	214
51	174
53	454
54	146
55	643
56	313
57	2217
58	406
59	136
67	246
69	4187
70	542
71	1648
81	146
85	141
87	5704
88	325
