Mass Spectrum: Germane, tetrapropyl-
Formula: C12 H28 Ge
CAS: 994-65-0
Molecular weight: 246
Origin: J.DE RIDDER UTRECHT UNIVERSITY, UTRECHT, HOLLAND
m/z	RELATIVE INTENSITY
27	417
39	231
41	467
42	116
43	216
74	361
75	297
77	373
89	986
90	150
91	1327
103	272
115	114
116	162
117	363
118	254
119	3374
120	110
160	162
161	9999
162	670
203	5198
204	640
