Mass Spectrum: Malic acid, 3TBDMS derivative
Formula: C22 H48 O5 Si3
CAS: 99461-86-6
Molecular weight: 476
Origin: NIST Mass Spectrometry Data Center
m/z	RELATIVE INTENSITY
27	40
29	200
30	10
31	20
38	10
39	80
41	450
42	30
43	120
44	30
45	340
46	20
47	120
48	10
53	40
55	951
56	170
57	671
58	280
59	911
60	100
61	90
62	10
66	10
67	10
68	10
69	90
70	20
71	50
73	9999
74	1151
75	1661
76	100
77	60
79	10
81	10
82	10
83	50
84	30
85	180
86	50
87	30
88	10
89	20
95	10
96	10
97	30
99	330
100	100
101	370
102	50
103	100
104	20
105	30
111	10
113	50
115	3403
116	430
117	330
118	40
119	140
120	20
121	10
127	20
128	30
129	380
130	50
131	340
132	130
133	2462
134	360
135	270
136	30
137	10
141	10
143	70
144	20
145	110
147	5235
148	881
149	1021
150	130
151	160
152	20
153	10
155	10
156	40
157	70
158	20
159	140
160	30
161	110
162	40
163	40
164	10
165	10
169	10
171	40
173	220
174	50
175	621
176	150
177	400
178	60
179	40
181	10
185	110
186	20
187	30
189	1381
190	300
191	220
192	40
193	70
194	10
195	10
201	20
202	20
203	420
204	100
205	130
207	591
208	120
209	70
210	10
213	350
214	60
215	30
217	671
218	140
219	140
220	20
221	190
222	40
223	30
224	10
229	10
230	30
231	100
232	30
233	20
235	10
243	10
245	200
246	100
247	550
248	110
249	70
250	10
251	10
257	30
259	510
260	130
261	70
262	10
263	60
264	10
265	10
273	100
274	30
275	40
276	10
277	10
287	5395
288	1331
289	681
290	120
291	30
301	230
302	60
303	30
304	10
305	10
315	10
317	320
318	90
319	40
320	10
329	290
330	80
331	40
332	10
333	20
334	10
343	20
344	10
345	10
347	180
348	60
349	450
350	140
351	70
352	10
361	30
362	10
363	10
375	130
376	40
377	30
378	10
389	10
391	530
392	180
393	80
394	20
403	1081
404	380
405	180
406	40
407	10
417	20
419	6816
420	2622
421	1261
422	300
423	70
424	10
431	10
432	10
433	10
445	30
446	10
461	350
462	140
463	60
464	20
