Mass Spectrum: Citric acid, 4TBDMS derivative
Formula: C30 H64 O7 Si4
CAS: 99477-48-2
Molecular weight: 648
Origin: NIST Mass Spectrometry Data Center
m/z	RELATIVE INTENSITY
27	20
28	10
29	140
31	10
39	60
40	30
41	360
42	20
43	60
44	20
45	200
46	10
47	70
53	20
54	10
55	60
56	110
57	671
58	190
59	520
60	60
61	50
66	10
67	110
68	20
69	40
70	10
71	20
73	9999
74	1001
75	1131
76	70
77	40
79	10
81	10
83	30
84	10
85	110
86	30
87	10
88	20
89	10
95	30
96	10
97	60
98	20
99	250
100	60
101	60
102	20
103	60
104	10
105	10
109	10
111	20
112	10
113	40
114	20
115	861
116	220
117	190
118	30
119	50
120	10
121	10
123	10
124	10
125	10
127	10
128	10
129	30
130	10
131	160
132	50
133	721
134	100
135	80
136	10
137	10
139	10
141	70
142	20
143	120
144	20
145	50
147	3683
148	621
149	981
150	130
151	80
152	10
153	10
155	10
156	10
157	80
158	20
159	90
160	20
161	20
162	10
163	10
169	90
170	20
171	100
172	20
173	130
174	30
175	60
176	30
177	60
178	10
179	10
183	20
184	10
185	70
186	10
187	30
188	10
189	470
190	160
191	200
192	40
193	80
194	10
195	10
197	10
199	30
200	10
201	50
202	30
203	40
204	10
205	70
206	10
207	480
208	100
209	70
210	10
211	20
213	120
214	20
215	160
216	40
217	140
218	40
219	30
221	420
222	100
223	70
224	10
225	110
226	20
227	40
228	10
229	10
230	10
231	100
232	30
233	30
234	10
235	10
237	10
241	10
242	10
243	90
244	30
245	60
246	30
247	30
248	10
249	20
251	10
253	460
254	90
255	40
256	10
257	60
258	40
259	591
260	140
261	80
262	20
263	100
264	30
265	20
266	10
267	10
269	10
271	10
272	10
273	120
274	30
275	40
276	10
277	10
281	10
283	20
284	10
285	30
286	10
287	160
288	40
289	20
290	10
291	10
299	380
300	110
301	130
302	30
303	40
304	10
305	20
307	10
313	90
314	30
315	70
316	20
317	40
318	10
319	10
320	10
327	190
328	60
329	70
330	20
331	20
333	130
334	40
335	30
336	10
341	80
342	20
343	40
344	10
345	30
346	10
347	60
348	20
349	30
350	10
355	10
357	2652
358	801
359	330
360	80
361	50
362	20
363	10
369	50
370	10
371	10
373	30
374	10
375	150
376	50
377	80
378	20
379	10
385	390
386	120
387	220
388	70
389	100
390	30
391	30
392	10
401	20
402	30
403	30
404	10
407	10
415	90
416	40
417	350
418	180
419	350
420	120
421	50
422	10
429	10
431	3073
432	1111
433	530
434	130
435	30
436	10
443	10
444	10
445	80
446	30
447	10
457	20
459	7377
460	2933
461	1401
462	350
463	90
464	20
471	10
473	120
474	50
475	90
476	30
477	10
487	10
489	550
490	220
491	100
492	30
493	10
499	20
501	460
502	190
503	80
504	20
505	20
506	10
515	10
516	10
519	50
520	20
521	10
533	10
534	10
535	10
547	40
548	20
549	10
563	60
564	30
565	10
573	10
575	10
589	10
591	5305
592	2622
593	1351
594	440
595	130
596	30
597	10
617	10
633	240
634	130
635	70
636	20
637	10
