Mass Spectrum: Silane, tributylchloro-
Formula: C12 H27 Cl Si
CAS: 995-45-9
Molecular weight: 234
Origin: RADIAN CORP
m/z	RELATIVE INTENSITY
26	20
27	620
29	1560
39	260
40	10
41	510
42	30
43	240
44	10
45	70
53	90
54	50
55	930
56	90
57	230
58	40
63	1130
64	120
65	1170
66	80
67	310
69	20
71	20
77	60
78	420
79	3480
80	380
81	1280
82	90
83	210
85	230
86	20
90	110
91	840
92	1160
93	5110
94	770
95	1730
96	130
97	70
99	20
103	10
105	360
106	190
107	300
108	70
109	70
119	450
120	480
121	7860
122	930
123	2870
124	250
125	90
133	40
135	2120
136	220
137	760
138	70
143	110
147	20
148	80
149	330
150	50
151	100
175	50
177	9999
178	1490
179	3550
180	500
181	130
199	50
