Mass Spectrum: 1-(2,4-Dimethylphenyl)ethanol
Formula: C10 H14 O
CAS: 99500-87-5
Molecular weight: 150
Origin: NIST Mass Spectrometry Data Center, 1990.
m/z	RELATIVE INTENSITY
14	50
15	483
16	72
17	153
18	446
19	77
26	142
27	1362
28	262
29	532
37	111
38	364
39	2510
40	347
41	634
42	111
43	4001
44	121
45	363
50	735
51	2081
52	620
53	791
55	114
58	200
60	500
61	182
62	461
63	1548
64	842
65	2048
66	307
67	286
74	507
75	388
76	397
77	3093
78	1030
79	2364
80	162
86	114
87	162
88	62
89	626
90	62
91	8707
92	1013
93	134
101	92
102	467
103	1073
104	451
105	3749
106	92
107	9999
108	891
115	3152
116	1249
117	5540
118	627
119	216
120	90
126	65
127	279
128	479
129	449
130	177
131	1604
132	4904
133	1462
134	65
135	7964
136	786
148	122
150	2544
151	244
