Mass Spectrum: Diethylamine, TMS derivative
Formula: C7 H19 N Si
CAS: 996-50-9
Molecular weight: 145
Origin: Japan AIST/NIMC Database- Spectrum MS-NW-3431
m/z	RELATIVE INTENSITY
14	10
15	119
26	60
27	289
28	209
29	369
30	289
31	179
32	20
38	10
39	50
40	20
41	90
42	429
43	679
44	229
45	1039
46	70
47	40
49	10
52	10
53	50
54	60
55	99
56	219
57	149
58	439
59	2119
60	159
61	80
63	10
65	10
66	20
67	10
68	30
69	40
70	599
71	70
72	529
73	7449
74	649
75	329
76	20
77	219
78	10
79	20
80	10
83	10
84	20
85	20
86	389
87	60
88	20
93	30
95	10
98	20
100	159
101	80
102	149
103	10
114	199
115	30
116	60
117	10
128	80
129	20
130	9999
131	1239
132	419
133	30
144	219
145	1249
146	189
147	589
148	80
149	50
