Mass Spectrum: 2-Propanamine, N,N-dimethyl-
Formula: C5 H13 N
CAS: 996-35-0
Molecular weight: 87
Origin: Japan AIST/NIMC Database- Spectrum MS-NW-1032
m/z	RELATIVE INTENSITY
14	20
15	419
26	40
27	319
28	139
29	139
30	179
37	10
38	30
39	249
40	60
41	379
42	1189
43	479
44	2129
45	90
46	10
52	10
54	80
55	99
56	979
57	359
58	60
68	30
70	489
71	389
72	9999
73	499
74	10
84	30
85	20
86	459
87	1399
88	80
