Mass Spectrum: Hexanal, 2,2-dimethyl-
Formula: C8 H16 O
CAS: 996-12-3
Molecular weight: 128
Origin: CARL DJERASSI DEPT OF CHEM STANFORD UNIV STANFORD CALIF 94305
m/z	RELATIVE INTENSITY
27	800
28	200
29	1300
39	600
40	100
41	2100
42	200
43	4400
44	100
53	200
55	700
56	200
57	9999
58	500
69	200
71	100
72	3000
73	200
99	800
