Mass Spectrum: 1-Propanamine, 2-methyl-N-(2-methylpropyl)-N-nitroso-
Formula: C8 H18 N2 O
CAS: 997-95-5
Molecular weight: 158
Origin: Japan AIST/NIMC Database- Spectrum MS-NW- 696
m/z	RELATIVE INTENSITY
14	20
15	349
17	90
18	419
26	80
27	1669
28	699
29	3119
30	4789
31	109
32	99
37	30
38	90
39	1369
40	219
41	5579
42	6159
43	9749
44	549
45	90
47	70
50	40
51	50
52	40
53	139
54	109
55	1469
56	2259
57	9999
58	509
59	80
60	40
61	30
65	10
67	30
68	119
69	60
70	619
71	109
72	469
73	1279
74	99
77	30
78	10
80	10
81	10
82	90
83	50
84	5739
85	1409
86	1899
87	139
92	10
95	10
98	80
99	119
100	10
101	50
102	20
103	999
104	60
106	20
108	10
112	30
113	30
114	30
115	2459
116	179
117	10
123	10
126	10
127	20
128	10
129	20
141	509
142	60
143	50
153	10
157	10
158	589
159	60
