Mass Spectrum: Trimethyl thioborate
Formula: C3 H9 B S3
CAS: 997-49-9
Molecular weight: 152
m/z	RELATIVE INTENSITY
15	2090
43	1106
44	738
45	3893
46	3278
47	6393
48	3032
58	1188
59	656
60	1475
61	2459
62	451
72	1106
74	697
75	1639
77	1065
79	820
87	1967
89	1065
90	820
91	1024
104	2664
105	6352
106	4672
136	1639
137	5573
138	656
139	820
152	9999
