Mass Spectrum: 4-Bromoheptane
Formula: C7 H15 Br
CAS: 998-93-6
Molecular weight: 178
Origin: NIST Mass Spectrometry Data Center, 1992
m/z	RELATIVE INTENSITY
14	23
15	127
16	10
17	1
18	17
26	194
27	1837
28	542
29	1626
30	39
32	11
37	25
38	127
39	1517
40	377
41	4378
42	919
43	2361
44	72
49	13
50	94
51	159
52	77
53	412
54	237
55	1783
56	1377
57	9999
58	438
59	9
62	23
63	36
64	8
65	65
66	28
67	152
68	88
69	801
70	349
71	136
77	32
78	10
79	58
80	54
81	42
82	42
83	85
93	20
95	19
97	30
98	256
99	2101
100	155
105	9
106	27
107	71
108	28
109	53
119	12
120	8
121	20
122	17
123	8
151	6
