Mass Spectrum: Phosphine, tributyl-
Formula: C12 H27 P
CAS: 998-40-3
Molecular weight: 202
Origin: Japan AIST/NIMC Database- Spectrum MS-NW-3623
m/z	RELATIVE INTENSITY
15	30
26	40
27	729
28	60
29	2019
30	50
32	10
35	10
37	10
38	10
39	409
40	50
41	1729
42	149
43	369
44	20
45	359
46	90
47	419
48	519
49	169
50	10
51	20
52	10
53	139
54	50
55	1369
56	179
57	449
58	159
59	589
60	169
61	1969
62	5859
63	279
64	30
65	10
67	30
68	30
69	169
70	10
71	129
72	30
73	249
74	209
75	489
76	9999
77	379
78	199
79	10
80	20
81	10
83	40
84	10
85	60
86	10
87	169
88	169
89	959
90	499
91	129
92	219
93	10
94	10
97	20
99	10
101	60
102	109
103	549
104	3239
105	299
106	30
107	10
110	10
113	10
115	60
116	40
117	519
118	2539
119	179
120	90
122	50
129	30
130	10
131	1679
132	189
133	30
134	50
143	30
144	20
145	349
146	1379
147	219
148	20
157	20
158	10
159	109
160	539
161	80
162	50
163	10
171	40
172	10
173	3069
174	369
175	20
176	20
178	10
183	109
184	10
185	10
187	70
188	10
199	10
200	10
201	269
202	1599
203	229
204	10
