Mass Spectrum: 3-Bromooctane
Formula: C8 H17 Br
CAS: 999-64-4
Molecular weight: 192
Origin: NIST Mass Spectrometry Data Center, 1990.
m/z	RELATIVE INTENSITY
15	201
17	30
18	217
20	5
26	280
27	2677
28	676
29	3209
30	71
37	36
39	2329
40	600
41	6655
42	1562
43	6487
44	203
45	11
46	11
48	5
50	103
51	204
52	103
53	551
54	381
55	3386
56	1705
57	9999
58	380
59	1
61	5
62	17
63	40
65	92
66	41
67	244
68	123
69	799
70	931
71	9043
72	439
73	9
74	10
77	50
78	17
79	65
80	38
81	67
82	75
83	317
84	113
85	59
86	7
91	10
93	40
94	6
95	39
97	31
105	16
106	47
107	69
108	40
109	55
110	7
113	1726
114	140
119	8
120	7
121	34
122	5
123	16
134	14
135	20
136	9
137	14
