Mass Spectrum: Butane, 1-(1-methylpropoxy)-
Formula: C8 H18 O
CAS: 999-65-5
Molecular weight: 130
Origin: D.HENNEBERG, MAX-PLANCK INSTITUTE, MULHEIM, WEST GERMANY
m/z	RELATIVE INTENSITY
25	24
26	90
27	955
29	2233
30	78
31	277
38	31
39	569
40	19
41	3700
42	247
43	792
44	79
45	9468
46	212
47	12
49	7
50	16
51	30
52	6
53	100
54	52
55	624
56	678
57	9999
58	454
59	1667
60	52
69	24
71	25
72	49
73	288
74	5
75	17
83	207
84	7
85	2
87	165
100	10
101	1860
102	115
115	46
130	11
