Mass Spectrum: 2-Propenoic acid, 2-propenyl ester
Formula: C6 H8 O2
CAS: 999-55-3
Molecular weight: 112
Origin: NIST Mass Spectrometry Data Center, 1998.
m/z	RELATIVE INTENSITY
14	10
15	30
25	40
26	340
27	1360
28	90
29	270
30	20
31	80
36	10
37	80
38	180
39	1300
40	200
41	1460
42	90
43	60
44	30
45	40
50	10
51	10
52	10
53	130
54	80
55	9999
56	590
57	540
58	20
65	20
66	120
67	500
68	140
69	40
70	170
71	10
73	140
82	10
83	130
84	110
85	20
94	20
95	20
97	310
98	20
111	70
112	10
