Mass Spectrum: Diallyl maleate
Formula: C10 H12 O4
CAS: 999-21-3
Molecular weight: 196
Origin: NIST Mass Spectrometry Data Center
m/z	RELATIVE INTENSITY
15	70
25	20
26	701
27	891
29	520
30	30
31	110
37	60
38	180
39	2692
40	320
41	9999
42	701
43	250
44	100
45	210
51	10
52	10
53	310
54	1291
55	841
56	150
57	621
58	30
65	80
66	70
67	300
68	130
69	190
70	70
71	310
72	30
79	50
80	190
81	130
82	811
83	220
84	30
85	10
93	30
94	30
95	40
96	20
97	140
99	8608
100	440
101	60
107	10
109	10
110	10
111	150
112	130
113	10
122	30
123	10
124	10
127	10
137	10
138	10
139	1051
140	510
141	50
