Mass Spectrum: Hexamethyldisilazane
Formula: C6 H19 N Si2
CAS: 999-97-3
Molecular weight: 161
Origin: Japan AIST/NIMC Database- Spectrum MS-NW-3008
m/z	RELATIVE INTENSITY
15	20
27	10
28	70
29	30
31	40
32	20
42	10
43	149
44	80
45	309
46	50
47	10
50	40
51	219
52	30
53	10
55	10
56	20
57	149
58	50
59	279
60	50
61	10
65	699
66	119
70	90
71	20
72	60
73	669
74	289
75	70
76	10
77	20
84	10
85	40
86	80
87	10
88	10
93	10
99	10
100	329
101	50
102	50
103	10
104	10
113	90
114	60
115	30
116	119
117	30
118	10
129	20
130	1839
131	289
132	179
133	20
146	9999
147	1909
148	819
149	99
150	10
161	209
162	30
163	10
