Mass Spectrum: Ethanethioic acid S-tert-butyl ester
Formula: C6 H12 O S
CAS: 999-90-6
Molecular weight: 132
Origin: Japan AIST/NIMC Database- Spectrum MS-IW-2878
m/z	RELATIVE INTENSITY
14	20
15	209
26	30
27	319
28	139
29	1889
30	40
32	30
33	10
34	20
37	20
38	50
39	629
40	90
41	3479
42	219
43	3219
44	99
45	289
46	30
47	119
49	99
50	30
51	40
52	10
53	70
54	10
55	349
56	609
57	9999
58	509
59	339
60	149
61	70
69	10
71	20
73	10
74	30
75	739
76	319
77	229
78	20
87	40
88	109
89	60
90	70
98	10
99	559
100	40
117	10
132	1239
133	90
134	60
