Mass Spectrum: Octane, 4-chloro-
Formula: C8 H17 Cl
CAS: 999-07-5
Molecular weight: 148
Origin: NIST Mass Spectrometry Data Center, 1990.
m/z	RELATIVE INTENSITY
27	2421
28	125
29	2356
36	125
39	2992
41	8922
42	3436
43	2842
44	120
49	218
50	167
51	456
52	202
53	1169
54	1001
55	9019
56	6446
57	3638
58	140
62	393
63	463
64	149
65	351
66	102
67	868
68	1056
69	4483
70	9999
71	1845
75	259
76	235
77	250
78	100
79	124
82	1564
83	5584
84	3658
85	269
97	573
112	1559
113	152
