Mass Spectrum: 2-Pentyne, 4,4-dimethyl-
Formula: C7 H12
CAS: 999-78-0
Molecular weight: 96
Origin: NIST Mass Spectrometry Data Center, 1990.
m/z	RELATIVE INTENSITY
14	175
15	600
26	142
27	1073
28	137
29	360
37	150
38	377
39	2597
40	452
41	2375
42	128
50	488
51	778
52	362
53	3272
54	278
55	837
56	175
61	101
62	273
63	479
64	120
65	909
66	543
67	365
77	992
79	3768
81	9999
82	677
96	2368
97	193
