Mass Spectrum: iso-Propyl N-methyl anthranilate
Formula: C11 H15 N O2
CAS: 99985-64-5
Molecular weight: 193
Origin: W.Jennings, T.Shibamoto
m/z	RELATIVE INTENSITY
27	70
28	270
30	1181
41	270
43	370
73	180
77	1271
78	1581
79	651
83	1271
91	180
92	270
103	1381
104	4914
105	9999
106	2612
107	180
116	180
117	1351
118	661
119	70
132	2452
133	4244
134	2813
135	180
150	270
151	6716
152	671
193	4454
194	671
