Mass Spectrum: 1-Iodo-2-methylnonane
Formula: C10 H21 I
Molecular weight: 268
Origin: F. TURECEK,HEYROVSKY INST PHYS CHEM & ELECTROCHEM,PRAGUE,CZECH
m/z	RELATIVE INTENSITY
26	110
27	1130
29	2100
38	50
39	1050
40	190
41	4340
42	1290
43	9999
44	340
51	100
53	230
54	150
55	2420
56	1690
57	7260
58	290
65	60
67	210
68	90
69	1050
70	440
71	5080
72	240
77	80
79	60
81	130
82	70
83	280
84	180
85	3390
86	190
91	60
95	100
96	40
97	190
98	70
99	350
105	130
126	50
127	710
128	540
141	290
149	60
155	50
169	80
211	30
268	10
