Mass Spectrum: Methyl 3-indolylacetate, TMS derivative
Formula: C14 H19 N O2 Si
Molecular weight: 261
Origin: G.C. MARTIN, DEP. POMOL., CALIF. UNIV., DAVIS. CALIF., USA
m/z	RELATIVE INTENSITY
30	210
31	2140
36	780
38	920
39	3230
41	4610
42	1440
45	2390
46	1420
47	2350
48	110
51	760
52	810
55	400
57	2110
58	260
59	1060
61	810
64	270
65	150
67	120
68	590
69	100
70	40
71	890
77	90
78	1130
79	850
82	400
83	150
84	880
86	260
88	450
89	1620
90	130
91	810
94	310
95	440
97	1130
99	1030
100	2320
101	300
103	760
106	100
108	350
113	300
116	310
123	640
127	250
128	540
129	790
130	1510
131	80
134	590
137	1050
139	450
141	920
142	1860
143	490
144	180
145	1120
146	710
153	330
156	230
157	1560
159	110
170	1020
171	370
172	440
175	760
178	220
180	50
185	40
186	210
187	120
188	570
189	490
192	520
193	470
194	440
197	660
200	770
202	9999
203	1670
205	210
206	30
208	710
209	620
220	380
223	230
225	440
226	100
232	200
233	280
234	470
244	210
246	540
247	110
255	20
257	500
258	540
259	660
261	3240
262	780
263	310
