Mass Spectrum: 7-Carboxyheptanoylglycine di-O-tms
Formula: C16 H33 N O5 Si2
Molecular weight: 375
Origin: F. ROCCHICCIOLI, FAC. MED., UNITE 75-INSERM, PARIS, FR.
m/z	RELATIVE INTENSITY
73	9999
75	6400
129	1200
158	2400
172	700
189	2000
200	400
217	360
229	720
230	200
244	600
245	200
360	800
361	120
362	40
