Mass Spectrum: 2,6-Bis(2-methylpropyl)pyrazine
Formula: C12 H20 N2
Molecular weight: 192
Origin: Philip Morris R&D
m/z	RELATIVE INTENSITY
37	29
38	193
39	2431
40	369
41	1870
42	445
43	1350
44	32
46	22
50	349
52	168
53	371
54	245
55	193
56	43
57	93
63	52
64	73
65	295
66	723
67	563
68	161
69	34
77	91
78	74
79	139
80	247
81	208
82	73
84	99
87	55
91	21
92	80
93	114
94	166
95	79
105	34
106	71
107	919
108	2620
109	199
118	27
119	52
120	69
121	51
122	27
131	30
132	60
133	208
134	324
135	317
136	128
137	60
145	26
147	89
148	125
149	189
150	9999
151	1063
152	51
161	32
175	30
177	1466
178	187
191	464
192	945
193	121
