Mass Spectrum: trans-1,3-Diethylcyclopentane
Formula: C9 H18
Molecular weight: 126
Origin: NIST Mass Spectrometry Data Center, 1990.
m/z	RELATIVE INTENSITY
15	66
26	122
27	1417
28	660
29	1417
39	1941
40	508
41	4594
42	2077
43	1492
44	169
50	84
51	227
52	121
53	651
54	84
55	9999
56	3019
57	614
65	253
66	334
67	1529
68	528
69	2746
70	2907
71	446
77	166
78	63
79	150
81	195
82	460
83	1001
84	1137
85	163
91	51
96	2071
97	6917
98	1264
99	80
111	51
126	1026
127	113
