Mass Spectrum: 2,3,3-Trimethyl-1-hexene
Formula: C9 H18
Molecular weight: 126
Origin: NIST Mass Spectrometry Data Center, 1990.
m/z	RELATIVE INTENSITY
15	130
27	1184
28	510
29	949
39	2904
40	566
41	5274
42	511
43	1546
50	154
51	401
52	203
53	1097
55	9942
56	957
57	499
65	416
67	1668
69	5675
70	665
77	280
79	312
81	289
83	9999
84	6955
85	626
97	214
111	291
