Mass Spectrum: 3-Ethyl-1,5-octadiene
Formula: C10 H18
Molecular weight: 138
Origin: NIST Mass Spectrometry Data Center, 1990.
m/z	RELATIVE INTENSITY
26	110
27	1033
28	78
29	606
32	6
39	2180
41	8293
42	469
43	204
50	152
51	436
52	227
53	1167
54	529
55	1019
56	62
63	110
65	536
66	327
67	3580
68	4224
69	9999
70	661
77	566
78	152
79	685
80	182
81	636
82	482
83	58
91	237
93	106
95	1206
96	286
109	2686
110	579
111	49
123	106
138	73
