Mass Spectrum: Warfarin methylated
Formula: C20 H18 O4
Molecular weight: 322
Origin: Finnigan MAT: Toxicological Library (LIBR-TX)
m/z	RELATIVE INTENSITY
51	861
63	741
65	855
76	903
77	1624
89	696
91	6020
92	1568
102	777
103	1170
104	693
115	1776
117	646
121	2746
129	798
132	1170
144	476
145	599
165	676
176	737
177	902
178	532
187	424
189	1452
191	396
201	874
202	714
203	571
219	268
221	770
233	188
235	175
237	221
247	900
248	166
249	502
263	223
264	127
265	622
279	9999
280	1991
281	244
289	38
292	33
322	1253
323	268
