Mass Spectrum: Propylhexedrine acetate
Formula: C12 H23 N O
Molecular weight: 197
Origin: Finnigan MAT: Toxicological Library (LIBR-TX)
m/z	RELATIVE INTENSITY
55	1090
56	780
58	9999
59	333
67	463
72	773
74	1065
81	370
82	261
86	280
100	4677
101	918
109	55
114	405
124	78
131	42
140	407
141	46
152	16
154	28
168	19
169	7
180	16
182	765
183	94
197	28
198	11
