Mass Spectrum: Flurbiprofen methyl ester
Formula: C16 H15 F O2
Molecular weight: 258
Origin: Finnigan MAT: Toxicological Library (LIBR-TX)
m/z	RELATIVE INTENSITY
51	504
59	298
75	235
76	213
77	769
85	466
88	272
98	474
99	598
101	174
121	158
133	250
151	308
152	483
153	168
165	214
170	832
171	412
176	367
177	415
178	2601
179	1510
183	1950
184	1663
196	832
197	850
199	9999
215	96
226	30
229	8
243	21
258	5534
259	957
