Mass Spectrum: Mexiletine acetate
Formula: C13 H19 N O2
Molecular weight: 221
Origin: Finnigan MAT: Toxicological Library (LIBR-TX)
m/z	RELATIVE INTENSITY
41	661
43	2120
44	2585
58	6126
77	950
78	255
79	376
86	244
91	692
100	9999
101	604
103	263
105	563
107	345
120	123
121	488
122	484
133	194
135	89
145	30
147	339
148	99
162	297
163	79
164	24
176	8
178	38
179	6
206	6
207	1
221	4
