Mass Spectrum: 2,5-Dimethoxy-4-propoxybenzaldehyde
Formula: C12 H16 O4
Molecular weight: 224
Origin: Dr. Jiri Zamecnik, DCIEM, North York, Canada, GP Library
m/z	RELATIVE INTENSITY
41	3020
43	2430
51	1430
52	770
53	1500
65	730
69	1920
77	550
79	770
93	720
95	700
107	540
109	700
111	2090
122	710
123	470
125	800
136	5780
137	790
139	1430
150	390
151	660
153	1370
164	1000
165	2390
167	9630
168	760
181	2830
182	3100
183	300
224	9999
225	1240
