Mass Spectrum: Methoxyphenamine acetate
Formula: C13 H19 N O2
Molecular weight: 221
Origin: Dr. Jiri Zamecnik, DCIEM, North York, Canada, GP Library
m/z	RELATIVE INTENSITY
51	200
56	670
58	9999
59	350
65	330
77	230
78	220
89	80
91	780
92	60
100	2260
101	130
105	50
115	70
119	60
121	140
131	30
132	30
133	40
146	10
148	870
149	110
162	0
164	20
178	10
221	50
222	0
