Mass Spectrum: E-6-Tetradecen-1-ol acetate
Formula: C16 H30 O2
Molecular weight: 254
Origin: J. Klune, Insect Chem. Ecol. Lab., USDA, Beltsville, MD 20705
m/z	RELATIVE INTENSITY
41	4435
42	811
43	9999
44	615
45	118
46	66
47	2
50	12
51	55
52	55
53	780
54	3062
55	4824
56	890
57	1433
58	150
59	31
61	508
62	10
63	13
65	274
66	880
67	7875
68	3299
69	2861
70	513
71	770
72	54
73	157
74	10
75	14
77	192
78	37
79	934
80	990
81	7366
82	8372
83	3220
84	499
85	4757
86	262
87	40
88	10
89	35
90	4
91	157
92	41
93	472
94	758
95	7683
96	5333
97	2311
98	241
99	190
100	9
101	186
102	19
103	31
104	5
105	34
106	14
107	151
108	451
109	3265
110	2353
111	1330
112	221
113	123
114	20
115	40
116	10
117	15
119	19
120	9
121	121
122	299
123	1627
124	1522
125	853
126	115
127	46
128	98
129	55
130	92
131	22
133	15
135	264
136	151
137	1397
138	1472
139	507
140	56
141	27
142	17
143	13
145	16
147	10
148	8
149	59
150	37
151	441
152	480
153	183
154	24
155	25
156	24
157	12
158	8
159	12
161	15
163	37
164	38
165	186
166	958
167	145
168	20
169	69
170	15
171	9
172	8
173	7
175	11
176	10
177	33
178	217
179	96
180	47
181	35
182	17
183	19
184	7
185	17
187	7
189	9
191	32
192	166
193	641
194	6101
195	2104
196	239
197	29
198	3
199	10
201	9
203	15
205	37
206	17
207	48
208	27
209	29
210	43
211	79
212	22
213	130
214	26
215	9
217	9
218	10
219	90
220	49
221	29
222	14
223	52
224	15
225	11
226	7
227	23
228	9
229	13
230	3
235	8
236	26
237	81
238	23
239	91
240	8
252	52
253	18
254	1037
255	142
256	16
