Mass Spectrum: E-15-Heptadecenal
Formula: C17 H32 O
Molecular weight: 252
Origin: LAC, NIDDK, NIH, Bethesda, MD 20892
m/z	RELATIVE INTENSITY
41	9102
42	2422
43	9999
44	420
45	22
46	3
47	7
49	11
50	9
51	57
52	43
53	651
54	1500
55	8704
56	4601
57	7683
58	350
59	19
60	11
61	50
62	2
63	7
64	1
65	119
66	135
67	1569
68	1398
69	5915
70	3991
71	3455
72	190
73	24
74	9
75	41
76	2
77	72
78	17
79	168
80	68
81	788
82	2070
83	6600
84	2584
85	1890
86	123
87	12
88	5
89	5
91	33
92	8
93	32
94	29
95	356
96	1054
97	5983
98	1550
99	367
100	29
101	21
102	3
103	7
105	11
106	6
107	15
108	14
109	144
110	465
111	2824
112	929
113	182
114	17
115	13
116	6
117	9
118	3
119	8
120	2
121	19
122	13
123	77
124	257
125	1192
126	546
127	103
128	14
129	11
130	7
131	11
132	3
133	7
134	6
135	13
136	11
137	44
138	165
139	357
140	331
141	67
142	5
143	12
144	5
145	8
146	1
147	7
148	3
149	12
150	6
151	17
152	105
153	163
154	212
155	41
156	7
157	10
158	5
159	7
161	3
162	4
163	7
164	4
165	12
166	69
167	92
168	144
169	29
170	4
171	17
172	4
173	4
174	2
175	3
176	4
177	8
178	5
179	5
180	47
181	51
182	109
183	26
184	4
185	11
186	4
187	6
189	6
190	4
191	4
192	3
193	6
194	37
195	34
196	64
197	15
198	5
199	9
200	3
201	3
202	1
203	4
204	3
205	4
207	6
208	18
209	22
210	47
211	14
212	6
213	24
214	4
215	6
217	6
218	2
219	1
221	3
222	11
223	9
224	157
225	32
226	9
236	5
237	3
238	4
250	8
251	1
252	398
253	82
254	13
255	7
