Mass Spectrum: Methyl Z-11-tetradecenoate
Formula: C15 H28 O2
Molecular weight: 240
Origin: J. Klune, Insect Chem. Ecol. Lab., USDA, Beltsville, MD 20705
m/z	RELATIVE INTENSITY
41	8831
42	2212
43	3553
44	284
45	425
51	115
52	83
53	1141
54	1449
55	9999
56	1991
57	1801
58	202
59	3119
60	275
61	67
65	316
66	174
67	3088
68	2252
69	6247
70	1013
71	863
72	249
73	656
74	5265
75	681
76	58
77	284
78	69
79	635
80	314
81	2194
82	2166
83	3101
84	2929
85	2394
86	227
87	3690
88	397
89	70
91	241
93	374
94	438
95	1993
96	3708
97	3137
98	2827
99	642
100	180
101	880
102	119
103	191
104	58
105	185
106	61
107	282
108	374
109	1226
110	1967
111	1498
112	688
113	653
114	501
115	649
116	118
117	158
119	221
120	102
121	323
122	267
123	1234
124	1737
125	877
126	183
127	437
128	406
129	406
130	114
131	71
133	260
134	152
135	364
136	116
137	834
138	660
139	388
140	96
141	569
142	119
143	312
144	96
145	58
147	136
148	108
149	324
150	112
151	510
152	440
153	171
154	83
155	148
156	56
157	122
158	80
161	111
163	101
164	559
165	525
166	1796
167	402
168	72
169	85
171	63
177	61
178	58
179	310
180	305
181	93
193	85
194	190
195	108
206	71
207	113
208	1542
209	1259
210	154
211	72
222	62
223	63
225	70
226	73
238	60
239	268
240	844
241	469
242	84
