Mass Spectrum: Z-8-Methyl-9-tetradecenoic acid
Formula: C15 H28 O2
Molecular weight: 240
Origin: J. Klune, Insect Chem. Ecol. Lab., USDA, Beltsville, MD 20705
m/z	RELATIVE INTENSITY
41	7047
42	1605
43	4288
44	430
45	1280
46	37
47	37
48	6
49	63
50	49
51	156
52	97
53	972
54	1519
55	9999
56	1850
57	2471
58	386
59	363
60	1270
61	121
62	12
63	27
65	247
66	96
67	2256
68	1604
69	3944
70	1561
71	1250
72	120
73	1112
74	108
75	16
77	212
78	79
79	535
80	262
81	1789
82	1352
83	2378
84	1507
85	759
86	165
87	390
88	46
89	17
91	192
92	49
93	329
94	329
95	1315
96	1385
97	2557
98	1320
99	560
100	262
101	356
102	44
103	15
104	7
105	92
106	50
107	219
108	186
109	821
110	823
111	1584
112	937
113	584
114	397
115	198
116	46
117	22
118	14
119	160
120	66
121	209
122	117
123	519
124	497
125	472
126	494
127	345
128	89
129	128
130	56
131	30
133	224
134	105
135	160
136	83
137	518
138	300
139	269
140	75
141	117
142	40
143	60
144	37
145	19
147	96
148	57
149	73
150	43
151	341
152	257
153	138
154	66
155	143
156	26
157	102
158	20
159	14
161	68
162	20
163	40
164	230
165	225
166	289
167	170
168	44
169	69
170	19
171	85
172	16
173	9
175	9
177	33
178	20
179	116
180	85
181	121
182	27
183	173
184	25
185	54
186	7
189	26
190	52
191	29
192	28
193	37
194	83
195	47
196	23
197	150
198	47
199	43
205	6
206	28
207	46
208	286
209	136
210	21
211	19
212	8
213	17
221	15
222	40
223	167
224	77
225	45
237	20
238	25
239	25
240	141
241	22
