Mass Spectrum: E-9-Hexadecenal
Formula: C16 H30 O
Molecular weight: 238
Origin: J. Klune, Insect Chem. Ecol. Lab., USDA, Beltsville, MD 20705
m/z	RELATIVE INTENSITY
41	8562
42	1306
43	3521
44	2018
45	185
51	90
52	85
53	1044
54	2491
55	9999
56	2188
57	2314
58	227
59	111
60	17
65	345
66	362
67	4181
68	2109
69	4163
70	2070
71	938
72	203
73	88
77	285
78	123
79	1250
80	916
81	3698
82	2898
83	2812
84	1652
85	610
86	215
87	69
91	173
92	38
93	933
94	854
95	2780
96	2188
97	2190
98	3119
99	405
100	122
101	38
105	47
106	17
107	587
108	596
109	1189
110	1005
111	1480
112	1006
113	180
114	75
115	33
119	27
121	1501
122	558
123	523
124	649
125	553
126	235
127	86
128	50
133	25
134	9
135	872
136	387
137	312
138	494
139	244
140	131
141	56
142	59
149	394
150	154
151	161
152	220
153	163
154	118
155	40
156	65
163	216
164	81
165	82
166	118
167	126
168	88
169	27
177	114
178	54
179	48
180	26
181	102
182	89
183	18
191	71
192	66
193	25
194	157
195	139
196	73
197	24
205	130
206	32
207	48
208	28
209	82
210	30
220	1815
221	331
222	54
223	31
236	42
237	41
238	722
239	143
