Mass Spectrum: E-12-Tetradecenal
Formula: C14 H26 O
Molecular weight: 210
Origin: LAC, NIDDK, NIH, Bethesda, MD 20892
m/z	RELATIVE INTENSITY
41	9999
42	1811
43	2210
44	467
45	310
46	15
49	14
50	55
51	212
52	156
53	1359
54	3363
55	8649
56	1485
57	1253
58	143
59	72
60	14
61	19
63	43
64	15
65	356
66	533
67	6548
68	6159
69	3663
70	772
71	455
72	71
73	95
74	11
75	12
77	214
78	60
79	556
80	264
81	4583
82	5566
83	1078
84	219
85	253
86	75
87	15
91	120
92	26
93	164
94	128
95	2677
96	2166
97	478
98	121
99	64
100	13
101	24
103	11
105	43
106	12
107	46
108	22
109	1098
110	904
111	134
112	37
113	26
115	18
120	14
121	30
122	29
123	445
124	315
125	51
135	14
137	200
138	275
139	49
140	32
143	12
151	17
156	13
157	14
167	349
168	65
181	27
210	11
