Mass Spectrum: E-8-Methyl-9-tetradecen-1-ol acetate
Formula: C17 H32 O2
Molecular weight: 268
Origin: J. Klune, Insect Chem. Ecol. Lab., USDA, Beltsville, MD 20705
m/z	RELATIVE INTENSITY
41	2890
42	1272
43	9999
44	873
45	427
46	40
47	42
49	24
50	9
51	38
52	25
53	342
54	1060
55	5789
56	1325
57	3102
58	610
59	278
60	245
61	1852
62	38
63	10
65	86
66	245
67	2900
68	1455
69	3222
70	1573
71	4031
72	359
73	607
74	64
75	28
76	13
77	89
78	53
79	666
80	495
81	3453
82	2013
83	2827
84	1255
85	2847
86	477
87	1138
88	93
89	100
91	194
92	69
93	608
94	567
95	2832
96	1645
97	3150
98	1298
99	1064
100	412
101	631
102	103
103	93
104	33
105	127
106	59
107	461
108	412
109	2143
110	1194
111	2088
112	909
113	1748
114	315
115	343
116	91
117	85
118	32
119	132
120	117
121	607
122	436
123	1693
124	672
125	980
126	633
127	604
128	211
129	641
130	76
131	246
132	31
133	153
134	80
135	465
136	433
137	1080
138	509
139	732
140	278
141	437
142	162
143	802
144	124
145	93
146	22
147	132
148	63
149	281
150	140
151	441
152	317
153	1031
154	297
155	530
156	143
157	576
158	86
159	113
160	23
161	70
162	37
163	124
164	101
165	275
166	190
167	390
168	135
169	309
170	133
171	439
172	88
173	178
174	28
175	48
176	20
177	71
178	48
179	126
180	90
181	258
182	140
183	371
184	144
185	588
186	109
187	450
188	65
189	86
190	36
191	133
192	231
193	956
194	488
195	19
212	99
213	645
214	20
224	147
225	867
226	114
238	13
239	54
240	6
250	43
251	127
252	11
253	292
254	14
267	35
268	546
269	13
