Mass Spectrum: Z-6-Tetradecen-1-ol acetate
Formula: C16 H30 O2
Molecular weight: 254
Origin: J. Klune, Insect Chem. Ecol. Lab., USDA, Beltsville, MD 20705
m/z	RELATIVE INTENSITY
41	3565
42	850
43	9999
44	289
45	98
47	15
49	46
50	13
51	78
52	62
53	646
54	2199
55	3678
56	784
57	923
58	75
59	27
60	98
61	609
62	7
63	7
65	249
66	630
67	5809
68	2640
69	2139
70	513
71	492
72	44
73	340
74	18
77	250
78	76
79	917
80	640
81	3810
82	7692
83	2660
84	391
85	340
86	71
87	49
89	7
91	177
92	32
93	369
94	442
95	5128
96	4567
97	1390
98	208
99	93
100	68
101	109
102	29
103	25
104	25
105	34
106	7
107	112
108	249
109	2071
110	1775
111	612
112	209
113	65
114	24
115	46
121	61
122	177
123	1126
124	1096
125	321
126	101
127	48
128	7
129	6
135	46
136	80
137	968
138	928
139	175
140	27
141	33
142	26
143	13
149	28
151	243
152	293
153	70
154	6
155	32
156	30
163	6
165	83
166	630
167	92
168	33
169	24
170	27
179	28
180	23
181	29
182	14
192	31
193	94
194	4206
195	706
196	72
211	30
213	16
237	19
252	7
253	26
254	277
255	50
256	8
