Mass Spectrum: 10,12-Hexadecadien-1-ol
Formula: C16 H30 O
Molecular weight: 238
Origin: J. Klune, Insect Chem. Ecol. Lab., USDA, Beltsville, MD 20705
m/z	RELATIVE INTENSITY
41	4709
42	591
43	1653
44	144
45	129
50	23
51	122
52	134
53	814
54	2631
55	4120
56	431
57	824
58	83
59	44
63	30
64	5
65	729
66	583
67	9999
68	2278
69	1546
70	340
71	544
72	69
73	76
77	1137
78	404
79	3732
80	2122
81	5373
82	3802
83	1051
84	343
85	475
86	74
87	27
89	25
91	804
92	159
93	1570
94	945
95	3144
96	3684
97	928
98	706
99	183
100	39
101	35
103	35
104	19
105	139
106	66
107	814
108	656
109	2209
110	1279
111	530
112	262
113	94
114	22
115	32
117	33
119	53
120	27
121	1127
122	550
123	582
124	570
125	212
126	93
127	41
128	25
129	14
131	20
133	44
134	11
135	810
136	350
137	298
138	305
139	109
140	68
141	34
142	6
143	19
145	20
146	6
147	26
148	21
149	451
150	161
151	165
152	133
153	83
154	45
155	30
159	11
161	6
162	15
163	176
164	80
165	95
166	78
167	57
168	30
169	24
173	11
177	93
178	45
179	53
180	27
181	45
182	31
183	19
187	6
189	15
191	73
192	42
193	32
194	48
195	71
196	24
197	6
199	17
205	41
207	29
208	12
209	68
210	21
213	17
217	6
219	20
220	80
221	43
222	32
223	27
224	6
225	7
235	46
236	22
237	96
238	4896
239	852
240	88
