Mass Spectrum: 2-Methyl-Z-7,8-epoxyhexadecane
Formula: C17 H34 O
Molecular weight: 254
Origin: J. Klune, Insect Chem. Ecol. Lab., USDA, Beltsville, MD 20705
m/z	RELATIVE INTENSITY
41	6969
42	1722
43	7843
44	606
45	232
46	7
47	25
49	19
50	16
51	51
52	33
53	501
54	802
55	6821
56	5845
57	6537
58	408
59	169
60	14
61	12
63	11
65	101
66	382
67	1853
68	3348
69	9999
70	2710
71	2347
72	197
73	97
74	11
75	10
77	86
78	20
79	202
80	91
81	1285
82	4052
83	3428
84	1288
85	1118
86	98
87	24
91	50
92	10
93	68
94	47
95	1456
96	664
97	2429
98	516
99	193
100	63
101	18
104	22
105	26
107	39
108	18
109	511
110	1629
111	2000
112	401
113	253
114	39
115	14
117	17
119	2
121	20
122	9
123	266
124	793
125	425
126	146
127	88
128	70
129	124
130	14
131	17
135	19
137	124
138	38
139	64
140	23
141	844
142	150
143	142
144	16
147	14
149	15
151	19
152	20
153	24
154	24
155	1429
156	167
157	24
163	8
165	19
166	12
167	16
168	12
169	74
170	18
171	2
177	2
179	14
180	14
181	15
182	26
183	215
184	28
191	2
193	11
194	2
195	11
197	75
198	14
205	6
207	15
210	33
211	37
217	3
221	22
222	5
223	11
225	22
226	2
236	14
238	120
239	51
240	11
253	11
254	76
255	69
256	14
