Mass Spectrum: Z-8-Hexadecene
Formula: C16 H32
Molecular weight: 224
Origin: J. Klune, Insect Chem. Ecol. Lab., USDA, Beltsville, MD 20705
m/z	RELATIVE INTENSITY
41	9999
42	1821
43	9349
44	353
45	26
51	87
52	92
53	981
54	2674
55	8745
56	4876
57	5773
58	341
59	55
65	289
66	266
67	2670
68	1292
69	6849
70	4287
71	2685
72	157
73	6
77	228
78	51
79	520
80	182
81	1364
82	2016
83	6369
84	2550
85	1519
86	110
91	104
93	76
94	45
95	634
96	1300
97	5371
98	1523
99	419
100	68
107	6
109	286
110	738
111	3204
112	986
113	234
114	23
123	163
124	389
125	1478
126	611
127	219
128	30
129	85
137	61
138	221
139	491
140	374
141	189
142	54
143	100
151	21
152	137
153	247
154	223
155	102
156	36
157	13
165	22
166	87
167	155
168	132
169	59
179	33
180	61
181	103
182	78
183	37
194	26
195	50
196	311
197	57
209	13
222	6
223	297
224	5564
225	1010
226	97
