Mass Spectrum: E-11-Hexadecen-1-ol
Formula: C16 H32 O
Molecular weight: 240
Origin: J. Klune, Insect Chem. Ecol. Lab., USDA, Beltsville, MD 20705
m/z	RELATIVE INTENSITY
41	7378
42	1347
43	2963
44	245
45	188
51	77
52	50
53	951
54	3101
55	9999
56	1803
57	1379
58	82
59	14
65	279
66	513
67	4859
68	3427
69	4009
70	929
71	564
72	65
73	31
77	217
78	57
79	660
80	436
81	4820
82	6547
83	2727
84	442
85	396
86	59
91	109
93	177
94	231
95	3708
96	5108
97	1723
98	269
99	111
100	11
107	60
108	26
109	1995
110	1892
111	547
112	108
113	31
121	47
122	109
123	1034
124	1015
125	200
126	56
135	30
136	65
137	577
138	606
139	104
140	78
151	223
152	313
153	58
154	38
165	205
166	272
167	34
179	116
180	135
181	23
193	66
194	299
195	51
196	12
221	15
222	1621
223	297
239	30
240	59
241	11
