Mass Spectrum: 11-Tetradecen-1-ol acetate
Formula: C16 H30 O2
Molecular weight: 254
Origin: J. Klune, Insect Chem. Ecol. Lab., USDA, Beltsville, MD 20705
m/z	RELATIVE INTENSITY
41	7004
42	1390
43	9966
44	293
45	80
47	12
49	53
50	13
51	75
52	46
53	818
54	2608
55	6737
56	1134
57	1102
58	101
59	44
61	1901
62	36
63	16
65	176
66	564
67	6191
68	9743
69	4805
70	692
71	534
72	74
73	337
74	14
75	19
77	90
78	30
79	423
80	516
81	7282
82	9999
83	3257
84	397
85	287
86	78
87	47
88	3
89	55
91	53
92	8
93	167
94	348
95	5528
96	7037
97	2327
98	288
99	181
100	52
101	288
102	28
103	17
105	11
107	76
108	180
109	2906
110	3029
111	1322
112	219
113	112
114	32
115	23
116	29
119	7
121	83
122	187
123	1821
124	1887
125	788
126	109
127	30
128	20
129	15
135	57
136	130
137	1243
138	1420
139	432
140	54
141	14
142	20
143	8
148	10
149	37
150	48
151	553
152	667
153	167
154	20
155	10
156	5
161	2
163	25
164	16
165	301
166	562
167	88
168	13
169	10
170	2
171	3
177	8
179	63
180	24
181	17
183	5
185	9
191	13
192	66
193	611
194	5272
195	1500
196	156
197	27
199	10
207	10
208	22
209	24
210	12
211	55
212	10
213	46
214	5
215	5
217	10
219	12
221	3
223	3
225	11
226	15
227	18
228	6
229	12
231	3
235	15
236	9
237	22
239	18
240	5
250	19
251	109
252	288
253	97
254	2614
255	456
256	63
