Mass Spectrum: Z-11-Pentadecenal
Formula: C15 H28 O
Molecular weight: 224
Origin: J. Klune, Insect Chem. Ecol. Lab., USDA, Beltsville, MD 20705
m/z	RELATIVE INTENSITY
41	8749
42	1627
43	3620
44	1496
45	241
46	11
47	10
49	6
50	37
51	112
52	77
53	982
54	2221
55	9999
56	2518
57	2602
58	324
59	463
60	88
61	25
63	19
65	294
66	409
67	4449
68	2512
69	4628
70	2395
71	1123
72	279
73	201
74	17
75	14
76	44
77	185
78	109
79	1066
80	1004
81	3781
82	3298
83	2992
84	1844
85	763
86	225
87	78
88	14
91	114
93	951
94	840
95	2645
96	1974
97	2178
98	2992
99	417
100	117
101	55
102	12
103	9
104	37
105	54
106	28
107	539
108	561
109	1080
110	1063
111	1479
112	879
113	167
114	76
115	30
116	10
119	25
120	31
121	1327
122	483
123	543
124	664
125	491
126	196
127	78
128	65
129	24
132	9
133	21
134	25
135	671
136	308
137	285
138	269
139	181
140	107
141	39
142	75
143	19
144	3
145	2
147	17
149	1057
150	175
151	133
152	133
153	113
154	85
155	28
156	22
157	10
159	3
160	10
161	10
162	3
163	141
164	69
165	64
166	30
167	85
168	76
169	30
170	3
171	3
175	3
177	73
178	70
179	33
180	147
181	99
182	51
183	21
185	11
189	4
191	18
192	23
193	36
194	16
195	48
196	18
197	22
199	3
204	4
205	124
206	1225
207	250
208	42
209	23
210	31
211	14
212	3
219	3
221	10
222	67
223	174
224	384
225	121
226	23
227	41
