Mass Spectrum: E-7-Octadecene
Formula: C18 H36
Molecular weight: 252
Origin: J. Klune, Insect Chem. Ecol. Lab., USDA, Beltsville, MD 20705
m/z	RELATIVE INTENSITY
41	9245
42	1902
43	9999
44	298
46	5
51	68
52	70
53	933
54	2887
55	9362
56	4499
57	6007
58	253
59	5
65	263
66	220
67	2487
68	1445
69	7086
70	4057
71	2818
72	147
77	192
78	50
79	448
80	159
81	1180
82	1775
83	6339
84	2363
85	1593
86	95
91	157
92	102
93	64
94	39
95	514
96	1110
97	5429
98	1276
99	341
100	26
104	25
105	23
107	18
109	207
110	525
111	2857
112	827
113	183
114	18
117	17
122	18
123	92
124	302
125	1222
126	511
127	112
128	11
137	48
138	184
139	408
140	305
141	71
151	22
152	125
153	190
154	204
155	48
166	84
167	109
168	118
169	30
180	44
181	56
182	77
183	19
194	25
195	32
196	45
207	5
208	18
209	23
210	22
222	5
224	115
225	23
232	28
250	33
251	13
252	1807
253	354
254	35
