Mass Spectrum: Z-9-Hexadecen-1-ol acetate
Formula: C18 H34 O2
Molecular weight: 282
Origin: J. Klune, Insect Chem. Ecol. Lab., USDA, Beltsville, MD 20705
m/z	RELATIVE INTENSITY
41	4855
42	1062
43	9999
44	309
45	70
51	42
52	41
53	600
54	2739
55	5424
56	1075
57	929
58	70
61	998
65	223
66	405
67	4248
68	2409
69	2849
70	598
71	484
72	61
73	428
77	219
78	62
79	811
80	532
81	3899
82	4886
83	1984
84	286
85	215
91	207
92	45
93	289
94	265
95	3183
96	3937
97	1267
98	177
99	40
105	64
107	111
108	171
109	1650
110	1777
111	508
112	80
119	27
121	125
122	147
123	909
124	1087
125	211
126	51
133	73
135	121
136	107
137	545
138	598
139	112
140	79
148	40
149	63
150	24
151	209
152	274
153	75
154	44
163	44
164	89
165	245
166	287
167	64
179	101
180	138
181	25
193	73
194	276
195	55
218	47
222	1845
223	338
224	54
239	40
245	46
254	12
281	14
282	73
283	15
