Mass Spectrum: Z,Z-2,13-Octadecadien-1-ol
Formula: C18 H34 O
Molecular weight: 266
Origin: J. Klune, Insect Chem. Ecol. Lab., USDA, Beltsville, MD 20705
m/z	RELATIVE INTENSITY
41	8680
42	1890
43	5439
44	720
45	166
46	6
47	60
48	29
52	96
53	1334
54	4016
55	9999
56	2165
57	5681
58	368
59	99
60	14
61	16
63	20
64	4
65	400
66	575
67	7175
68	4686
69	4912
70	1983
71	1178
72	121
73	65
74	13
75	14
77	332
78	219
79	1780
80	2121
81	7054
82	7043
83	4011
84	1231
85	2582
86	360
87	59
88	34
89	12
91	243
92	154
93	1361
94	1676
95	5549
96	5890
97	2505
98	509
99	169
100	44
101	227
102	23
103	88
104	17
105	78
106	86
107	1003
108	1073
109	2961
110	2200
111	879
112	181
113	119
114	22
115	30
116	5
117	20
118	12
119	63
120	76
121	1494
122	853
123	1331
124	875
125	287
126	71
127	46
128	39
129	30
130	12
131	23
132	17
133	52
134	52
135	1346
136	554
137	593
138	526
139	127
140	42
141	51
142	21
143	25
144	14
145	29
146	18
147	33
148	33
149	817
150	274
151	271
152	418
153	100
154	33
155	37
156	16
157	22
158	13
159	27
160	13
161	24
162	21
163	431
164	149
165	153
166	260
167	72
168	30
169	29
170	17
171	18
172	12
173	21
174	27
175	22
176	36
177	316
178	147
179	136
180	190
181	61
182	25
183	26
184	15
185	15
186	4
187	15
188	24
189	23
190	29
191	270
192	166
193	71
194	70
195	41
196	34
197	23
198	7
199	15
201	7
202	6
203	18
204	13
205	247
206	113
207	59
208	94
209	44
210	43
211	25
212	6
213	8
215	7
217	17
218	8
219	243
220	63
221	35
222	61
223	44
224	42
225	31
226	17
227	13
229	6
231	13
232	6
233	46
234	20
235	18
236	20
237	25
238	27
239	25
246	27
247	82
248	2033
249	431
250	321
251	73
252	51
253	22
263	13
264	34
265	23
266	105
267	41
268	23
269	12
