Mass Spectrum: (E)-2-Hexenyl tiglate
Formula: C11 H18 O2
Molecular weight: 182
Origin: Insect Chem. Ecol. Lab., USDA, Beltsville, MD 20705
m/z	RELATIVE INTENSITY
41	2209
42	644
43	237
51	186
53	998
54	1147
55	7255
56	342
57	911
67	1887
68	164
69	127
70	127
71	168
73	144
77	129
79	312
81	647
82	893
83	9999
84	823
85	513
93	161
95	705
96	137
97	442
100	381
101	132
107	312
109	359
111	312
112	139
122	149
125	1916
126	310
137	1350
153	159
154	342
182	290
