Mass Spectrum: trans-Z-.alpha.-Bisabolene epoxide
Formula: C15 H24 O
Molecular weight: 220
Origin: J.R. Aldrich, Agricultural Research Center, USDA, Beltsville, MD 20
m/z	RELATIVE INTENSITY
41	9018
42	1473
43	9999
44	897
45	448
50	132
51	483
52	265
53	2045
54	440
55	4319
56	1590
57	3113
58	281
59	107
60	91
63	157
65	897
66	310
67	2959
68	503
69	2124
70	475
71	1458
72	109
73	102
76	92
77	1946
78	490
79	2345
80	536
81	1784
82	1814
83	784
84	357
85	388
86	320
87	25
89	34
91	2476
92	459
93	2919
94	849
95	1074
96	324
97	536
98	179
99	117
103	259
104	130
105	1802
106	650
107	2630
108	494
109	3200
110	465
111	366
112	157
113	179
115	205
116	87
117	295
118	89
119	864
120	362
121	1374
122	366
123	392
124	130
125	120
126	92
127	88
128	97
129	140
130	55
131	922
132	143
133	474
134	185
135	1323
136	337
137	261
138	158
139	89
141	78
142	102
143	88
145	271
146	309
147	347
148	119
149	496
150	200
151	230
152	58
157	25
159	725
160	125
161	157
163	306
164	609
165	133
167	26
173	52
175	93
177	143
187	119
189	90
191	86
220	168
