Mass Spectrum: Z-12-Tetradecen-1-ol acetate
Formula: C16 H30 O2
Molecular weight: 254
Origin: J. Klune, Insect Chem. Ecol. Lab., USDA, Beltsville, MD 20705
m/z	RELATIVE INTENSITY
41	3735
42	1255
43	9251
44	274
45	78
51	59
52	55
53	697
54	1809
55	6264
56	1437
57	1490
58	136
59	49
60	29
61	2642
62	57
63	11
65	153
66	400
67	3903
68	8360
69	4529
70	1595
71	1098
72	134
73	807
74	27
75	30
77	112
78	30
79	498
80	485
81	5490
82	9999
83	4864
84	1224
85	734
86	127
87	89
88	11
89	123
91	75
93	212
94	396
95	4600
96	7625
97	4458
98	1037
99	344
100	66
101	419
102	54
103	49
105	20
106	11
107	138
108	244
109	3077
110	3703
111	2532
112	713
113	248
114	54
115	55
116	435
117	50
119	17
120	14
121	166
122	261
123	1903
124	2384
125	1484
126	412
127	134
128	20
129	19
130	62
133	21
134	11
135	110
136	170
137	1447
138	1842
139	773
140	243
141	81
142	19
143	11
147	16
148	12
149	81
150	79
151	637
152	1039
153	308
154	118
155	49
161	12
163	46
164	31
165	415
166	992
167	208
168	479
169	79
170	13
175	17
177	10
178	10
179	96
180	66
181	25
184	11
191	14
192	61
193	435
194	9328
195	2506
196	1089
197	529
198	76
208	113
209	55
210	11
211	86
213	70
222	41
225	14
226	19
227	10
235	11
237	41
238	11
239	26
241	54
249	46
250	10
251	79
252	253
253	124
254	4309
255	212
