Mass Spectrum: 3,7-Dimethyl-6-nonen-1-ol acetate
Formula: C13 H24 O2
Molecular weight: 212
Origin: J. Klune, Insect Chem. Ecol. Lab., USDA, Beltsville, MD 20705
m/z	RELATIVE INTENSITY
41	3748
42	759
43	9999
44	310
45	238
46	7
47	11
49	11
50	21
51	83
52	57
53	619
54	409
55	6377
56	980
57	1416
58	131
59	76
60	39
61	632
62	18
63	18
65	149
66	100
67	2038
68	1400
69	2202
70	1076
71	788
72	284
73	735
74	42
75	11
77	163
78	36
79	404
80	356
81	4131
82	1780
83	2363
84	497
85	526
86	155
87	114
88	27
89	37
91	137
92	63
93	426
94	231
95	2684
96	1275
97	923
98	230
99	545
100	73
101	78
102	14
103	35
104	3
105	68
106	28
107	222
108	121
109	718
110	325
111	386
112	133
113	256
114	56
115	190
116	23
117	20
119	58
120	29
121	614
122	222
123	4851
124	613
125	257
126	81
127	73
128	44
129	130
130	22
131	32
133	45
134	17
135	149
136	59
137	336
138	84
139	305
140	68
141	49
142	14
143	32
144	3
145	21
146	13
147	46
148	39
149	187
150	186
151	671
152	1078
153	210
154	65
155	50
156	14
157	60
159	19
161	23
162	17
163	47
164	45
165	171
166	87
167	140
168	52
169	74
170	19
171	24
172	7
177	21
178	12
179	24
180	43
181	38
182	27
183	23
184	14
185	16
187	11
189	17
191	12
193	14
194	12
195	15
196	12
197	22
198	14
209	25
210	31
211	68
212	165
213	52
214	3
