Mass Spectrum: E-8-Hexadecen-1-ol acetate
Formula: C18 H34 O2
Molecular weight: 282
Origin: LAC, NIDDK, NIH, Bethesda, MD 20892
m/z	RELATIVE INTENSITY
41	3482
42	909
43	9999
45	135
47	91
48	80
52	166
53	642
54	2882
55	4450
56	884
57	993
58	110
61	814
66	569
67	4186
68	2313
69	2129
70	562
71	179
72	73
73	406
74	70
75	72
77	375
78	198
79	663
80	546
81	3619
82	4543
83	1843
84	118
86	231
87	85
89	76
91	263
92	73
93	215
94	413
95	2615
96	3757
97	1134
98	77
99	107
102	254
106	85
108	88
109	1441
110	1471
111	554
112	85
119	164
122	84
123	718
124	862
125	81
126	78
127	78
129	195
130	210
133	100
134	168
136	106
137	435
138	531
139	76
140	95
141	76
143	175
145	194
147	107
151	193
152	334
153	188
154	85
158	72
162	74
165	149
166	264
167	106
168	120
171	70
179	70
181	91
189	99
194	243
199	72
203	73
205	74
208	70
221	117
222	828
223	257
239	84
240	308
253	84
254	227
267	171
282	345
283	125
