Mass Spectrum: cis-Z-.alpha.-Bisabolene epoxide
Formula: C15 H24 O
Molecular weight: 220
Origin: J.R. Aldrich, Agricultural Research Center, USDA, Beltsville, MD 20
m/z	RELATIVE INTENSITY
41	8576
42	1275
43	9999
44	909
45	461
46	15
50	122
51	546
52	270
53	2395
54	401
55	4416
56	1289
57	2618
58	318
59	159
60	29
61	13
62	26
63	137
64	20
65	1031
66	336
67	4019
68	491
69	2554
70	293
71	788
72	74
73	57
74	16
75	27
77	2336
78	488
79	3020
80	827
81	3398
82	1098
83	795
84	381
85	258
86	212
87	29
89	58
91	2951
92	661
93	4251
94	2194
95	2340
96	411
97	423
98	118
99	84
100	4
101	13
102	38
103	226
104	104
105	1957
106	492
107	2518
108	557
109	4625
110	591
111	510
112	75
113	48
115	239
116	89
117	330
118	96
119	1123
120	378
121	2037
122	497
123	1391
124	306
125	1293
126	341
127	137
128	95
129	126
130	61
131	511
132	77
133	1293
134	326
135	1202
136	380
137	555
138	254
139	190
140	59
141	53
142	35
143	77
144	53
145	400
146	149
147	563
148	367
149	371
150	59
151	661
152	128
153	71
154	20
155	30
156	16
157	69
158	23
159	486
160	109
161	347
162	157
163	427
164	157
165	183
166	32
167	24
168	7
169	18
170	4
171	44
172	14
173	144
174	128
175	166
176	330
177	182
178	40
179	108
180	30
181	42
182	20
183	15
185	36
187	365
188	65
189	102
190	33
191	66
192	18
193	19
197	18
199	21
200	9
201	58
202	227
203	92
204	17
205	86
206	17
218	18
219	85
220	282
221	65
222	4
