Mass Spectrum: Butanoic acid, 3-methyl-, 2-hexenyl ester, (E)-
Formula: C11 H20 O2
Molecular weight: 184
Origin: Insect Chem. Ecol. Lab., USDA, Beltsville, MD 20705
m/z	RELATIVE INTENSITY
41	9305
42	2088
43	4149
44	354
45	506
47	705
48	311
49	30
50	19
51	11
52	154
53	973
54	1713
55	7043
56	1184
57	9999
58	558
59	398
60	275
61	166
62	13
63	28
64	5
65	153
66	90
67	2595
68	283
69	756
70	186
71	897
72	118
73	183
74	65
75	12
77	74
78	22
79	142
80	45
81	501
82	1929
83	2511
84	1159
85	7278
86	796
87	306
88	85
89	37
91	17
93	15
94	12
95	64
96	58
97	411
98	127
99	332
100	198
101	69
102	40
103	372
104	22
105	6
107	12
109	41
110	25
111	42
112	28
113	86
114	104
115	128
116	35
117	29
118	7
119	8
120	5
121	25
122	11
123	42
124	87
125	98
126	49
127	199
128	80
129	89
130	22
131	53
132	7
133	23
134	7
135	44
136	14
137	55
138	289
139	362
140	154
141	182
142	484
143	101
144	24
145	121
146	17
147	12
148	5
149	30
150	8
151	45
152	38
153	141
154	34
155	600
156	153
157	159
158	53
159	59
160	15
161	13
162	6
163	19
164	22
165	48
167	69
168	19
169	305
170	53
171	41
172	8
173	6
174	9
175	12
176	5
177	5
178	6
179	9
180	13
181	27
182	52
183	154
184	621
185	115
186	12
187	5
