Mass Spectrum: E-2-Hexadecacen-1-ol
Formula: C16 H32 O
Molecular weight: 240
Origin: J. Klune, Insect Chem. Ecol. Lab., USDA, Beltsville, MD 20705
m/z	RELATIVE INTENSITY
41	9999
42	1943
43	7057
44	476
45	39
49	64
50	57
51	182
52	128
53	1133
54	2423
55	9251
56	4009
57	3690
58	182
59	28
60	28
61	32
63	37
64	21
65	370
66	210
67	2096
68	1030
69	5034
70	3393
71	1615
72	94
73	28
75	21
77	343
78	75
79	489
80	124
81	862
82	1004
83	3915
84	1834
85	836
86	87
87	18
91	128
92	20
93	79
94	61
95	341
96	564
97	2993
98	946
99	147
100	9
102	19
103	35
105	54
106	10
107	30
109	119
110	279
111	1380
112	581
113	76
114	7
115	31
117	29
119	45
121	54
122	7
123	54
124	125
125	490
126	269
127	69
128	37
129	30
130	7
131	17
132	8
133	17
135	20
136	9
137	35
138	77
139	126
140	130
141	45
143	9
144	19
145	34
146	16
147	7
149	17
151	19
152	58
153	63
154	82
155	35
157	7
158	7
159	15
161	24
162	8
163	33
164	7
165	7
166	19
167	19
168	48
169	31
170	9
171	26
173	27
177	14
178	8
179	30
180	19
181	14
182	153
186	19
187	9
188	9
189	16
190	15
191	11
193	7
194	9
195	9
197	10
203	11
204	7
205	34
206	8
207	9
210	1635
211	270
212	27
213	15
221	15
222	7
223	48
224	7
225	21
226	8
238	8
239	11
240	39
241	8
