Mass Spectrum: 15-Methyltritriacontane
Formula: C34 H70
Molecular weight: 478
Origin: J. Klune, Insect Chem. Ecol. Lab., USDA, Beltsville, MD 20705
m/z	RELATIVE INTENSITY
41	2392
42	916
43	6882
44	230
53	126
54	298
55	2776
56	1880
57	9999
58	420
67	446
68	476
69	2240
70	1289
71	6644
72	387
79	37
81	375
82	638
83	1848
84	709
85	4550
86	298
95	252
96	511
97	1815
98	442
99	1621
100	156
109	131
110	256
111	1001
112	321
113	1066
114	118
124	177
125	563
126	213
127	732
138	139
139	292
140	170
141	512
152	120
153	185
154	133
155	467
157	37
167	122
168	122
169	344
183	228
196	689
197	309
210	37
211	171
222	118
223	73
224	3663
225	1718
226	270
238	177
239	146
252	717
253	284
266	188
267	290
269	120
280	2354
281	1599
282	293
294	336
295	436
296	147
308	34
309	34
337	34
407	41
421	86
435	80
448	35
449	216
450	34
463	308
464	84
477	36
478	187
479	41
