Mass Spectrum: E,Z-2,13-Octadecadien-1-ol
Formula: C18 H34 O
Molecular weight: 266
Origin: J. Klune, Insect Chem. Ecol. Lab., USDA, Beltsville, MD 20705
m/z	RELATIVE INTENSITY
41	9842
42	2084
43	3267
44	239
45	40
46	3
47	4
49	14
50	33
51	148
52	114
53	1319
54	3434
55	9999
56	1717
57	1586
58	88
59	23
60	8
61	15
62	8
63	23
65	367
66	372
67	4293
68	2604
69	3774
70	893
71	399
72	34
73	23
74	5
75	12
76	4
77	310
78	87
79	818
80	455
81	3654
82	3837
83	2282
84	361
85	178
86	22
87	9
89	9
91	165
92	31
93	264
94	224
95	2563
96	3005
97	1271
98	195
99	41
100	6
101	12
102	5
103	19
104	10
105	43
106	13
107	120
108	98
109	1222
110	1119
111	337
112	75
113	22
114	5
115	26
116	10
117	19
118	9
119	24
120	14
121	123
122	67
123	527
124	435
125	88
126	30
127	20
128	22
129	21
130	11
131	17
132	3
133	17
134	6
135	99
136	38
137	260
138	268
139	45
140	20
141	21
142	10
143	17
144	10
145	15
146	8
147	14
148	2
149	51
150	26
151	124
152	205
153	38
154	16
155	15
156	8
157	13
158	7
159	11
160	2
161	9
162	4
163	50
164	7
165	118
166	164
167	29
168	16
169	17
170	16
171	23
172	9
173	13
174	3
176	3
177	17
178	3
179	60
180	74
181	19
182	6
183	11
184	13
185	6
186	5
187	12
188	2
189	11
191	17
192	26
193	44
194	70
195	17
196	11
197	3
198	16
199	11
200	5
201	8
202	3
203	8
204	3
205	13
206	3
207	33
208	29
209	9
210	7
212	3
213	9
214	11
215	9
216	8
217	2
218	7
219	6
220	7
221	12
222	6
223	8
224	2
228	3
230	8
231	5
232	5
234	2
236	726
237	138
238	31
239	10
241	5
246	5
247	2
248	18
249	5
250	2
251	11
252	3
264	2
265	5
266	20
267	4
