Mass Spectrum: Butyric acid, 2-bromo-, 1-methylethyl ester
Formula: C7 H13 Br O2
Molecular weight: 208
Origin: Insect Chem. Ecol. Lab., USDA, Beltsville, MD 20705
m/z	RELATIVE INTENSITY
41	3997
42	2326
43	9999
44	428
45	367
46	13
47	4
49	18
50	3
51	14
52	3
53	32
54	28
55	739
56	57
57	135
58	21
59	327
60	27
63	3
64	7
65	5
66	2
67	25
68	47
69	235
70	178
71	87
72	12
73	77
74	8
75	3
77	9
79	30
80	16
81	35
82	22
83	24
84	29
85	402
86	61
87	335
88	40
89	9
91	13
92	16
93	62
94	19
95	61
96	13
97	18
98	9
99	12
101	7
103	3
105	32
106	26
107	35
108	24
109	21
110	8
111	13
112	2
113	3
115	9
116	2
117	8
118	3
119	21
120	202
121	923
122	230
123	853
124	41
125	10
126	3
127	3
128	5
129	302
130	30
131	4
133	22
135	19
137	13
138	124
139	11
140	126
141	12
143	3
145	3
147	7
148	17
149	747
150	51
151	733
152	40
153	16
154	2
155	6
156	4
161	9
164	10
165	11
166	89
167	322
168	101
169	315
170	21
171	6
175	3
176	6
178	5
180	197
181	17
182	194
183	17
184	3
186	2
187	4
189	3
190	2
191	3
193	133
194	13
195	129
196	16
206	7
207	9
208	46
209	12
210	42
211	9
