Mass Spectrum: Z,E-2,13-Octadecadien-1-ol
Formula: C18 H34 O
Molecular weight: 266
Origin: J. Klune, Insect Chem. Ecol. Lab., USDA, Beltsville, MD 20705
m/z	RELATIVE INTENSITY
41	7471
42	1487
43	4342
44	591
45	165
49	23
51	184
52	157
53	1152
54	3153
55	9999
56	1882
57	4342
58	262
59	96
61	52
63	85
65	466
66	522
67	5892
68	3714
69	4364
70	1719
71	1166
72	134
73	177
75	48
77	541
78	532
79	1748
80	1493
81	5835
82	5435
83	3278
84	693
85	744
86	116
87	81
91	479
92	203
93	1241
94	1196
95	4514
96	4792
97	2150
98	487
99	242
101	36
103	35
104	91
105	337
106	331
107	900
108	767
109	2396
110	1864
111	916
112	269
113	171
115	102
117	97
118	38
119	269
120	139
121	1136
122	630
123	1132
124	932
125	435
126	155
127	128
128	95
129	108
130	23
131	124
132	12
133	220
134	121
135	987
136	408
137	564
138	488
139	184
140	99
141	129
142	12
143	100
144	46
145	125
146	11
147	202
148	69
149	724
150	231
151	306
152	382
153	167
154	89
155	117
156	11
157	55
158	36
159	101
161	140
162	37
163	354
164	129
165	238
166	246
167	125
168	62
169	101
171	67
173	89
175	128
176	12
177	268
178	155
179	238
180	204
181	97
183	73
185	39
187	39
189	138
190	12
191	266
192	154
193	152
194	135
195	97
196	12
197	92
199	12
203	104
205	209
206	110
207	170
208	163
209	108
210	64
211	110
213	12
215	36
217	87
219	197
220	63
221	132
222	112
223	87
224	79
225	111
226	76
227	12
229	12
231	12
233	98
234	23
235	79
236	102
237	64
238	104
239	101
240	101
241	24
243	15
244	91
246	48
247	51
248	863
249	219
250	52
251	150
252	111
265	13
266	55
267	14
