Mass Spectrum: 8-Tetradecen-1-ol acetate
Formula: C16 H30 O2
Molecular weight: 254
Origin: J. Klune, Insect Chem. Ecol. Lab., USDA, Beltsville, MD 20705
m/z	RELATIVE INTENSITY
41	4221
42	871
43	9999
44	556
45	171
46	9
47	9
48	2
49	10
50	50
51	223
52	211
53	1203
54	621
55	5268
56	1627
57	1298
58	159
59	85
60	36
61	2841
62	93
63	76
64	45
65	476
66	691
67	3260
68	1164
69	1939
70	462
71	415
72	54
73	267
74	22
75	17
76	7
77	734
78	274
79	2140
80	1027
81	3351
82	924
83	1165
84	2164
85	456
86	52
87	66
88	13
89	20
91	1195
92	255
93	1210
94	592
95	2304
96	573
97	679
98	282
99	150
100	108
101	59
102	17
103	54
104	39
105	682
106	196
107	822
108	528
109	1093
110	593
111	855
112	187
113	99
114	29
115	61
116	26
117	100
118	35
119	265
120	128
121	429
122	449
123	4167
124	618
125	738
126	608
127	108
128	36
129	391
130	44
131	103
132	31
133	326
134	134
135	337
136	112
137	352
138	746
139	293
140	92
141	52
142	27
143	35
144	26
145	59
146	20
147	130
148	85
149	174
150	201
151	547
152	177
153	90
154	24
155	55
156	12
157	18
159	39
160	15
161	68
162	34
163	163
164	58
165	542
166	92
167	88
168	66
169	313
170	137
171	42
172	7
173	39
174	6
175	49
176	11
177	82
178	35
179	138
180	37
181	38
182	15
183	24
184	35
185	33
187	9
188	11
189	22
190	20
191	53
192	36
193	70
194	29
195	24
196	8
197	30
198	14
199	12
200	8
203	10
204	12
205	27
206	40
207	47
208	58
209	28
210	555
211	2084
212	371
213	53
214	20
218	3
219	21
221	9
222	3
223	80
224	84
225	26
226	52
227	17
229	7
233	6
234	6
237	11
238	29
239	43
240	11
241	7
242	2
251	18
252	9
253	15
254	32
255	10
256	5
