Mass Spectrum: .beta.-Santanol acetate
Formula: C17 H26 O2
Molecular weight: 262
Origin: Insect Chem. Ecol. Lab., USDA, Beltsville, MD 20705
m/z	RELATIVE INTENSITY
41	1292
43	6818
44	270
45	60
46	33
47	21
49	60
50	21
51	129
52	62
53	490
55	1406
56	68
57	300
58	145
59	72
60	57
61	92
63	44
65	407
66	240
67	1433
68	580
69	805
71	461
72	150
73	107
74	67
75	99
77	1164
78	99
79	2550
80	404
81	1500
82	584
83	565
84	467
85	393
86	118
87	106
88	13
89	31
91	1770
92	632
93	7196
94	9999
95	2605
96	482
97	477
98	262
99	310
100	151
101	119
102	23
103	173
104	56
105	1744
106	834
107	2790
108	1172
109	1393
110	467
111	507
112	126
113	118
114	49
115	140
116	119
117	763
118	320
119	2794
120	1477
121	7609
122	5909
123	1206
124	163
125	302
126	186
127	211
128	48
129	217
130	84
131	744
132	1307
133	1263
134	1382
135	1633
136	325
137	693
138	821
139	203
140	215
141	130
142	44
143	207
144	93
145	843
146	523
147	826
148	408
149	414
150	206
151	288
152	143
153	186
154	64
155	94
156	50
157	189
158	157
159	1012
160	464
161	788
162	237
163	301
164	119
165	195
166	89
167	108
168	43
169	57
170	30
171	131
172	106
173	444
174	472
175	438
176	105
177	341
178	186
179	165
180	67
181	78
182	35
183	55
184	20
185	121
186	17
187	1420
188	265
189	427
190	125
191	132
192	75
193	128
194	86
195	85
196	15
197	43
198	35
199	83
200	186
201	334
202	3914
203	846
205	662
206	106
207	77
208	11
209	60
210	22
211	24
212	18
213	23
214	36
215	47
216	130
217	172
218	199
219	203
220	173
221	126
222	55
223	37
224	13
225	23
226	4
227	13
228	13
229	17
230	23
231	29
232	55
233	51
234	85
235	72
236	44
237	38
238	14
239	15
241	8
243	15
244	4
245	16
246	16
247	38
248	26
249	30
250	24
251	23
252	14
253	13
257	4
258	7
259	20
260	97
261	83
262	185
263	43
264	55
265	24
