Mass Spectrum: 6-Hepten-1-ol, 2-methyl-
Formula: C8 H16 O
Molecular weight: 128
Origin: Insect Chem. Ecol. Lab., USDA, Beltsville, MD 20705
m/z	RELATIVE INTENSITY
41	5663
42	811
43	2591
44	191
45	3624
46	194
48	55
52	199
53	1036
54	399
55	2686
56	1225
57	645
58	1431
59	323
61	50
62	65
64	100
65	124
66	79
67	2686
68	1774
69	4215
70	558
71	2298
72	311
73	55
74	29
75	37
76	73
77	140
78	74
79	372
80	233
81	998
82	267
83	281
85	542
86	108
87	40
90	62
91	101
92	43
93	496
95	9999
96	813
109	109
110	2023
111	236
113	374
114	26
126	86
127	40
128	1212
129	187
130	30
