Mass Spectrum: trans-5-Methyl-2-isopropyl-2-hexen-1-al
Formula: C10 H18 O
Molecular weight: 154
Origin: B. Derendyaev, Novosibirsk Institute of Organic Chemistry
m/z	RELATIVE INTENSITY
29	2109
30	50
31	99
32	10
36	189
37	299
38	429
39	4049
40	679
41	9319
42	809
43	9999
44	5719
45	60
46	10
48	10
49	50
50	209
51	469
52	179
53	789
54	189
55	2879
56	1569
57	669
58	60
59	149
60	20
61	20
62	50
63	119
64	20
65	399
66	209
67	1299
68	369
69	3839
70	659
71	199
72	30
73	10
74	10
75	20
76	50
77	599
78	189
79	1249
80	199
81	1299
82	259
83	2299
84	429
85	419
86	40
89	20
90	20
91	449
92	109
93	1099
94	249
95	869
97	4629
98	609
99	639
104	20
105	199
106	60
107	159
108	40
109	169
110	289
111	3219
112	959
113	50
120	30
121	1589
122	149
123	199
124	30
125	99
126	20
135	30
136	80
137	80
138	129
139	2099
140	199
153	479
154	300
155	10
