Mass Spectrum: Selina-6-en-4-ol
Formula: C15 H26 O
Molecular weight: 222
Origin: B. Derendyaev, Novosibirsk Institute of Organic Chemistry
m/z	RELATIVE INTENSITY
40	60
41	3209
42	70
43	9539
44	129
45	259
51	90
53	669
54	99
55	2679
56	179
57	659
58	509
59	319
65	349
66	50
67	2189
68	479
69	4029
70	199
71	2459
72	50
77	1189
78	149
79	2119
80	379
81	9999
82	1269
83	1009
84	329
85	1069
91	2389
92	349
93	4719
94	709
95	3229
96	3239
97	1079
98	159
99	60
103	80
104	179
105	5249
106	629
107	2299
108	1499
109	2659
110	239
111	549
113	169
115	80
117	219
118	70
119	2419
120	479
121	4849
122	1049
123	2099
124	229
125	819
126	109
131	599
132	70
133	2179
134	1459
135	4209
136	1039
137	4079
138	539
139	129
145	359
146	60
147	2319
148	969
149	1269
150	109
151	389
152	80
157	60
159	209
160	109
161	8849
162	1379
163	519
164	999
165	139
169	259
173	109
175	339
177	99
179	1209
180	119
181	249
187	169
189	4289
190	559
204	9029
205	1449
206	80
207	559
219	70
222	1719
223	189
