Mass Spectrum: .gamma.-HIMACHALENE
Formula: C15 H24
Molecular weight: 204
Origin: B. Derendyaev, Novosibirsk Institute of Organic Chemistry
m/z	RELATIVE INTENSITY
40	159
41	3819
42	259
43	2789
44	90
45	50
47	389
49	109
51	269
52	109
53	899
54	80
55	3059
56	459
57	1169
58	90
59	129
60	99
63	60
64	119
65	839
66	179
67	1669
68	199
69	2989
70	229
71	679
76	50
77	2019
78	499
79	2789
80	679
81	2399
82	1339
83	769
84	529
85	189
91	4799
92	1829
93	5029
94	1629
95	2579
96	639
97	399
98	50
99	60
100	60
103	449
104	269
105	6389
106	1969
107	3459
108	1369
109	1919
110	429
111	239
112	90
113	60
115	949
116	309
117	4429
118	329
119	9999
120	1919
121	4129
122	1119
123	729
124	169
125	129
127	199
128	709
129	749
130	259
131	2929
132	959
133	5939
134	1889
135	2389
136	1189
137	459
138	119
139	70
141	449
142	479
143	659
144	329
145	2229
146	1499
147	2829
148	1969
149	1009
150	349
151	179
152	80
153	90
155	169
156	129
157	909
158	339
159	1889
160	549
161	6149
162	1329
163	779
164	199
165	129
169	50
170	189
171	459
172	70
173	309
174	139
175	889
176	339
177	409
178	289
181	179
185	809
186	90
187	2269
188	369
189	3659
190	489
191	199
200	589
201	139
202	1999
203	519
204	6349
205	1259
206	339
207	149
