Mass Spectrum: Cadala-1(10),3,8-triene
Formula: C15 H22
Molecular weight: 202
Origin: B. Derendyaev, Novosibirsk Institute of Organic Chemistry
m/z	RELATIVE INTENSITY
41	339
43	219
53	70
55	80
65	109
67	60
77	249
79	90
91	419
96	60
105	489
106	90
115	899
116	139
117	349
119	259
127	179
128	659
129	719
130	199
131	999
132	389
133	50
139	129
141	2119
142	4229
143	879
144	409
145	569
146	60
152	209
153	349
154	99
155	459
156	1649
157	9999
158	1659
159	3009
160	379
183	99
200	2119
202	839
203	389
