Mass Spectrum: Ergost-5-en-3-ol, acetate, (3.beta.,24R)-
Formula: C30 H50 O2
Molecular weight: 442
Origin: H. Luftmann, Org. Chem. Inst., Westfalisch-Wilhelms Univ., Munster, Germany
m/z	RELATIVE INTENSITY
38	132
39	1551
40	804
41	6462
42	1521
43	9999
44	966
45	487
51	214
52	107
53	611
54	274
55	2209
56	645
57	1184
58	325
64	102
65	337
66	290
67	1355
68	415
69	641
70	287
71	492
72	197
73	171
74	111
76	158
77	697
78	512
79	1448
80	632
81	1735
82	487
83	385
84	162
85	192
87	107
89	167
90	317
91	1743
92	662
93	1136
94	462
95	791
96	329
97	244
98	124
102	120
103	449
104	295
105	1683
106	688
107	1158
108	479
109	645
110	260
111	218
112	107
114	137
115	337
116	320
117	684
118	462
119	816
120	419
121	637
122	287
123	235
124	145
125	102
126	111
127	260
128	615
129	572
130	427
131	931
132	397
133	996
134	376
135	727
136	248
137	154
138	102
141	317
142	274
143	944
144	483
145	1868
146	1196
147	1743
148	667
149	619
150	197
151	137
155	158
156	124
157	509
158	483
159	931
160	824
161	569
162	265
163	530
164	141
169	145
171	342
172	145
173	436
174	210
175	290
176	111
177	295
183	115
185	299
186	141
187	171
189	132
191	184
197	141
199	307
200	171
201	227
205	115
207	124
211	115
213	709
214	214
215	124
227	188
228	175
229	167
233	102
241	107
251	115
253	239
254	150
255	1047
256	282
259	175
260	201
261	739
262	175
273	132
274	363
275	128
281	111
283	201
340	269
367	1017
368	307
381	124
382	1436
383	470
