Mass Spectrum: 2,6-Dimethyl-3,5,7-octatriene-2-ol, ,E,E-
Formula: C10 H16 O
Molecular weight: 152
Origin: Mark Whitten, Florida Museum of Natural History, U. of Florida
m/z	RELATIVE INTENSITY
41	2035
43	9999
44	314
45	1103
46	56
50	237
51	734
52	340
53	1120
54	173
55	1734
56	117
57	324
58	97
59	707
60	67
61	68
62	115
63	293
64	86
65	791
66	227
67	1979
68	668
69	383
70	75
71	165
72	439
74	49
75	56
77	1540
78	419
79	1679
80	449
81	2255
82	239
83	172
84	59
85	93
89	60
91	1917
92	271
93	1377
94	470
95	966
96	125
97	147
98	81
103	153
104	104
105	304
106	100
107	628
108	216
109	2561
110	290
111	35
115	108
117	177
119	613
120	88
121	198
122	93
123	290
124	34
133	35
134	208
135	96
137	609
138	81
152	1469
153	168
