Mass Spectrum: Acryl glycine, N,O-bis(trimethylsilyl)-
Formula: C11 H23 N O3 Si2
Molecular weight: 273
Origin: James Shoemaker, St. Louis Online Library of Metabolic Mass Spectra
m/z	RELATIVE INTENSITY
55	1789
59	369
60	1409
67	169
73	9999
74	439
75	859
77	269
100	70
102	1969
103	80
116	899
117	40
128	229
133	109
140	119
141	159
142	70
145	60
147	5179
148	389
149	99
155	929
156	8889
157	629
158	70
175	1419
176	99
183	40
228	99
230	379
258	539
