Mass Spectrum: Hexanoyl glycine, bis(trimethylsilyl)-
Formula: C14 H31 N O3 Si2
Molecular weight: 317
Origin: James Shoemaker, St. Louis Online Library of Metabolic Mass Spectra
m/z	RELATIVE INTENSITY
54	80
55	599
56	109
57	109
58	109
59	429
60	30
61	99
67	30
68	279
69	139
70	60
71	669
72	349
73	9299
74	789
75	1849
76	119
77	70
81	30
82	159
83	60
84	30
85	30
86	309
87	50
88	50
98	30
99	689
100	1299
101	399
102	9999
103	969
104	379
105	10
109	30
110	109
112	20
113	20
114	10
115	80
116	1379
117	249
118	60
119	30
126	30
127	10
128	60
129	319
130	509
131	249
132	90
133	479
134	50
135	20
138	20
140	30
142	139
143	809
144	559
145	80
146	40
147	3009
148	449
149	269
150	20
154	10
156	869
157	359
158	139
159	20
160	10
161	10
163	10
168	20
170	379
171	3519
172	579
173	179
174	119
175	30
176	3459
177	549
178	259
179	10
184	469
185	189
186	60
187	10
188	10
189	10
190	10
198	309
199	50
200	4329
201	689
202	239
203	20
204	30
212	70
216	0
217	10
218	459
219	129
220	30
226	10
227	10
228	70
230	50
246	80
258	0
259	0
261	2649
262	549
263	219
274	2199
275	549
276	199
277	10
288	409
289	80
290	20
302	1519
304	509
306	10
317	80
319	10
