Mass Spectrum: N-Acetyltyrosine, 3TMS derivative
Formula: C20 H37 N O4 Si3
Molecular weight: 439
Origin: James Shoemaker, St. Louis Online Library of Metabolic Mass Spectra
m/z	RELATIVE INTENSITY
73	6179
75	1579
179	9999
180	1699
218	4219
219	1509
249	899
260	4609
261	1099
293	3109
308	6729
309	1909
352	1099
