Mass Spectrum: 2-Butanone,3-oxo-,(2,4-dinitrophenyl)hydrazone
Formula: C10 H10 N4 O5
Molecular weight: 266
Origin: ASES Database, Dalian Institute, P.R. China
m/z	RELATIVE INTENSITY
30	1371
42	2592
43	9999
62	590
63	800
75	700
78	600
79	490
88	390
90	300
106	300
135	500
136	200
137	190
152	390
153	200
165	290
181	2201
182	800
183	300
266	1791
267	380
