Mass Spectrum: L-Ornithine, 3TBDMS derivative
Formula: C23 H54 N2 O2 Si3
Molecular weight: 474
Origin: J.M. Halket, Trace Anal. Unit (TAU), London, UK
m/z	RELATIVE INTENSITY
39	130
41	630
42	60
43	220
44	110
45	470
46	60
47	80
53	20
54	30
55	90
56	180
57	720
58	360
59	1300
60	200
61	70
66	10
68	170
70	1210
71	120
73	9999
74	1880
75	1010
76	100
77	30
80	40
81	10
82	30
83	30
84	50
85	120
86	160
87	120
88	250
89	40
96	10
97	260
98	230
99	190
100	490
101	180
102	100
103	260
104	150
105	30
110	50
111	10
112	60
113	50
114	150
115	260
116	130
117	130
118	60
119	60
124	20
126	80
127	50
128	140
129	80
130	250
131	170
132	350
133	520
134	110
135	60
140	10
141	70
142	120
143	90
144	540
145	110
146	170
147	1010
148	800
149	260
150	70
151	20
153	610
154	300
155	70
156	60
157	70
158	50
159	60
160	70
161	20
162	10
168	30
170	510
171	140
172	90
173	70
174	60
175	30
176	40
182	40
184	3530
185	560
186	180
187	30
188	50
189	50
190	50
194	10
195	40
196	20
198	10
199	20
200	40
201	30
202	30
204	20
206	20
211	90
212	70
213	20
214	10
216	30
218	10
227	10
228	40
229	10
230	50
231	20
232	40
242	180
243	50
244	30
245	130
246	40
247	10
256	40
257	70
258	750
259	180
260	90
261	20
269	20
270	20
274	30
275	10
283	10
285	610
286	2370
287	630
288	240
289	50
300	40
301	30
302	60
303	20
313	10
314	40
315	100
316	40
317	20
325	140
326	60
327	120
328	160
329	50
330	10
342	30
343	50
344	20
416	10
417	160
418	70
419	30
459	20
474	720
475	310
476	140
477	30
