Mass Spectrum: Quinolinic acid, 2TMS derivative
Formula: C13 H21 N O4 Si2
Molecular weight: 311
Origin: J.M. Halket, Trace Anal. Unit (TAU), London, UK
m/z	RELATIVE INTENSITY
38	30
39	230
41	40
42	110
43	1300
44	710
45	4060
46	280
47	540
48	30
49	40
50	340
51	270
52	130
53	170
54	60
55	210
56	80
57	190
58	290
59	640
60	90
61	160
62	30
63	50
64	80
65	300
66	180
67	140
68	50
69	70
70	120
71	120
72	530
73	9320
74	860
75	1140
76	380
77	710
78	530
79	100
80	60
81	70
82	60
83	110
84	120
85	50
86	40
87	50
90	120
91	220
92	350
93	230
94	110
95	60
96	50
97	50
98	20
99	20
102	40
103	130
104	130
105	170
106	350
107	260
108	260
109	210
111	50
113	20
115	100
116	30
117	90
119	280
120	600
121	100
122	90
123	60
124	40
125	10
127	20
128	20
130	20
131	220
132	90
133	460
134	230
135	230
136	390
137	60
138	30
141	500
143	20
144	30
147	9999
148	1700
149	980
150	320
151	80
152	100
162	130
163	40
164	340
165	400
166	110
167	50
176	30
178	120
179	130
180	90
181	30
182	30
192	30
193	200
194	2250
195	320
196	110
208	70
209	30
210	70
221	70
222	110
223	100
224	130
225	30
234	30
236	30
238	90
239	40
251	20
252	450
253	130
254	50
265	20
266	640
267	250
268	220
269	50
294	20
296	3090
297	810
298	330
299	50
