Mass Spectrum: 2-Methylalanine, 2TBDMS derivative
Formula: C16 H37 N O2 Si2
Molecular weight: 331
Origin: J.M. Halket, Trace Anal. Unit (TAU), London, UK
m/z	RELATIVE INTENSITY
39	320
41	1700
42	460
43	590
44	280
45	1140
46	130
47	300
52	20
53	50
54	50
55	150
56	300
57	1650
58	950
59	1340
60	250
61	140
66	40
67	20
68	70
69	100
70	110
71	70
73	9999
74	1080
75	1410
76	160
77	50
82	10
83	40
84	100
85	130
86	70
87	40
88	10
89	10
94	20
95	60
96	20
97	40
98	80
99	130
100	560
101	260
102	70
103	360
104	40
105	30
108	40
112	20
114	650
115	680
116	240
117	250
118	70
119	70
126	40
128	80
129	90
130	40
131	140
132	370
133	880
134	140
135	70
142	450
143	140
144	110
145	130
147	2270
148	400
149	250
150	30
156	80
157	30
158	20
159	30
160	70
172	8170
173	1290
174	590
175	80
176	30
184	20
188	40
189	60
190	20
202	50
203	10
216	50
217	30
230	30
244	10
246	2550
247	580
248	240
249	30
259	10
272	20
274	1810
275	430
276	180
277	20
288	140
289	30
316	180
317	50
318	20
