Mass Spectrum: 2-Methyl-5-(fur-3-yl)-pent-1-en-3-ol
Formula: C10 H14 O2
Molecular weight: 166
Origin: ASES Database, Dalian Institute, P.R. China
m/z	RELATIVE INTENSITY
41	6025
43	4213
53	2522
54	890
57	990
67	1391
71	2382
72	1010
81	6666
82	9999
83	800
91	490
94	1101
95	2312
105	400
108	400
119	390
123	390
133	500
148	1691
149	200
151	300
166	190
