Mass Spectrum: Methyl trans-3-chloropropenoate
Formula: C4 H5 Cl O2
Molecular weight: 120
Origin: ASES Database, Dalian Institute, P.R. China
m/z	RELATIVE INTENSITY
41	380
53	230
54	140
59	80
60	150
61	2372
62	70
63	860
75	80
85	3062
86	150
89	9999
90	370
91	3242
92	150
120	760
122	250
