Mass Spectrum: (S)-3-Ethyl-4-methylpentanol
Formula: C8 H18 O
Molecular weight: 130
Origin: ASES Database, Dalian Institute, P.R. China
m/z	RELATIVE INTENSITY
41	9738
42	1911
43	5625
45	680
55	5905
56	2812
57	2582
67	490
68	990
69	9999
70	2402
71	500
83	2502
84	7767
85	1010
97	590
112	90
