Mass Spectrum: Prop-1-enyl dithiopropanonate
Formula: C6 H10 S2
Molecular weight: 146
Origin: ASES Database, Dalian Institute, P.R. China
m/z	RELATIVE INTENSITY
39	1611
41	1571
45	4083
59	300
69	400
71	1611
72	1681
73	9999
74	890
76	490
131	2502
146	3012
