Mass Spectrum: THYMIDINE, 3'-(O-TERT.-BUTYLDIMETHYLSILYL)-5'-ACETYL-
Formula: C18 H30 N2 O6 Si
Molecular weight: 398
Origin: ASES Database, Dalian Institute, P.R. China
m/z	RELATIVE INTENSITY
73	1441
75	1080
81	9999
82	800
89	760
115	700
117	1991
127	940
129	710
143	470
145	520
155	700
157	320
183	940
201	1661
202	470
207	1571
208	430
213	610
214	230
341	940
342	480
