Mass Spectrum: Methyl cis-3-chloropropenoate
Formula: C4 H5 Cl O2
Molecular weight: 120
Origin: ASES Database, Dalian Institute, P.R. China
m/z	RELATIVE INTENSITY
41	140
42	370
53	310
54	140
55	80
59	370
60	150
61	2762
62	140
63	1151
75	380
85	2232
89	9999
90	370
91	3242
102	70
120	690
122	80
