Mass Spectrum: 5'-O-(tert-butyldimethylsilyl)-thymidine
Formula: C16 H28 N2 O5 Si
Molecular weight: 356
Origin: ASES Database, Dalian Institute, P.R. China
m/z	RELATIVE INTENSITY
59	1111
73	7196
75	5865
81	9999
82	900
89	5014
90	380
101	820
103	560
105	1371
110	1941
113	560
115	1651
117	2121
126	1111
127	1681
129	1371
143	820
145	4153
153	1941
155	2792
165	1381
173	1101
183	2212
213	1111
231	380
263	1101
264	280
281	6115
282	1281
299	1831
300	560
