Mass Spectrum: Cholestan-3.alpha.-ol acetate
Formula: C29 H50 O2
Molecular weight: 430
Origin: LAC, NIDDK, NIH, Bethesda, MD 20892
m/z	RELATIVE INTENSITY
41	1727
43	9999
44	217
45	43
47	99
49	339
51	162
53	256
55	2493
57	2174
58	50
59	5
61	732
63	22
65	112
67	1129
68	256
69	745
70	57
71	763
72	36
74	31
75	16
77	268
79	876
81	1445
82	246
83	478
84	235
85	132
86	129
87	6
88	26
91	668
93	1392
94	510
95	1116
96	147
97	204
98	18
99	8
101	19
103	38
105	858
106	458
107	952
108	482
109	416
110	53
111	107
112	15
113	12
115	72
117	150
118	18
119	376
120	206
121	432
122	205
123	254
124	45
125	36
126	6
127	17
128	23
129	32
131	154
132	20
133	431
134	252
135	386
136	124
137	66
138	9
139	5
141	10
143	40
145	369
146	54
147	824
148	206
149	217
150	32
151	22
152	23
153	6
155	5
157	29
159	147
160	94
161	199
162	117
163	78
164	16
165	20
167	8
171	11
173	147
174	69
175	115
176	72
177	34
178	5
179	11
185	25
187	113
188	69
189	52
190	7
191	9
193	14
199	27
201	265
202	83
203	53
204	7
205	8
206	7
207	7
208	21
213	21
215	1595
216	734
217	422
218	64
219	10
220	6
227	8
229	13
230	327
231	75
232	9
233	8
241	11
243	24
244	18
245	9
247	35
248	10
255	10
256	6
257	169
258	29
259	8
260	22
261	41
262	84
263	20
269	5
274	12
275	290
276	228
277	41
285	29
286	6
287	9
288	12
289	11
290	17
301	5
313	10
314	9
315	7
316	96
317	11
328	47
329	8
355	569
356	125
357	23
370	1633
371	311
372	49
415	52
430	325
431	107
432	16
