Mass Spectrum: 1-Ethyl-3-vinyl-adamantane
Formula: C14 H22
Molecular weight: 190
Origin: V.G.Zaikin, TIPS, Russian Acad. Sci.
m/z	RELATIVE INTENSITY
51	100
53	400
55	600
56	50
57	100
65	250
66	100
67	800
68	50
69	300
77	600
78	200
79	1201
80	100
81	1101
91	1251
92	200
93	1851
94	150
95	300
103	100
105	3002
106	300
107	400
119	1000
120	200
133	600
161	9999
162	1251
163	100
190	1601
191	250
192	20
