Mass Spectrum: Trans-3,4-dimethylthiane
Formula: C7 H14 S
Molecular weight: 130
Origin: V.G.Zaikin, TIPS, Russian Acad. Sci.
m/z	RELATIVE INTENSITY
41	9999
42	1601
43	1401
44	5204
45	3603
46	2802
47	3202
53	2201
54	1401
55	9608
56	2502
57	1201
59	2201
60	2802
61	4003
67	2402
68	1201
69	5204
70	8007
73	1000
74	2001
75	2101
81	4203
82	1601
83	6005
84	800
87	1801
88	1201
96	700
101	1601
102	200
115	8707
116	1201
117	400
130	7606
131	650
132	360
133	30
