Mass Spectrum: 2-Methylbicyclo[3.2.1]octane
Formula: C9 H16
Molecular weight: 124
Origin: V.G.Zaikin, TIPS, Russian Acad. Sci.
m/z	RELATIVE INTENSITY
38	100
39	2902
40	500
41	4554
42	520
43	470
44	200
50	120
51	450
52	230
53	1251
54	1651
55	3903
56	400
57	350
63	130
65	650
66	850
67	9999
68	4654
69	1501
70	250
71	100
77	710
78	200
79	1251
80	420
81	6656
82	3403
83	750
91	300
93	230
94	230
95	9108
96	3102
97	550
107	100
108	120
109	4604
110	510
111	150
121	100
123	180
124	1371
125	131
126	9
