Mass Spectrum: Trans-3,5-dimethylthiane
Formula: C7 H14 S
Molecular weight: 130
Origin: V.G.Zaikin, TIPS, Russian Acad. Sci.
m/z	RELATIVE INTENSITY
41	9708
42	2802
43	2201
44	4804
45	4103
46	3703
47	3302
53	1601
54	1501
55	9408
56	1501
57	1101
58	600
59	2201
60	1501
61	3002
67	2201
68	650
69	3703
71	1101
72	700
73	1501
74	8107
75	3102
76	700
77	800
81	3803
82	700
83	9999
84	700
87	1101
88	1201
96	700
101	900
115	8507
116	900
117	600
130	6305
131	531
132	300
133	20
