Mass Spectrum: Sclareoloxide
Formula: C18 H30 O
Molecular weight: 262
Origin: V.G.Zaikin, TIPS, Russian Acad. Sci.
m/z	RELATIVE INTENSITY
41	5975
42	530
43	9999
44	1371
53	1731
54	100
55	5054
56	440
57	830
65	300
67	2492
68	1131
69	7276
71	2872
77	1181
79	1601
80	770
81	7506
82	2081
83	1391
84	150
91	2151
92	460
93	2852
94	780
95	6976
96	1010
97	750
98	160
105	1401
106	280
107	3082
108	960
109	9878
110	1171
111	1511
119	900
120	480
121	3853
122	1441
123	5795
124	2802
125	1951
126	280
131	160
133	960
134	270
135	2031
136	2242
137	3353
138	1121
139	450
145	300
147	560
148	220
149	1261
150	1010
151	820
152	140
159	480
161	530
162	130
163	780
164	410
165	400
173	440
174	400
175	440
177	3022
178	530
179	180
191	6125
192	1551
193	230
200	160
201	440
202	180
204	1221
205	280
206	130
212	160
217	300
219	270
229	1391
230	200
244	770
245	220
247	1221
248	240
262	6085
263	1210
264	110
