Mass Spectrum: Exo-tricyclo[5.2.1.0(2.6)]decane
Formula: C10 H16
Molecular weight: 136
Origin: V.G.Zaikin, TIPS, Russian Acad. Sci.
m/z	RELATIVE INTENSITY
27	200
28	500
29	500
39	3002
40	570
41	2402
42	280
43	110
44	230
50	140
51	490
52	380
53	1381
54	880
55	2041
65	680
66	3212
67	7807
68	3703
69	610
77	1391
78	540
79	4063
80	2882
81	1381
82	870
91	940
92	140
93	2382
94	3513
95	9999
96	790
105	100
107	1911
108	1961
109	280
121	2302
122	210
135	470
136	3873
137	420
138	20
