Mass Spectrum: Endo-tricyclo[5.2.1.0(2.6)]decane
Formula: C10 H16
Molecular weight: 136
Origin: V.G.Zaikin, TIPS, Russian Acad. Sci.
m/z	RELATIVE INTENSITY
27	900
28	4704
29	340
39	1901
40	400
41	2902
42	200
43	140
44	250
50	100
51	420
52	180
53	1000
54	700
55	750
65	980
66	3152
67	8958
68	3993
69	560
77	1361
78	520
79	4303
80	2452
81	1151
82	730
91	1161
92	100
93	2452
94	4524
95	9999
96	560
107	1701
108	1401
109	100
121	2802
122	230
135	100
136	2001
137	220
138	10
