Mass Spectrum: Pentanoic acid, 3,5-bis[(tert-butyldimethylsilyl)oxy]-3-methyl-, tert-butyldimethylsilyl ester
Formula: C24 H54 O4 Si3
Molecular weight: 490
Origin: J.M. Halket, Trace Anal. Unit (TAU), London, UK
m/z	RELATIVE INTENSITY
38	10
39	130
40	40
41	1030
42	60
43	360
44	50
45	390
46	30
47	210
53	60
54	20
55	380
56	240
57	900
58	290
59	830
60	100
61	110
65	10
66	20
67	120
68	30
69	210
70	30
71	60
73	9999
74	890
75	2060
76	130
77	80
81	20
82	20
83	100
84	10
85	170
86	30
87	70
89	2370
90	210
91	90
95	90
96	30
97	40
98	10
99	210
100	50
101	220
102	40
103	90
104	20
105	30
111	30
112	10
113	180
115	1450
116	210
117	250
118	30
119	110
125	20
127	40
128	10
129	120
130	20
131	240
132	60
133	880
134	120
135	100
141	30
142	10
143	180
145	880
146	120
147	2140
148	350
149	860
150	120
151	70
157	60
159	80
163	40
169	50
171	30
173	60
174	10
175	40
177	20
185	320
186	50
187	310
188	50
189	560
190	120
191	130
192	20
193	20
199	20
201	20
203	40
204	10
205	20
207	110
208	20
209	20
211	30
217	40
219	30
221	60
222	20
223	10
227	560
228	110
229	40
231	200
232	40
233	220
234	50
235	30
249	550
250	130
251	50
259	1830
260	450
261	220
262	40
263	20
273	190
274	50
275	50
276	20
287	20
291	30
301	640
302	160
303	70
313	30
314	10
315	20
317	4400
318	1170
319	430
320	70
331	440
332	120
333	40
343	130
344	40
357	20
359	20
361	10
391	30
392	10
403	90
404	30
417	20
433	1950
434	730
435	360
436	80
437	20
475	40
476	20
