Mass Spectrum: L-Hydroxyproline, 3TBDMS derivative
Formula: C23 H51 N O3 Si3
Molecular weight: 473
Origin: J.M. Halket, Trace Anal. Unit (TAU), London, UK
m/z	RELATIVE INTENSITY
39	170
41	940
42	100
43	260
44	100
45	570
46	30
47	180
53	20
55	180
56	320
57	1050
58	340
59	1320
60	140
61	140
67	20
68	540
69	70
70	50
71	80
73	9999
74	900
75	1690
76	110
77	30
80	20
83	70
84	50
85	150
86	100
87	30
96	30
97	60
98	90
99	230
100	110
101	360
102	50
103	130
110	10
111	20
112	20
113	30
114	40
115	270
116	110
117	150
118	20
119	110
124	160
125	90
126	140
127	40
129	440
130	80
131	200
132	30
133	970
134	170
135	80
137	10
140	20
142	200
143	60
144	20
145	20
147	1980
148	330
149	320
150	30
151	60
152	40
154	20
157	20
158	90
159	60
160	20
166	20
167	100
168	40
170	70
171	20
172	100
173	170
174	60
175	30
177	20
180	10
182	1290
183	210
184	90
189	80
190	20
193	100
198	140
199	40
200	220
201	50
207	90
209	50
211	20
214	60
216	60
221	50
226	20
228	40
230	10
242	30
244	200
245	40
256	530
257	160
258	120
259	20
269	40
270	20
274	30
283	20
284	20
286	70
298	20
299	120
300	30
302	50
309	20
311	50
312	80
314	9640
315	2620
316	970
317	170
318	20
325	2840
326	770
327	300
328	50
367	160
368	50
369	20
382	440
383	130
384	50
388	2460
389	840
390	350
391	90
416	3190
417	1180
418	540
419	130
420	20
430	60
431	20
458	290
459	120
460	60
