Mass Spectrum: 4-Hydroxyphenyllactic acid, 3TBDMS derivative
Formula: C27 H52 O4 Si3
Molecular weight: 524
Origin: J.M. Halket, Trace Anal. Unit (TAU), London, UK
m/z	RELATIVE INTENSITY
39	120
41	650
42	30
43	130
44	40
45	400
47	100
55	240
56	170
57	760
58	210
59	710
60	70
61	60
71	20
73	9999
74	810
75	1240
76	70
77	70
85	90
89	40
90	20
91	280
99	110
100	20
101	40
102	20
103	180
104	50
105	80
107	210
115	380
116	60
117	130
118	20
119	310
120	20
121	20
129	60
131	140
132	20
133	870
134	130
135	160
145	70
147	4840
148	800
149	750
150	110
151	100
161	130
162	40
163	220
164	90
165	120
166	20
175	40
176	20
177	280
178	60
179	100
189	750
190	170
191	120
192	30
193	300
194	60
195	20
203	50
205	130
206	20
207	120
209	30
217	20
219	80
221	920
222	180
223	90
231	30
233	90
235	160
236	20
237	20
249	60
251	160
252	20
261	130
265	50
267	470
268	100
269	30
275	20
293	190
294	50
295	80
307	170
308	40
309	80
335	230
336	70
337	30
349	30
365	60
377	70
378	20
439	3140
440	1190
441	500
442	140
467	5250
468	2070
469	950
470	210
471	40
509	140
510	60
