Mass Spectrum: 2-Hydroxybutanoic acid, 2TBDMS derivative
Formula: C16 H36 O3 Si2
Molecular weight: 332
Origin: J.M. Halket, Trace Anal. Unit (TAU), London, UK
m/z	RELATIVE INTENSITY
39	160
40	50
41	1030
42	100
43	380
44	90
45	1010
46	60
47	370
52	40
55	610
56	170
57	730
58	440
59	1320
60	110
61	200
66	360
69	290
70	40
71	60
73	8530
74	710
75	2220
76	140
77	80
81	220
85	240
87	50
95	50
99	160
101	110
103	80
115	640
116	100
117	870
118	100
119	140
129	240
131	240
133	1640
134	250
135	110
143	220
145	40
147	9999
148	1530
149	1150
150	110
173	850
174	80
175	90
189	3020
190	610
191	290
203	70
231	220
233	50
247	2410
248	530
249	240
275	4170
276	1050
277	410
