Mass Spectrum: 4-Methyl-1-(dimethyl(prop-2-enyl)silyloxy)pentane
Formula: C11 H24 O Si
Molecular weight: 200
Origin: Vladimir Zaikin, TIPS RAS, Moscow, Russia
m/z	RELATIVE INTENSITY
39	330
41	520
42	190
43	830
44	130
45	480
47	300
55	370
56	130
57	170
58	270
59	860
60	160
61	490
69	180
71	720
73	190
74	180
75	9999
76	740
77	450
83	280
85	170
87	130
88	200
89	460
99	430
100	130
101	600
115	120
117	210
129	220
158	130
159	2432
160	400
161	180
