Mass Spectrum: 2-Acetoxytridecane
Formula: C15 H30 O2
Molecular weight: 242
Origin: Vladimir Zaikin,TIPS RAS, Moscow, Russia
m/z	RELATIVE INTENSITY
39	680
40	190
41	2232
42	880
43	9999
44	720
45	280
53	80
54	320
55	1901
56	1381
57	1551
58	880
59	270
60	50
61	470
67	230
68	200
69	1421
70	1151
71	750
72	70
81	80
82	300
83	1151
84	650
85	350
87	2201
88	40
95	60
96	210
97	1000
98	400
99	60
102	190
110	70
111	550
112	250
113	50
115	50
117	30
123	20
124	60
125	250
126	170
129	30
139	100
140	150
153	30
154	70
182	770
183	80
198	30
199	60
