Mass Spectrum: E-11-Hexadecenoic acid, ethyl ester
Formula: C18 H34 O2
Molecular weight: 282
Origin: V.G.Zaikin, TIPS RAS, Moscow, Russia
m/z	RELATIVE INTENSITY
36	300
37	280
38	500
39	4103
40	1101
41	8287
42	2802
43	4504
44	1291
45	1050
46	180
49	70
50	280
51	400
52	350
53	1151
54	2502
55	9999
56	2452
57	1621
58	150
59	180
60	850
61	700
63	80
65	320
66	400
67	2902
68	1751
69	4624
70	2201
71	780
72	80
73	1080
74	100
75	80
77	350
78	200
79	800
80	420
81	2302
82	1501
83	3002
84	2502
85	500
86	70
87	230
88	3473
89	500
91	300
92	80
93	350
94	300
95	1621
96	2402
97	2552
98	1651
99	280
100	80
101	2001
102	200
103	40
104	20
105	100
106	20
107	230
108	200
109	880
110	1101
111	1020
112	350
113	100
114	60
115	400
119	200
120	70
121	300
122	100
123	800
124	500
125	480
126	90
127	180
128	180
129	330
130	30
133	180
134	110
135	250
136	110
137	480
138	460
139	310
141	270
142	170
143	190
147	130
149	130
151	300
152	700
153	270
155	330
157	110
161	70
163	70
165	150
166	110
167	80
169	50
171	30
175	30
179	80
180	40
185	80
191	130
192	150
193	700
194	150
218	70
219	40
235	70
236	850
237	620
238	80
239	40
282	280
283	100
284	40
