Mass Spectrum: Cinnamoylcocaine
Formula: C19 H23 N O4
Molecular weight: 329
Origin: Patti Price, Georgia Bureau of Investigation, Decatur, Georgia
m/z	RELATIVE INTENSITY
41	700
42	2712
43	240
44	520
45	130
50	180
51	730
52	150
53	370
54	220
55	800
56	390
57	490
58	110
59	540
60	20
62	20
63	110
64	20
65	250
66	110
67	490
68	560
69	170
70	230
71	90
72	20
73	20
74	60
75	110
76	170
77	1891
78	220
79	320
80	270
81	1111
82	9999
83	5254
84	570
85	50
86	20
87	30
89	20
91	500
92	90
93	370
94	3553
95	510
96	5985
97	1301
98	120
99	30
100	50
101	60
102	450
103	2412
104	240
105	40
106	50
107	140
108	510
109	110
110	200
111	50
112	20
113	30
114	30
115	50
117	50
118	50
119	350
120	190
121	80
122	690
123	150
124	100
125	50
126	250
127	40
128	50
129	90
130	30
131	3302
132	340
133	80
134	40
135	90
136	40
138	90
139	30
140	170
141	30
142	30
147	190
148	250
149	50
150	300
151	60
152	450
153	100
154	450
155	350
156	60
157	30
165	60
166	410
167	50
168	1020
169	120
170	50
176	20
179	30
180	260
181	290
182	7276
183	820
184	140
185	20
194	400
195	50
196	20
198	1070
199	120
207	50
214	80
216	20
226	120
227	20
238	1551
239	210
240	20
270	140
271	20
298	490
299	90
329	1571
330	340
331	40
