Mass Spectrum: 1-Tripropylsilyloxytetradecane
Formula: C23 H50 O Si
Molecular weight: 370
Origin: V.G.Zaikin, TIPS RAS, Moscow, Russia
m/z	RELATIVE INTENSITY
26	310
27	1391
28	150
29	2412
33	130
36	220
37	180
38	310
39	1391
40	260
41	5125
42	951
43	7026
44	1271
45	1451
47	991
51	430
53	320
54	320
55	2452
56	571
57	3213
58	250
59	721
60	390
61	2883
62	270
63	270
64	80
65	350
66	270
67	530
69	761
70	90
71	1111
72	530
73	1081
74	1081
75	270
78	180
79	350
81	350
82	160
83	751
84	290
85	591
86	190
87	981
88	210
89	2572
90	80
91	180
92	90
93	250
95	380
97	911
98	80
99	180
100	120
101	751
102	150
103	891
105	150
108	180
109	180
111	350
113	290
115	1351
116	220
117	220
119	80
123	390
127	30
129	811
130	150
131	490
141	220
143	811
144	380
155	210
157	390
171	390
185	170
199	390
213	250
248	70
249	611
250	90
284	290
285	1081
286	70
325	380
326	190
327	9999
328	2512
329	490
