Mass Spectrum: 1-Tributylsilyloxydecane
Formula: C22 H48 O Si
Molecular weight: 356
Origin: V.G.Zaikin, TIPS RAS, Moscow, Russia
m/z	RELATIVE INTENSITY
25	90
26	581
27	3143
28	811
29	6075
30	180
31	711
36	180
37	90
38	230
39	2382
40	410
41	8057
42	1351
43	9999
44	991
45	2472
46	70
47	2252
48	70
49	170
50	40
51	390
52	190
53	550
54	520
55	5215
56	1952
57	5315
58	430
59	2933
60	490
61	5135
62	270
63	320
64	90
65	190
67	751
68	490
69	3383
70	611
71	1491
72	390
73	1191
74	581
75	1832
76	90
77	180
78	150
79	450
80	60
81	490
82	591
83	4014
84	470
85	2312
86	380
87	2823
88	470
89	250
90	50
91	250
93	70
95	390
96	210
97	2342
98	390
99	881
100	310
101	3723
102	480
103	1251
104	190
105	170
109	150
110	190
111	681
112	130
113	290
114	170
115	2152
116	130
117	470
119	90
120	90
124	70
125	330
126	90
127	190
128	150
129	1471
130	190
131	40
133	40
137	120
138	90
139	170
140	70
141	290
143	1952
144	270
151	40
153	90
154	90
155	30
157	470
158	180
159	310
160	70
162	40
168	70
171	621
172	210
173	150
177	80
183	90
185	581
187	350
197	611
198	70
199	510
200	180
211	40
223	40
241	310
242	180
243	5735
244	1261
245	280
297	70
298	90
299	9128
300	2312
301	591
302	90
