Mass Spectrum: 5-Acetonyl-5-propyl-hexahydropyrimidin-2,4,6-trione
Formula: C10 H14 N2 O4
Molecular weight: 226
Origin: H.Maurer,J.Chromatogr.,530,307(1990)
m/z	RELATIVE INTENSITY
52	110
53	601
54	450
58	1792
68	40
69	1081
70	671
80	260
96	40
97	821
98	1832
99	220
112	931
114	70
127	150
128	40
140	340
141	3843
142	2392
151	70
155	150
156	150
167	40
168	410
169	9999
170	601
183	370
184	2242
185	70
211	260
226	70
