Mass Spectrum: trans-2,7-Dimethyl-4,6-octadien-2-ol
Formula: C10 H18 O
Molecular weight: 154
Origin: W.Epstein ET AL.J.Chem.Eng.Data,21,500(1976)
m/z	RELATIVE INTENSITY
41	581
43	1511
51	150
52	110
53	470
54	280
55	811
56	90
57	110
58	110
59	9999
60	380
61	60
65	230
66	320
67	961
68	190
69	170
77	681
78	130
79	1221
80	320
81	6746
82	470
83	90
91	320
92	40
93	410
94	60
95	1001
96	5805
97	581
98	40
105	60
107	40
109	90
121	230
139	130
154	190
