Mass Spectrum: 2-Acetyl-2,3,5,6-tetrahydro-1,4-thiazine
Formula: C6 H11 N O S
Molecular weight: 145
Origin: T.Huang ET AL.J.Agr.Food Chem.,46,664(1998)
m/z	RELATIVE INTENSITY
42	1091
43	2442
44	781
55	1091
56	2983
57	831
73	1091
74	4074
75	751
100	571
101	1061
102	9999
103	751
