Mass Spectrum: Pentanoic acid, 3-mercaptohexyl ester
Formula: C11 H22 O2 S
Molecular weight: 218
Origin: P.Werkhoff ET AL.J.Agr.Food Chem.,46,1076(1998)
m/z	RELATIVE INTENSITY
26	230
27	3283
29	5875
30	120
31	230
34	60
35	120
36	60
38	60
39	1481
40	140
41	6746
42	1131
43	1511
44	140
45	1311
46	200
47	1631
48	30
49	90
50	30
51	90
52	30
53	581
54	901
55	8558
56	1311
57	9999
58	550
59	841
60	1311
61	1051
62	90
63	120
65	60
66	30
67	2062
68	260
69	901
70	290
71	350
72	410
73	3583
74	1191
75	520
76	60
77	30
79	30
80	30
81	671
82	2212
83	6746
84	641
85	9569
86	671
87	3843
88	8267
89	1021
90	410
91	60
99	120
100	170
101	1892
102	140
103	961
104	60
114	60
115	350
116	6696
117	811
118	320
119	90
129	30
132	30
133	230
134	30
