Mass Spectrum: 5-Ethyl-5-(4-acetoxyphenyl)-hexahydropyrimidin-2,4,6-trione
Formula: C14 H14 N2 O5
Molecular weight: 290
Origin: H.Maurer,J.Chromatogr.,530,307(1990)
m/z	RELATIVE INTENSITY
65	70
68	40
77	70
79	70
80	40
84	70
92	40
94	110
105	70
106	70
112	40
119	40
120	370
121	150
131	70
133	190
134	150
148	751
176	260
177	220
196	40
203	70
205	40
219	5305
220	2993
221	370
231	110
232	40
239	70
246	40
248	9999
249	1271
250	110
290	671
291	110
