Mass Spectrum: 1-Tributylsilyloxyundecane
Formula: C23 H50 O Si
Molecular weight: 370
Origin: Zaikin V.G., TIPS RAS, Moscow, Russia
m/z	RELATIVE INTENSITY
28	40
66	110
75	480
77	781
80	651
81	110
83	781
93	280
97	791
99	100
101	1161
111	260
113	50
115	470
117	470
118	100
136	160
137	40
145	370
150	250
159	731
161	180
173	30
193	60
195	30
199	100
201	40
209	30
213	70
255	120
257	2472
258	490
259	140
263	80
307	40
311	30
313	9999
314	3003
315	691
316	100
