Mass Spectrum: N-Amyl furylpropionate
Formula: C12 H18 O3
Molecular weight: 210
Origin: W.Jennings, T.Shibamoto
m/z	RELATIVE INTENSITY
29	340
41	751
43	4554
53	330
55	430
66	90
67	661
68	320
69	90
71	390
81	9999
82	540
94	8157
95	1832
96	110
97	2732
98	90
123	851
139	1732
140	3683
141	220
210	1291
211	90
