Mass Spectrum: Allyl ionone 2
Formula: C16 H24 O
Molecular weight: 232
Origin: W.Jennings, T.Shibamoto
m/z	RELATIVE INTENSITY
41	671
43	1692
52	290
54	480
55	8918
56	480
57	591
64	160
66	380
67	881
68	160
69	2973
70	160
71	250
72	160
74	80
77	1672
78	450
79	3633
80	2512
81	4984
82	1591
83	4354
84	450
85	591
89	380
91	1962
92	2412
93	9999
94	8157
95	3373
96	9228
97	1181
98	270
102	370
104	90
105	2382
106	5055
107	4614
108	1281
109	2052
110	270
111	270
115	50
117	671
118	270
119	2712
120	3853
121	9589
122	1972
123	651
124	180
125	60
129	80
130	150
131	250
132	1461
133	2632
134	4134
135	7186
136	1391
137	250
143	671
144	60
145	70
146	90
147	2622
148	2752
149	4634
150	651
151	170
152	881
153	80
157	380
158	591
159	380
160	80
161	4784
162	1081
163	250
164	110
173	170
174	90
175	671
176	4184
177	2833
178	250
189	150
190	70
191	591
199	80
203	180
217	1591
218	150
232	3613
233	681
