Mass Spectrum: Allyl ionone 3
Formula: C16 H24 O
Molecular weight: 232
Origin: W.Jennings, T.Shibamoto
m/z	RELATIVE INTENSITY
41	2532
43	2052
53	80
54	320
55	8187
56	621
57	330
65	80
66	80
67	1732
68	430
69	9999
70	631
71	70
77	530
78	80
79	2222
80	1732
81	7237
82	981
83	5125
84	320
85	530
91	951
92	1051
93	4354
94	1181
95	2953
96	881
97	450
98	90
104	70
105	1151
106	631
107	6236
108	1822
109	4824
110	631
111	310
117	420
118	80
119	1051
120	520
121	3183
122	1451
123	751
124	190
129	530
130	70
131	420
132	210
133	1461
134	1451
135	2082
136	420
137	80
143	320
144	80
145	320
146	80
147	751
148	1551
149	8157
150	2752
151	180
152	751
157	310
158	220
159	450
160	50
161	5435
162	1551
163	751
164	631
173	350
175	951
176	330
177	3083
178	550
189	5135
190	1471
191	1251
192	220
199	80
203	100
204	2853
205	430
217	1752
218	220
232	1551
233	310
