Mass Spectrum: Allyl ionone 1
Formula: C16 H24 O
Molecular weight: 232
Origin: W.Jennings, T.Shibamoto
m/z	RELATIVE INTENSITY
41	731
43	1722
52	120
53	90
54	520
55	8488
56	550
57	530
64	210
66	290
67	921
68	300
69	2923
70	190
71	330
72	190
77	1832
78	520
79	3733
80	2492
81	4724
82	1531
83	4894
84	651
85	520
89	510
91	2212
92	2592
93	9859
94	7587
95	3623
96	9358
97	1231
98	310
99	100
102	430
104	90
105	2382
106	5195
107	4894
108	1451
109	2522
110	410
111	440
115	120
116	80
117	871
118	290
119	2933
120	4594
121	9999
122	2322
123	751
124	190
125	220
129	180
130	230
131	330
132	1822
133	2953
134	4324
135	7337
136	1852
137	310
143	931
144	90
145	190
146	110
147	2853
148	3853
149	5195
150	931
151	190
152	1231
153	90
157	500
158	510
159	530
160	80
161	5315
162	1431
163	320
164	190
173	230
174	90
175	851
176	4884
177	3553
178	530
189	320
190	190
191	891
192	100
199	70
203	220
204	80
217	2632
218	320
232	4854
233	1261
234	90
