Mass Spectrum: Galaxolide 2
Formula: C18 H26 O
Molecular weight: 258
Origin: W.Jennings, T.Shibamoto
m/z	RELATIVE INTENSITY
28	390
43	190
55	70
57	280
129	70
143	190
156	70
157	190
169	70
170	70
171	480
172	70
183	190
184	70
185	280
186	280
187	591
188	480
198	280
199	70
201	190
213	2192
214	390
215	70
227	70
228	480
230	280
243	9999
244	1591
245	70
258	1591
259	190
