Mass Spectrum: Methyl n-hexyl ketone-1-phenyl-1,2-ethanediol ketal 2
Formula: C16 H24 O2
Molecular weight: 248
Origin: W.Jennings, T.Shibamoto
m/z	RELATIVE INTENSITY
43	9999
44	70
72	380
85	1051
91	270
103	190
104	270
113	490
121	190
142	70
163	6786
164	691
233	70
