Mass Spectrum: Methyl n-hexyl ketone-1-phenyl-1,2-ethanediol ketal 1
Formula: C16 H24 O2
Molecular weight: 248
Origin: W.Jennings, T.Shibamoto
m/z	RELATIVE INTENSITY
28	70
43	9999
44	70
57	70
72	380
85	1281
91	270
103	190
104	270
113	1181
120	70
121	190
163	5915
164	480
233	190
