Mass Spectrum: Galaxolide 1
Formula: C18 H26 O
Molecular weight: 258
Origin: W.Jennings, T.Shibamoto
m/z	RELATIVE INTENSITY
43	190
57	280
69	80
119	80
129	80
143	190
156	70
157	190
169	80
170	80
171	480
172	80
183	190
184	190
185	390
186	280
187	681
188	390
198	280
199	80
201	190
213	2392
214	390
215	70
227	70
228	480
229	280
243	9999
244	1792
245	70
258	1591
259	280
