Mass Spectrum: Geranyl ethyl ether 1
Formula: C12 H22 O
Molecular weight: 182
Origin: W.Jennings, T.Shibamoto
m/z	RELATIVE INTENSITY
24	70
29	1291
31	691
41	6596
42	280
43	2682
45	70
53	190
55	1091
56	70
57	4624
58	190
59	1892
66	70
67	3423
68	5515
69	9999
70	1521
71	4014
72	390
77	70
79	791
80	3283
81	3393
82	1191
83	991
84	280
85	1792
86	190
87	1892
91	190
92	1391
93	4634
94	1892
95	2392
96	791
97	2192
98	280
99	3313
100	1191
101	70
107	1692
108	480
109	480
110	70
111	591
112	2292
113	671
121	3613
122	480
123	2793
124	190
125	591
126	190
136	1992
137	280
138	70
139	691
140	70
167	591
182	390
