Mass Spectrum: Threo-2,3-dibromopentane
Formula: C5 H10 Br2
Molecular weight: 228
Origin: Susan Richardson
m/z	RELATIVE INTENSITY
43	1051
44	90
50	90
51	160
52	50
53	550
54	70
55	611
56	20
61	10
62	10
63	20
65	40
67	180
68	30
69	9999
70	881
71	40
79	30
80	70
81	20
82	70
93	70
95	70
107	721
109	661
119	70
121	120
123	40
149	3193
150	170
151	3143
152	170
228	70
230	160
232	60
