Mass Spectrum: 1,4-Bis(2-hydroxyethylthio)butane, 2TMS derivative
Formula: C14 H34 O2 S2 Si2
Molecular weight: 354
Origin: VERIFINN
m/z	RELATIVE INTENSITY
29	240
41	230
43	300
44	180
45	801
47	450
53	170
55	1091
58	230
59	841
60	500
61	801
67	90
72	270
73	9999
74	911
75	1872
76	130
77	220
85	310
86	360
87	2402
88	611
89	320
91	150
93	110
101	380
102	330
103	1842
104	190
105	140
114	360
115	1702
116	540
117	1551
119	1742
120	1011
131	80
133	460
134	210
135	280
147	230
148	230
149	120
161	120
162	50
163	190
189	70
205	1351
206	220
207	130
237	891
238	270
239	160
264	90
354	180
355	50
