Mass Spectrum: 3,6-Dithia-1,8-octanediol, 2TMS derivative
Formula: C12 H30 O2 S2 Si2
Molecular weight: 326
Origin: VERIFINN
m/z	RELATIVE INTENSITY
27	160
29	130
41	140
43	460
44	190
45	1401
46	320
47	500
53	90
58	360
59	1241
60	460
61	711
64	60
72	360
73	9999
74	1001
75	2332
76	170
77	330
85	160
86	591
87	981
91	250
92	530
93	200
101	410
102	180
103	1912
104	230
105	260
107	70
116	2582
117	1682
118	290
119	2512
120	310
121	240
130	520
131	110
133	571
134	530
135	330
136	60
147	170
149	180
151	200
161	300
163	80
176	691
177	1261
178	250
179	150
210	140
236	90
