Mass Spectrum: p-Toluic acid, tridec-2-ynyl ester
Formula: C21 H30 O2
Molecular weight: 314
Origin: Zaikin V.G., TIPS RAS, Moscow, Russia
m/z	RELATIVE INTENSITY
27	130
28	100
29	250
39	180
40	30
41	510
42	70
43	460
44	30
51	60
52	110
53	140
54	70
55	320
56	60
57	100
63	40
65	280
66	70
67	190
68	40
69	100
77	130
78	40
79	240
80	50
81	120
89	50
90	50
91	871
92	100
93	170
94	50
95	70
105	40
107	50
118	30
119	9999
120	721
121	70
135	30
136	110
137	120
187	60
188	30
