Mass Spectrum: 2,3,4-Trifluorobenzoic acid, oct-3-en-2-yl ester
Formula: C15 H17 F3 O2
Molecular weight: 286
Origin: Zaikin V.G., TIPS RAS, Moscow, Russia
m/z	RELATIVE INTENSITY
27	90
29	70
39	110
40	30
41	330
42	40
43	230
53	140
54	80
55	681
56	50
57	30
65	30
66	30
67	320
68	1181
69	601
70	40
71	70
79	60
81	721
82	170
85	60
95	240
110	390
111	140
112	30
127	621
128	50
131	651
132	70
159	9999
160	601
161	30
176	90
177	60
187	70
188	110
201	50
229	140
230	60
243	50
244	50
