Mass Spectrum: p-Anisic acid, heptadecyl ester
Formula: C25 H42 O3
Molecular weight: 390
Origin: Zaikin V.G., TIPS RAS, Moscow, Russia
m/z	RELATIVE INTENSITY
27	40
28	30
29	90
39	50
41	270
42	60
43	360
54	50
55	360
56	110
57	220
64	30
67	70
68	60
69	230
70	80
71	80
77	190
81	50
82	60
83	170
84	50
85	40
92	140
97	110
107	110
108	30
109	80
111	40
121	30
135	2272
136	210
152	9999
153	3053
154	260
390	230
391	60
