Mass Spectrum: o-Toluic acid, pentadecyl ester
Formula: C23 H38 O2
Molecular weight: 346
Origin: Zaikin V.G., TIPS RAS, Moscow, Russia
m/z	RELATIVE INTENSITY
27	70
28	20
29	190
39	120
41	601
42	150
43	951
44	60
51	30
53	40
54	90
55	771
56	290
57	1041
58	40
63	40
65	250
67	130
68	130
69	510
70	250
71	601
72	30
77	70
79	50
81	70
82	140
83	400
84	160
85	400
89	110
90	230
91	1331
92	170
93	150
95	30
96	80
97	330
98	100
99	60
105	40
110	30
111	170
112	70
113	30
118	2382
119	2943
120	270
125	80
126	50
135	220
136	9999
137	5315
138	450
139	60
140	30
149	30
182	60
210	130
346	801
347	230
348	30
