Mass Spectrum: 5-Chlorovaleric acid, cyclobutyl ester
Formula: C9 H15 Cl O2
Molecular weight: 190
Origin: Zaikin V.G., TIPS RAS, Moscow, Russia
m/z	RELATIVE INTENSITY
26	90
27	540
28	20
29	621
36	120
38	30
39	420
40	50
41	350
42	240
43	130
44	150
49	90
50	30
51	60
52	30
53	250
54	430
55	5435
56	300
57	30
58	40
62	50
63	230
65	70
71	290
73	50
75	20
83	180
86	160
87	30
91	3843
92	190
93	1221
94	80
95	30
98	30
99	651
100	190
101	190
114	80
118	80
119	9999
120	571
121	3013
122	170
127	90
134	120
136	40
137	540
138	30
139	170
155	260
162	30
