Mass Spectrum: 3-Cyclopentylpropionic acid, but-3-yn-2-yl ester
Formula: C12 H18 O2
Molecular weight: 194
Origin: Zaikin V.G., TIPS RAS, Moscow, Russia
m/z	RELATIVE INTENSITY
25	40
26	310
27	2863
28	510
29	1291
30	40
31	30
37	30
38	110
39	1812
40	400
41	5165
42	741
43	1481
44	180
45	230
49	50
50	400
51	801
52	1261
53	6436
54	1161
55	8117
56	490
57	510
58	80
59	60
60	1231
61	220
65	240
66	340
67	3393
68	1101
69	2813
70	350
71	681
72	50
73	2032
74	741
75	60
77	280
78	80
79	3623
80	1471
81	9999
82	1601
83	3743
84	1171
85	190
86	30
87	70
91	260
92	50
93	330
94	180
95	4574
96	891
97	2402
98	320
99	460
100	260
101	50
105	721
106	270
107	5415
108	480
109	80
110	50
111	390
112	711
113	320
114	210
119	100
121	100
122	260
123	8398
124	1261
125	8107
126	731
127	70
133	40
137	30
140	50
141	751
142	210
143	140
151	40
165	40
179	70
194	230
