Mass Spectrum: p-Toluic acid, dodec-9-ynyl ester
Formula: C20 H28 O2
Molecular weight: 300
Origin: Zaikin V.G., TIPS RAS, Moscow, Russia
m/z	RELATIVE INTENSITY
26	50
27	150
28	70
29	190
38	30
39	400
40	100
41	1081
42	120
43	200
44	40
50	60
51	120
52	80
53	330
54	290
55	1071
56	90
57	60
62	30
63	130
64	50
65	801
66	380
67	1772
68	2642
69	410
77	370
78	130
79	1621
80	651
81	1031
82	1742
83	260
89	230
90	240
91	3453
92	430
93	1782
94	540
95	691
96	450
97	400
98	30
105	150
106	40
107	891
108	420
109	260
110	70
118	90
119	9999
120	801
121	831
122	370
123	100
129	30
135	861
136	1431
137	5375
138	450
139	30
149	100
164	450
165	60
219	190
233	400
234	60
300	10
