Mass Spectrum: 2-Chlorobenzoic acid, 2-(1-adamantyl)ethyl ester
Formula: C19 H23 Cl O2
Molecular weight: 318
Origin: Zaikin V.G., TIPS RAS, Moscow, Russia
m/z	RELATIVE INTENSITY
27	40
28	20
29	50
36	40
39	100
41	290
43	50
44	50
50	70
51	70
53	110
54	20
55	260
56	70
57	30
65	90
66	60
67	460
68	40
69	130
70	50
74	40
75	270
76	110
77	430
78	180
79	1211
80	360
81	410
82	40
84	120
91	681
92	751
93	1361
94	300
95	110
103	50
104	120
105	841
106	611
107	631
108	120
111	741
112	100
113	250
114	20
117	50
118	40
119	520
120	330
121	180
133	320
134	230
135	9999
136	991
137	50
139	1702
140	140
141	571
142	40
147	170
149	30
156	120
157	50
158	40
161	70
162	7887
163	961
164	50
179	50
183	100
185	30
