Mass Spectrum: trans-(3-Trifluoromethyl)cinnamic acid, 2-(1-adamantyl)ethyl ester
Formula: C22 H25 F3 O2
Molecular weight: 378
Origin: Zaikin V.G., TIPS RAS, Moscow, Russia
m/z	RELATIVE INTENSITY
26	30
27	60
28	190
29	70
32	30
36	10
38	10
39	140
40	30
41	360
42	20
43	70
44	50
50	50
51	80
52	30
53	140
54	30
55	340
56	90
57	40
62	10
63	40
65	100
66	90
67	601
68	50
69	170
70	80
71	20
74	40
75	90
76	50
77	420
78	220
79	1571
80	510
81	571
82	60
83	40
84	140
85	10
89	10
90	10
91	891
92	1011
93	1802
94	430
95	220
96	30
97	10
99	20
100	10
101	60
102	320
103	100
104	120
105	1091
106	861
107	791
108	160
109	30
115	30
116	10
117	60
118	50
119	761
120	520
121	250
122	20
125	50
126	40
127	30
128	30
129	60
130	10
131	40
132	20
133	510
134	250
135	9999
136	981
137	50
144	10
145	180
146	40
147	280
148	40
149	60
150	10
151	1591
152	200
153	20
159	60
160	20
161	841
162	7547
163	931
164	60
165	10
168	10
169	140
170	220
171	1071
172	210
173	40
175	40
177	40
178	10
179	180
180	30
181	20
183	10
186	10
188	20
190	100
191	40
192	10
197	90
198	90
199	2262
200	260
201	20
204	10
205	20
206	10
215	250
216	430
217	80
219	40
243	230
244	30
306	30
307	10
318	30
319	10
332	50
333	20
358	10
359	430
360	160
361	70
362	10
378	841
379	210
380	20
