Mass Spectrum: p-Methoxybenzoic acid, 2-isopropoxyphenyl ester
Formula: C17 H18 O4
Molecular weight: 286
Origin: Zaikin V.G., TIPS RAS, Moscow, Russia
m/z	RELATIVE INTENSITY
27	30
39	30
41	30
43	30
50	30
51	30
52	30
63	70
64	110
65	30
76	50
77	450
78	30
81	70
92	360
93	30
104	40
107	250
109	90
110	40
121	30
135	9999
136	731
137	60
152	200
286	470
287	90
