Mass Spectrum: o-Toluic acid, undecyl ester
Formula: C19 H30 O2
Molecular weight: 290
Origin: Zaikin V.G., TIPS RAS, Moscow, Russia
m/z	RELATIVE INTENSITY
27	90
28	80
29	210
39	160
40	30
41	671
42	170
43	951
44	30
51	40
53	50
54	70
55	691
56	310
57	1041
58	40
63	70
64	30
65	400
66	30
67	110
68	100
69	410
70	270
71	480
77	100
79	70
81	40
82	100
83	250
84	180
85	300
89	180
90	350
91	2082
92	230
93	160
96	50
97	230
98	100
99	40
105	50
111	110
112	50
118	3423
119	4114
120	340
121	30
125	60
126	90
135	230
136	9999
137	4504
138	350
139	30
149	30
154	170
290	921
291	210
