Mass Spectrum: 4-Cyanobenzoic acid, 2-isopropoxyphenyl ester
Formula: C17 H15 N O3
Molecular weight: 281
Origin: Zaikin V.G., TIPS RAS, Moscow, Russia
m/z	RELATIVE INTENSITY
27	50
28	10
39	40
41	80
43	120
50	60
51	100
52	120
53	40
63	30
75	140
76	110
80	60
81	200
101	30
102	1351
103	190
109	190
110	100
130	9999
131	781
132	50
135	20
147	60
239	811
240	130
282	100
