Mass Spectrum: p-Toluic acid, 2-adamantyl ester
Formula: C18 H22 O2
Molecular weight: 270
Origin: Zaikin V.G., TIPS RAS, Moscow, Russia
m/z	RELATIVE INTENSITY
26	120
27	260
28	10
29	270
35	30
36	300
37	30
38	190
39	781
40	160
41	1171
42	120
43	200
44	300
45	50
50	160
51	280
52	120
53	340
54	130
55	581
56	1451
57	220
62	80
63	320
64	110
65	1541
66	420
67	1041
68	140
69	230
70	90
71	50
73	30
74	30
75	40
76	40
77	921
78	1401
79	2462
80	901
81	651
82	90
83	110
84	60
89	470
90	410
91	7357
92	9158
93	2993
94	220
95	110
96	30
97	60
103	50
104	60
105	1091
106	721
107	330
108	40
109	50
111	30
115	60
116	30
117	110
118	120
119	9999
120	961
121	100
131	30
133	210
134	9709
135	1591
136	1712
137	1291
138	120
150	60
151	460
152	70
168	50
191	20
226	30
252	90
253	30
255	661
256	100
269	290
270	1371
271	260
