Mass Spectrum: o-Anisic acid, 2,6-dimethylnon-1-en-3-yn-5-yl ester
Formula: C19 H24 O3
Molecular weight: 300
Origin: Zaikin V.G., TIPS RAS, Moscow, Russia
m/z	RELATIVE INTENSITY
28	10
39	60
41	110
43	70
50	30
51	80
53	50
55	70
63	80
64	80
65	100
67	30
69	70
76	60
77	861
78	130
79	220
81	40
82	30
91	360
92	430
93	180
94	30
95	40
103	30
104	40
105	410
106	210
107	150
117	30
119	290
120	140
121	90
123	310
124	30
133	340
134	60
135	9999
136	921
137	80
148	530
149	70
150	50
151	40
152	110
153	50
165	80
171	30
177	50
185	90
199	40
213	40
229	30
230	130
241	30
257	180
258	30
285	30
