Mass Spectrum: 1-Isopropoxy-2-dimethyl-(isopropyl)-silyloxybenzene
Formula: C14 H24 O2 Si
Molecular weight: 252
Origin: Zaikin V.G., TIPS RAS, Moscow, Russia
m/z	RELATIVE INTENSITY
28	40
41	100
43	290
45	30
59	170
61	40
65	30
73	250
75	991
76	80
77	80
91	280
92	40
107	30
135	50
136	530
137	170
138	30
149	270
150	40
151	1822
152	290
153	110
166	340
167	9999
168	1251
169	420
170	30
210	130
211	40
252	290
253	60
