Mass Spectrum: p-Toluic acid, 3-chloroprop-2-enyl ester
Formula: C11 H11 Cl O2
Molecular weight: 210
Origin: Zaikin V.G., TIPS RAS, Moscow, Russia
m/z	RELATIVE INTENSITY
26	30
27	80
28	10
29	30
35	30
36	250
38	130
39	530
40	40
41	170
44	90
49	120
50	90
51	170
52	50
53	50
55	30
62	70
63	240
64	70
65	821
66	50
67	60
68	180
69	140
74	30
75	671
76	40
77	270
79	50
89	300
90	180
91	2582
92	280
93	40
105	50
107	30
115	70
116	50
118	40
119	9999
120	881
121	60
125	30
129	150
130	60
131	250
132	30
135	30
136	390
137	70
147	90
148	30
157	30
165	80
175	2502
176	310
177	30
181	50
210	130
212	40
