Mass Spectrum: 4-Ethylbenzoic acid, nonyl ester
Formula: C18 H28 O2
Molecular weight: 276
Origin: Zaikin V.G., TIPS RAS, Moscow, Russia
m/z	RELATIVE INTENSITY
26	50
27	260
28	150
29	380
36	30
39	200
40	40
41	791
42	250
43	641
44	70
50	50
51	110
52	30
53	90
54	100
55	781
56	651
57	240
63	60
65	80
67	120
68	170
69	530
70	530
71	90
76	40
77	671
78	180
79	1081
80	70
81	40
82	110
83	340
84	310
85	50
89	130
90	200
91	510
92	40
96	50
97	320
98	220
102	50
103	520
104	240
105	3193
106	440
107	190
118	50
119	70
123	30
126	280
131	100
132	70
133	6166
134	631
135	901
136	90
137	30
148	70
149	70
150	7186
151	9999
152	901
153	70
163	70
191	40
259	40
276	120
