Mass Spectrum: 3-Fluorobenzoic acid, 3-chloroprop-2-enyl ester
Formula: C10 H8 Cl F O2
Molecular weight: 214
Origin: Zaikin V.G., TIPS RAS, Moscow, Russia
m/z	RELATIVE INTENSITY
26	40
27	70
28	20
35	30
39	460
40	30
41	60
44	100
49	150
50	160
51	160
52	40
57	30
61	30
63	30
67	50
68	190
69	220
70	30
73	30
74	130
75	1501
76	90
77	330
79	90
91	190
93	90
94	170
95	2873
96	310
97	50
115	30
122	20
123	9999
124	881
125	60
127	40
133	160
134	30
135	180
140	370
141	50
151	50
152	70
161	110
165	60
169	90
179	3083
180	340
214	70
