Mass Spectrum: o-Anisic acid, 2,7-dimethyloct-7-en-5-yn-4-yl ester
Formula: C18 H22 O3
Molecular weight: 286
Origin: Zaikin V.G., TIPS RAS, Moscow, Russia
m/z	RELATIVE INTENSITY
28	10
39	40
41	80
43	80
51	60
53	30
55	40
63	50
64	60
65	70
76	40
77	681
78	100
79	210
81	50
91	400
92	380
93	210
94	30
103	20
104	30
105	260
106	50
107	90
109	100
117	40
119	631
120	120
121	70
123	70
133	60
134	140
135	9999
136	811
137	70
151	40
152	80
153	110
171	80
178	120
184	30
185	50
199	140
202	30
215	40
227	90
230	300
231	40
243	761
244	130
