Mass Spectrum: m-Toluic acid, 2-methyloct-5-yn-4-yl ester
Formula: C17 H22 O2
Molecular weight: 258
Origin: Zaikin V.G., TIPS RAS, Moscow, Russia
m/z	RELATIVE INTENSITY
27	90
28	30
29	90
39	190
40	30
41	330
43	250
50	20
51	70
52	30
53	110
55	170
57	40
63	80
65	430
66	70
67	120
68	30
69	110
77	210
78	50
79	510
80	120
81	350
89	110
90	100
91	1702
92	190
93	651
94	110
95	50
105	70
107	681
108	80
118	30
119	9999
120	741
121	70
122	240
123	40
124	50
135	30
136	110
137	80
139	170
187	80
188	30
201	40
202	190
203	30
215	641
216	100
243	30
