Mass Spectrum: Phenylacetic acid, oct-3-en-2-yl ester
Formula: C16 H22 O2
Molecular weight: 246
Origin: Zaikin V.G., TIPS RAS, Moscow, Russia
m/z	RELATIVE INTENSITY
26	60
27	450
28	170
29	440
38	50
39	701
40	150
41	1792
42	160
43	951
44	160
45	50
50	50
51	190
52	80
53	470
54	260
55	8848
56	460
57	350
58	30
62	60
63	220
64	70
65	1031
66	120
67	881
68	1421
69	9999
70	561
71	220
77	140
78	40
79	190
80	50
81	951
82	90
83	110
85	40
86	50
89	360
90	340
91	8728
92	831
93	60
95	230
109	90
110	671
111	5225
112	450
113	90
118	1822
119	540
120	40
127	450
128	540
129	50
136	160
137	40
143	30
155	400
156	30
246	1051
247	180
