Mass Spectrum: 2,3,4-Trifluorobenzoic acid, pent-2-en-4-ynyl ester
Formula: C12 H7 F3 O2
Molecular weight: 240
Origin: Zaikin V.G., TIPS RAS, Moscow, Russia
m/z	RELATIVE INTENSITY
27	40
28	10
36	40
38	60
39	380
44	30
50	50
51	60
52	30
53	40
61	30
62	80
63	260
64	160
65	470
66	30
75	30
80	30
81	631
82	30
112	50
130	30
131	1031
132	100
159	9999
160	651
161	40
176	180
177	30
195	30
240	80
