Mass Spectrum: 4-Butylbenzoic acid, tridec-2-ynyl ester
Formula: C24 H36 O2
Molecular weight: 356
Origin: Zaikin V.G., TIPS RAS, Moscow, Russia
m/z	RELATIVE INTENSITY
27	30
29	60
39	40
41	150
43	130
53	40
55	130
57	50
65	50
67	80
69	40
77	90
79	130
81	60
89	30
90	100
91	400
92	90
93	70
94	30
95	50
103	30
105	60
107	60
118	90
119	60
131	50
133	50
135	150
136	90
159	30
161	9999
162	1151
163	80
178	60
179	90
229	60
230	40
