Mass Spectrum: 2,3,4-Trifluorobenzoic acid, tridec-2-ynyl ester
Formula: C20 H25 F3 O2
Molecular weight: 354
Origin: Zaikin V.G., TIPS RAS, Moscow, Russia
m/z	RELATIVE INTENSITY
27	80
29	170
39	100
41	380
42	60
43	611
51	40
52	110
53	110
54	90
55	350
56	80
57	140
65	70
66	80
67	260
68	70
69	170
70	40
71	40
77	140
78	50
79	430
80	130
81	250
82	90
83	90
91	150
92	30
93	290
94	180
95	250
96	70
97	50
105	30
107	120
108	140
109	80
110	30
111	80
113	30
121	170
122	40
123	30
124	30
131	330
132	50
135	140
136	50
137	40
149	70
151	50
159	9999
160	631
161	40
176	40
177	170
178	50
187	50
195	60
227	160
228	80
