Mass Spectrum: m-Anisic acid, 2-(1-adamantyl)ethyl ester
Formula: C20 H26 O3
Molecular weight: 314
Origin: Zaikin V.G., TIPS RAS, Moscow, Russia
m/z	RELATIVE INTENSITY
27	20
28	10
29	30
39	70
41	170
43	30
44	30
51	30
53	70
55	150
56	40
63	60
64	100
65	80
66	40
67	290
69	80
76	50
77	601
78	150
79	801
80	230
81	280
82	30
84	50
91	450
92	701
93	801
94	170
95	70
103	30
104	50
105	520
106	290
107	871
108	160
109	40
117	30
119	340
120	190
121	110
133	230
134	150
135	6296
136	731
137	50
147	100
152	9999
153	791
154	90
161	60
162	490
163	80
179	170
286	30
296	40
314	1581
315	340
316	40
