Mass Spectrum: p-Methoxybenzoic acid, 3,5-difluorophenyl ester
Formula: C14 H10 F2 O3
Molecular weight: 264
Origin: Zaikin V.G., TIPS RAS, Moscow, Russia
m/z	RELATIVE INTENSITY
38	30
50	70
51	60
62	30
63	180
64	260
74	30
75	50
76	100
77	761
78	60
79	30
92	631
93	40
101	100
104	50
107	440
108	30
130	30
135	9999
136	721
137	60
152	90
264	40
