Mass Spectrum: 4-Ethylbenzoic acid, 2-adamantyl ester
Formula: C19 H24 O2
Molecular weight: 284
Origin: Zaikin V.G., TIPS RAS, Moscow, Russia
m/z	RELATIVE INTENSITY
27	80
28	30
29	80
38	20
39	110
40	50
41	200
42	40
43	120
50	90
51	120
52	50
53	100
55	280
56	400
57	110
63	60
64	30
65	170
66	100
67	230
68	90
69	140
70	130
71	40
74	30
76	50
77	951
78	681
79	1531
80	360
81	230
82	20
83	90
84	50
89	140
90	190
91	1041
92	4344
93	1511
94	80
95	210
97	320
102	90
103	751
104	250
105	2893
106	751
107	370
108	30
109	40
111	30
115	40
116	30
117	60
118	40
119	1171
120	110
121	50
131	360
132	130
133	6186
134	9999
135	1922
136	240
148	801
149	450
150	1942
151	2783
152	200
154	70
237	40
255	2963
256	621
257	60
266	230
267	80
283	480
284	3833
285	731
286	100
