Mass Spectrum: 5-Chlorovaleric acid, pentadecyl ester
Formula: C20 H39 Cl O2
Molecular weight: 346
Origin: Zaikin V.G., TIPS RAS, Moscow, Russia
m/z	RELATIVE INTENSITY
26	100
27	510
28	10
29	1081
30	30
36	150
38	70
39	480
40	100
41	2732
42	931
43	4054
44	180
45	70
49	40
51	40
53	280
54	731
55	6706
56	2602
57	4184
58	240
59	160
60	60
62	30
63	130
65	60
66	60
67	841
68	1161
69	3693
70	2512
71	2242
72	130
73	400
74	30
77	30
79	80
80	40
81	520
82	1812
83	4994
84	1952
85	1441
86	90
87	110
91	1672
92	80
93	540
94	30
95	270
96	821
97	3803
98	1341
99	380
100	420
101	1912
102	110
103	50
109	110
110	380
111	2062
112	921
113	190
115	40
116	90
118	90
119	3183
120	210
121	1061
122	50
123	50
124	220
125	1011
126	631
127	130
134	50
135	50
136	1531
137	9999
138	1151
139	3543
140	581
141	110
147	40
152	70
153	160
154	280
155	60
157	70
163	40
166	40
167	80
168	170
169	40
174	40
177	60
180	30
181	50
182	821
183	150
192	290
193	30
194	100
206	30
210	921
211	170
225	30
227	30
255	460
256	70
311	150
