Mass Spectrum: o-Toluic acid, 1-adamantylmethyl ester
Formula: C19 H24 O2
Molecular weight: 284
Origin: Zaikin V.G., TIPS RAS, Moscow, Russia
m/z	RELATIVE INTENSITY
29	30
39	120
41	200
43	30
51	40
53	80
55	170
63	50
65	300
66	50
67	350
69	90
70	50
77	270
78	100
79	771
80	190
81	340
89	100
90	110
91	1461
92	621
93	911
94	120
95	60
105	260
106	180
107	430
108	40
118	110
119	1481
120	160
121	70
133	120
134	30
135	3934
136	400
148	500
149	9999
150	981
151	50
284	230
285	40
