Mass Spectrum: 4-Butylbenzoic acid, pent-2-en-4-ynyl ester
Formula: C16 H18 O2
Molecular weight: 242
Origin: Zaikin V.G., TIPS RAS, Moscow, Russia
m/z	RELATIVE INTENSITY
27	30
28	20
36	60
39	150
41	70
43	30
44	30
50	30
51	60
55	40
63	80
64	40
65	360
66	30
77	140
78	40
79	50
89	140
90	290
91	891
92	190
103	90
104	60
105	110
107	70
115	80
117	30
118	210
119	50
127	20
128	100
129	40
131	90
133	130
135	350
136	250
141	160
142	30
155	130
159	30
161	9999
162	1161
163	80
178	180
179	30
185	50
199	30
242	530
243	90
