Mass Spectrum: 5-Bromovaleric acid, hexadecyl ester
Formula: C21 H41 Br O2
Molecular weight: 404
Origin: Zaikin V.G., TIPS RAS, Moscow, Russia
m/z	RELATIVE INTENSITY
26	170
27	931
28	20
29	1912
30	30
31	40
35	30
36	310
38	130
39	741
40	160
41	4424
42	1341
43	6556
44	430
45	50
50	30
51	40
52	30
53	370
54	1061
55	9999
56	3914
57	7046
58	310
59	260
60	30
65	30
66	80
67	1151
68	1561
69	5275
70	3233
71	3443
72	160
73	571
74	30
77	50
79	230
80	320
81	811
82	2492
83	6216
84	2362
85	2202
86	110
87	50
91	50
93	20
95	370
96	1021
97	4704
98	1371
99	490
100	410
101	4344
102	350
103	400
107	90
109	220
110	460
111	2362
112	921
113	250
115	30
119	40
123	60
124	240
125	1071
126	591
127	150
133	30
135	1171
136	70
137	1171
138	200
139	430
140	380
141	110
152	90
153	170
154	250
155	60
157	180
162	40
163	1401
164	110
165	1341
166	100
167	110
168	170
169	40
180	781
181	4964
182	1141
183	4704
184	230
191	30
193	40
196	571
197	100
222	60
224	691
225	130
236	50
238	50
269	300
270	40
325	120
