Mass Spectrum: 1-Isopropoxy-2-diisopropyl-silyloxybenzene
Formula: C15 H26 O2 Si
Molecular weight: 266
Origin: Zaikin V.G., TIPS RAS, Moscow, Russia
m/z	RELATIVE INTENSITY
27	180
28	10
36	40
39	120
41	430
42	70
43	1261
44	30
45	390
47	40
59	170
61	591
62	30
63	50
64	40
65	180
73	30
75	50
77	110
89	120
91	110
92	60
93	160
94	120
95	90
110	30
121	330
122	30
135	130
136	500
137	1121
138	420
139	360
140	40
151	1641
152	220
153	731
154	90
155	30
163	110
165	60
179	280
180	420
181	9999
182	1421
183	430
184	30
222	60
223	1131
224	200
225	50
233	30
235	30
261	70
263	70
266	280
267	50
