Mass Spectrum: 2,6-Difluorobenzoic acid, octyl ester
Formula: C15 H20 F2 O2
Molecular weight: 270
Origin: Zaikin V.G., TIPS RAS, Moscow, Russia
m/z	RELATIVE INTENSITY
27	180
28	10
29	310
39	170
40	30
41	761
42	420
43	621
44	70
53	60
54	110
55	881
56	881
57	310
62	40
63	370
67	110
68	180
69	801
70	1011
71	140
81	40
82	150
83	651
84	651
85	40
93	70
94	80
97	80
111	30
112	641
113	1141
114	210
140	60
141	9218
142	641
143	60
156	30
158	591
159	9999
160	651
161	50
