Mass Spectrum: 3-Trifluoromethylcinnamic acid, 2-isopropoxyphenyl ester
Formula: C19 H17 F3 O3
Molecular weight: 350
Origin: Zaikin V.G., TIPS RAS, Moscow, Russia
m/z	RELATIVE INTENSITY
27	40
28	10
39	30
41	60
43	70
51	40
52	70
53	30
75	40
80	50
81	130
95	30
101	30
102	160
109	150
110	420
111	40
120	30
121	40
145	80
151	911
152	250
169	60
170	90
171	1041
172	110
198	30
199	9999
200	891
201	60
215	80
216	100
331	140
332	30
350	550
351	110
