Mass Spectrum: 5-Bromovaleric acid, hex-4-yn-3-yl ester
Formula: C11 H17 Br O2
Molecular weight: 260
Origin: Zaikin V.G., TIPS RAS, Moscow, Russia
m/z	RELATIVE INTENSITY
26	280
27	1792
28	20
29	1361
39	2072
40	470
41	2943
42	540
43	1071
44	550
45	110
50	260
51	571
52	641
53	2662
54	400
55	8287
56	861
57	410
58	50
59	140
62	60
63	240
64	110
65	1151
66	550
67	550
68	110
69	1011
70	80
73	290
76	50
77	1421
78	380
79	60
80	9999
81	6005
82	731
83	2482
84	170
91	60
93	150
95	180
96	50
97	1241
98	4314
99	691
100	90
101	2372
102	140
106	80
107	540
108	80
109	490
111	60
113	60
119	60
121	110
123	50
125	6206
126	701
127	50
135	6416
136	370
137	6105
138	260
139	240
151	50
153	550
154	50
159	200
161	180
162	280
163	9689
164	781
165	9428
166	540
181	701
182	60
183	150
203	90
205	80
231	731
232	200
233	761
234	200
245	3503
246	380
247	3383
248	370
260	1091
261	170
262	1061
263	120
