Mass Spectrum: trans-(3-Trifluoromethyl)cinnamic acid, nonyl ester
Formula: C19 H25 F3 O2
Molecular weight: 342
Origin: Zaikin V.G., TIPS RAS, Moscow, Russia
m/z	RELATIVE INTENSITY
26	40
27	170
28	130
29	340
31	10
32	20
38	10
39	180
40	40
41	851
42	320
43	831
44	30
45	10
50	60
51	70
52	10
53	70
54	150
55	1051
56	1011
57	410
58	10
62	10
63	40
65	10
66	10
67	160
68	290
69	1061
70	891
71	210
73	10
74	50
75	130
76	70
77	40
79	10
81	70
82	230
83	761
84	571
85	100
86	10
87	10
90	10
91	40
94	10
95	140
96	130
97	601
98	480
99	50
100	30
101	110
102	470
103	90
107	10
109	20
111	20
113	10
114	10
115	10
119	80
120	130
121	30
122	10
124	90
125	120
126	320
127	70
128	10
129	10
131	80
132	10
133	30
138	10
140	20
141	20
143	40
144	20
145	290
146	50
147	330
148	30
149	20
150	20
151	2502
152	350
153	40
155	10
159	100
160	20
165	20
167	20
168	60
169	250
170	430
171	2292
172	681
173	90
175	70
177	10
179	20
180	50
181	80
182	10
183	60
184	10
185	20
186	20
187	20
188	120
189	10
195	10
196	20
197	941
198	360
199	9999
200	971
201	80
202	10
211	10
212	10
213	10
214	20
215	2392
216	7367
217	6576
218	721
219	60
225	10
227	10
229	10
230	30
231	10
242	10
243	30
244	20
254	10
256	10
257	500
258	70
270	10
271	380
272	70
282	10
323	320
324	70
325	20
342	470
343	110
344	10
