Mass Spectrum: 5-Chlorovaleric acid, hex-4-yn-3-yl ester
Formula: C11 H17 Cl O2
Molecular weight: 216
Origin: Zaikin V.G., TIPS RAS, Moscow, Russia
m/z	RELATIVE INTENSITY
26	110
27	881
28	10
29	801
36	170
38	130
39	1051
40	230
41	1541
42	340
43	661
44	120
45	80
49	140
50	140
51	350
52	350
53	1561
54	240
55	4444
56	260
57	210
58	40
59	40
60	70
62	80
63	290
64	40
65	540
66	280
67	280
68	50
69	641
70	70
73	230
74	30
75	60
77	851
78	200
79	9999
80	5625
81	3323
82	260
83	1291
84	80
87	50
91	4294
92	190
93	1371
94	60
97	711
98	1882
99	360
100	100
101	390
107	90
111	50
115	90
117	30
118	150
119	8648
120	500
121	2662
122	150
125	3043
126	350
127	20
135	40
137	170
139	130
140	40
153	210
159	90
161	30
173	30
181	240
187	550
188	130
189	190
190	40
201	2152
202	230
203	711
204	70
215	30
216	891
217	110
218	300
219	30
