Mass Spectrum: 3-Bromobenzoic acid, 3,5-difluorophenyl ester
Formula: C13 H7 Br F2 O2
Molecular weight: 312
Origin: Zaikin V.G., TIPS RAS, Moscow, Russia
m/z	RELATIVE INTENSITY
28	10
36	30
50	70
74	120
75	460
76	561
77	50
101	180
102	30
104	110
105	30
129	70
130	110
131	30
155	2292
156	200
157	2252
158	160
177	30
183	9999
184	751
185	9719
186	701
187	40
200	80
202	80
312	190
313	30
314	190
