Mass Spectrum: p-Anisic acid, 4-hexadecyl ester
Formula: C24 H40 O3
Molecular weight: 376
Origin: Zaikin V.G., TIPS RAS, Moscow, Russia
m/z	RELATIVE INTENSITY
27	80
28	60
29	150
39	80
41	440
42	110
43	550
53	40
54	80
55	571
56	240
57	390
63	40
64	80
65	40
67	110
68	80
69	410
70	250
71	180
76	30
77	370
78	50
79	40
81	90
82	120
83	360
84	200
85	110
92	280
93	30
95	40
96	70
97	350
98	130
99	30
104	30
105	30
107	200
108	40
109	110
110	50
111	200
112	80
120	30
121	60
125	100
126	50
135	7046
136	550
137	60
139	30
140	30
152	9999
153	4194
154	340
155	30
196	30
224	220
225	30
241	70
