Mass Spectrum: o-Methoxybenzoic acid, decyl ester
Formula: C18 H28 O3
Molecular weight: 292
Origin: Zaikin V.G., TIPS RAS, Moscow, Russia
m/z	RELATIVE INTENSITY
26	20
27	110
29	240
38	20
39	140
40	20
41	520
42	120
43	490
44	40
50	50
51	110
52	20
53	50
54	40
55	410
56	150
57	230
58	10
62	10
63	90
64	120
65	80
66	10
67	70
68	50
69	170
70	110
71	60
74	10
75	10
76	90
77	1111
78	150
79	200
80	10
81	40
82	20
83	80
84	40
85	40
90	10
91	20
92	500
93	70
94	30
95	10
97	40
98	10
104	40
105	711
106	180
107	120
108	60
109	10
111	10
112	10
118	20
119	30
120	180
121	200
122	90
123	2042
124	150
125	10
133	631
134	390
135	9999
136	731
137	70
138	10
140	10
151	230
152	3183
153	4014
154	330
155	30
165	20
179	10
180	40
221	40
292	691
293	150
294	10
