Mass Spectrum: 3-Trifluoromethylcinnamic acid, phenyl ester
Formula: C16 H11 F3 O2
Molecular weight: 292
Origin: Zaikin V.G., TIPS RAS, Moscow, Russia
m/z	RELATIVE INTENSITY
28	30
39	70
50	30
51	50
63	40
65	120
74	30
75	80
76	40
77	40
93	40
94	100
95	70
101	60
102	260
103	20
120	60
125	50
126	30
145	170
151	1491
152	200
169	130
170	120
171	1491
172	170
197	30
198	30
199	9999
200	951
201	70
215	90
216	120
273	210
274	30
292	160
293	30
