Mass Spectrum: 3-Cyclopentylpropionic acid, decyl ester
Formula: C18 H34 O2
Molecular weight: 282
Origin: Zaikin V.G., TIPS RAS, Moscow, Russia
m/z	RELATIVE INTENSITY
26	90
27	330
28	10
29	631
36	80
38	30
39	450
40	160
41	2262
42	671
43	2472
44	210
45	30
51	40
52	30
53	270
54	490
55	4124
56	2022
57	2692
58	150
59	40
60	400
61	1101
62	30
65	70
66	110
67	1261
68	991
69	2552
70	2372
71	1581
72	90
73	1762
74	320
75	60
77	80
78	30
79	721
80	460
81	1371
82	1832
83	5025
84	1922
85	1541
86	100
87	60
91	60
93	50
94	50
95	661
96	991
97	3133
98	1391
99	350
100	230
101	130
102	30
105	70
106	110
107	1521
108	140
109	60
110	210
111	1601
112	1862
113	240
114	260
115	90
116	330
117	30
122	140
123	460
124	671
125	4504
126	420
127	50
129	70
130	40
138	50
140	3283
141	891
142	671
143	9999
144	911
145	70
155	40
157	30
169	40
171	40
183	100
185	290
186	30
198	30
200	130
201	120
213	601
214	90
283	30
