Mass Spectrum: o-Toluic acid, tridec-2-ynyl ester
Formula: C21 H30 O2
Molecular weight: 314
Origin: Zaikin V.G., TIPS RAS, Moscow, Russia
m/z	RELATIVE INTENSITY
27	60
29	120
39	90
41	270
42	30
43	250
51	40
52	70
53	100
54	40
55	210
56	30
57	70
63	30
65	210
66	50
67	170
69	80
77	130
78	30
79	220
80	40
81	140
89	50
90	80
91	801
92	80
93	140
94	40
95	120
105	40
107	40
118	200
119	9999
120	751
121	70
129	80
135	360
136	80
137	70
143	80
169	30
187	50
188	30
