Mass Spectrum: m-Anisic acid, 4-hexadecyl ester
Formula: C24 H40 O3
Molecular weight: 376
Origin: Zaikin V.G., TIPS RAS, Moscow, Russia
m/z	RELATIVE INTENSITY
26	80
27	230
28	10
29	440
36	130
38	70
39	230
40	40
41	1191
42	270
43	1441
44	220
50	60
51	60
53	100
54	190
55	1481
56	611
57	1041
58	60
63	110
64	160
65	110
66	30
67	270
68	190
69	951
70	540
71	440
72	30
76	100
77	731
78	120
79	130
81	190
82	230
83	751
84	360
85	230
91	60
92	460
93	70
94	60
95	90
96	140
97	611
98	200
99	50
104	30
105	190
106	40
107	891
108	150
109	290
110	90
111	310
112	110
120	40
121	70
122	40
124	40
125	140
126	70
133	110
135	6946
136	761
137	80
138	40
139	40
140	40
150	120
151	60
152	9999
153	2272
154	280
155	20
224	120
241	50
376	220
377	50
