Mass Spectrum: 3-Bromobenzoic acid, 5-fluoro-2-nitrophenyl ester
Formula: C13 H7 Br F N O4
Molecular weight: 339
Origin: Zaikin V.G., TIPS RAS, Moscow, Russia
m/z	RELATIVE INTENSITY
28	20
30	70
38	30
50	310
51	60
57	40
63	80
70	40
74	150
75	601
76	791
77	70
81	90
82	120
104	110
155	1872
156	150
157	1832
158	130
183	9999
184	631
185	9589
186	601
187	30
200	100
202	100
293	20
339	160
341	160
