Mass Spectrum: o-Methoxybenzoic acid, 5-fluoro-2-nitrophenyl ester
Formula: C14 H10 F N O5
Molecular weight: 291
Origin: Zaikin V.G., TIPS RAS, Moscow, Russia
m/z	RELATIVE INTENSITY
28	10
30	30
50	40
51	100
63	140
64	150
70	30
76	90
77	951
78	80
79	60
81	40
82	50
92	550
93	40
105	80
120	120
135	9999
136	701
137	60
291	40
