Mass Spectrum: 5-Bromovaleric acid, oct-3-en-2-yl ester
Formula: C13 H23 Br O2
Molecular weight: 290
Origin: Zaikin V.G., TIPS RAS, Moscow, Russia
m/z	RELATIVE INTENSITY
26	80
27	621
28	220
29	561
31	30
39	621
40	120
41	1872
42	420
43	1181
45	40
51	90
52	70
53	751
54	540
55	8478
56	781
57	450
58	360
59	210
60	20
62	20
64	40
65	40
66	130
67	1531
68	6356
69	3773
70	230
71	1131
72	210
73	90
77	80
78	20
79	310
80	160
81	4324
82	571
83	410
84	110
85	661
86	1101
87	40
89	50
91	70
92	30
93	120
94	40
95	1361
96	100
97	80
98	70
99	200
100	70
101	360
106	30
107	210
108	130
109	621
110	2042
111	1922
112	140
113	550
114	30
117	50
125	30
126	30
127	2472
128	9999
129	901
130	30
131	30
133	70
135	4234
136	80
137	4094
138	150
140	40
141	100
147	40
149	20
152	30
155	711
156	50
157	20
162	130
163	8197
164	500
165	8017
166	450
169	20
181	30
183	90
191	150
192	180
193	110
194	190
205	90
211	280
212	20
219	160
220	20
233	210
234	80
235	200
236	40
247	90
248	50
249	90
250	30
290	10
