Mass Spectrum: m-Methoxybenzoic acid, 3,5-difluorophenyl ester
Formula: C14 H10 F2 O3
Molecular weight: 264
Origin: Zaikin V.G., TIPS RAS, Moscow, Russia
m/z	RELATIVE INTENSITY
28	10
38	30
50	80
51	70
62	30
63	250
64	340
74	30
75	60
76	140
77	921
78	80
79	40
92	801
93	60
101	140
104	30
107	1591
108	130
130	60
135	9999
136	711
137	60
152	20
264	380
265	50
