Mass Spectrum: 2-Chlorobenzoic acid, pentadecyl ester
Formula: C22 H35 Cl O2
Molecular weight: 366
Origin: Zaikin V.G., TIPS RAS, Moscow, Russia
m/z	RELATIVE INTENSITY
27	70
28	10
29	180
36	30
39	90
41	550
42	160
43	731
44	20
50	50
51	30
53	40
54	160
55	841
56	440
57	621
67	210
68	220
69	691
70	440
71	290
75	190
76	100
77	130
81	130
82	250
83	721
84	330
85	160
95	70
96	130
97	611
98	210
99	30
104	70
105	90
109	30
110	60
111	941
112	220
113	230
121	50
123	40
124	30
125	140
126	90
139	3223
140	330
141	1071
142	80
154	40
156	1531
157	9999
158	1171
159	2873
160	230
182	100
210	190
211	30
366	40
