Mass Spectrum: p-Anisic acid, 2-adamantyl ester
Formula: C18 H22 O3
Molecular weight: 286
Origin: Zaikin V.G., TIPS RAS, Moscow, Russia
m/z	RELATIVE INTENSITY
26	40
27	130
28	10
29	130
38	80
39	300
40	50
41	510
42	30
43	40
44	60
50	140
51	140
52	60
53	230
54	60
55	290
56	721
57	60
62	50
63	280
64	390
65	250
66	230
67	711
68	60
69	90
74	50
75	60
76	180
77	1882
78	951
79	1611
80	550
81	480
82	30
91	1021
92	6025
93	1872
94	160
95	50
103	30
104	100
105	631
106	460
107	761
108	120
109	70
115	30
117	40
119	771
120	90
121	130
122	50
133	100
134	7947
135	9999
136	881
137	80
138	30
150	30
151	410
152	2452
153	440
154	40
235	110
255	60
268	40
285	400
286	1892
287	370
288	40
