Mass Spectrum: o-Methoxybenzoic acid, 2-bromo-4-fluorophenyl ester
Formula: C14 H10 Br F O3
Molecular weight: 324
Origin: Zaikin V.G., TIPS RAS, Moscow, Russia
m/z	RELATIVE INTENSITY
28	20
50	60
51	140
62	30
63	150
64	160
76	90
77	1101
78	90
79	70
81	60
82	70
92	550
93	40
105	70
120	120
135	9999
136	761
137	60
161	90
163	90
189	30
190	30
191	40
192	30
