Mass Spectrum: p-Toluic acid, 5-fluoro-2-nitrophenyl ester
Formula: C14 H10 F N O4
Molecular weight: 275
Origin: Zaikin V.G., TIPS RAS, Moscow, Russia
m/z	RELATIVE INTENSITY
28	20
30	50
39	110
41	40
50	30
51	60
62	30
63	140
64	40
65	490
70	30
81	40
82	60
89	180
90	130
91	1972
92	160
118	40
119	9999
120	731
121	40
136	50
227	30
