Mass Spectrum: o-Toluic acid, 4-hexadecyl ester
Formula: C24 H40 O2
Molecular weight: 360
Origin: Zaikin V.G., TIPS RAS, Moscow, Russia
m/z	RELATIVE INTENSITY
26	30
27	130
28	110
29	270
36	50
39	200
40	30
41	851
42	220
43	1121
44	100
50	30
51	40
53	60
54	140
55	1091
56	520
57	1111
58	50
59	40
63	60
65	310
66	30
67	210
68	160
69	851
70	530
71	611
72	30
77	100
79	60
81	140
82	230
83	751
84	370
85	400
86	30
89	120
90	260
91	1641
92	200
93	140
95	70
96	150
97	711
98	230
99	100
105	60
109	30
110	80
111	420
112	160
113	40
118	1381
119	5985
120	510
121	40
124	50
125	200
126	100
135	170
136	9999
137	2402
138	230
139	80
140	70
152	30
153	40
154	50
162	30
196	50
224	370
225	60
241	100
