Mass Spectrum: m-Anisic acid, cyclobutyl ester
Formula: C12 H14 O3
Molecular weight: 206
Origin: Zaikin V.G., TIPS RAS, Moscow, Russia
m/z	RELATIVE INTENSITY
27	50
28	10
29	30
39	50
50	50
51	30
53	40
55	100
63	120
64	190
65	30
76	80
77	591
78	50
79	30
92	490
93	40
107	1151
108	90
135	9999
136	701
137	60
150	50
152	90
178	230
206	430
