Mass Spectrum: Glufosinate, N,O,O-tris(tert-butyldimethylsilyl)deriv.
Formula: C23 H54 N O4 P Si3
Molecular weight: 523
Origin: N.Tsunoda. J.Chrom.,637,167(1993)
m/z	RELATIVE INTENSITY
45	1151
46	310
47	230
57	851
58	881
73	8698
74	1651
75	1541
77	230
86	40
103	150
115	80
121	270
133	150
137	230
138	190
147	310
150	150
151	120
152	40
153	40
170	621
208	80
211	230
212	150
213	80
268	80
297	80
307	80
308	230
309	150
310	40
334	2312
335	731
364	1772
365	731
366	420
367	80
376	80
383	80
437	150
448	350
449	40
465	80
466	9999
467	190
468	40
508	1041
509	621
