Mass Spectrum: Valeric acid, but-3-yn-2-yl ester
Formula: C9 H14 O2
Molecular weight: 154
Origin: Zaikin V.G., TIPS RAS, Moscow, Russia
m/z	RELATIVE INTENSITY
26	140
27	1161
28	10
29	1281
31	30
39	390
40	50
41	1321
42	270
43	420
44	70
45	100
50	260
51	450
52	1241
53	3673
54	330
55	841
56	320
57	4334
58	200
59	290
60	941
61	60
66	30
67	160
68	30
69	460
70	190
71	50
73	410
74	40
75	100
78	30
79	380
81	40
83	651
84	741
85	9999
86	540
87	80
91	40
93	40
94	30
95	60
97	490
98	50
101	260
102	160
103	571
104	30
111	130
112	390
125	80
139	130
154	90
