Mass Spectrum: 4-Cyanobenzoic acid, 1-adamantylmethyl ester
Formula: C19 H21 N O2
Molecular weight: 295
Origin: Zaikin V.G., TIPS RAS, Moscow, Russia
m/z	RELATIVE INTENSITY
27	30
28	10
29	30
39	70
41	180
43	30
44	30
50	40
51	70
53	70
55	170
57	30
65	60
66	30
67	320
69	80
70	40
75	90
76	70
77	250
78	90
79	881
80	180
81	290
91	400
92	460
93	911
94	120
95	30
102	671
103	130
104	30
105	220
106	150
107	440
108	40
119	100
120	40
130	811
131	90
133	110
134	20
135	9999
136	1011
137	50
147	70
148	1231
149	180
237	90
265	1752
266	360
267	40
295	30
