Mass Spectrum: Methylcitric acid, tetrakis(trimethylsilyl) deriv.
Formula: C19 H42 O7 Si4
Molecular weight: 494
Origin: Diagnosis of Organic Acidemias by GC/MS
m/z	RELATIVE INTENSITY
44	340
73	9999
74	731
75	1071
81	120
133	540
143	240
147	7987
148	971
149	1291
197	380
217	691
218	380
221	1171
225	520
231	1031
245	140
259	300
271	601
273	180
287	1111
288	280
289	100
305	100
361	561
362	140
363	60
377	380
378	60
389	480
390	140
479	691
480	240
481	100
