Mass Spectrum: 2,6-Difluorobenzoic acid, 2-bromo-4-fluorophenyl ester
Formula: C13 H6 Br F3 O2
Molecular weight: 330
Origin: Zaikin V.G., TIPS RAS, Moscow, Russia
m/z	RELATIVE INTENSITY
28	10
56	30
57	50
62	50
63	360
68	30
74	30
81	110
82	100
93	70
94	70
110	30
112	70
113	1001
114	80
140	30
141	9999
142	711
143	40
161	130
163	120
189	30
190	40
191	30
192	40
330	120
332	120
