Mass Spectrum: p-Toluic acid, hex-4-yn-3-yl ester
Formula: C14 H16 O2
Molecular weight: 216
Origin: Zaikin V.G., TIPS RAS, Moscow, Russia
m/z	RELATIVE INTENSITY
27	80
28	10
29	30
36	30
38	30
39	240
40	40
41	260
50	50
51	110
52	80
53	330
55	50
62	20
63	120
64	30
65	601
66	90
67	30
69	30
77	190
78	40
79	1521
80	571
81	380
89	160
90	130
91	1702
92	160
93	70
97	270
100	30
118	40
119	9999
120	1011
121	60
128	30
135	40
136	120
137	260
143	50
144	20
146	120
157	40
159	40
160	30
173	40
187	230
188	581
189	70
201	470
202	60
216	180
