Mass Spectrum: Valeric acid, undec-2-enyl ester
Formula: C16 H30 O2
Molecular weight: 254
Origin: Zaikin V.G., TIPS RAS, Moscow, Russia
m/z	RELATIVE INTENSITY
26	30
27	250
28	280
29	711
36	40
39	280
40	50
41	1321
42	180
43	761
44	30
53	190
54	1311
55	1511
56	310
57	3403
58	170
59	30
60	140
65	40
66	80
67	911
68	771
69	901
70	210
71	160
72	80
73	70
77	30
79	120
80	80
81	921
82	1011
83	821
84	150
85	9999
86	540
87	40
93	30
94	30
95	711
96	761
97	651
98	90
99	30
100	130
101	80
102	60
103	320
109	340
110	350
111	150
112	30
113	110
114	160
115	60
123	160
124	581
125	60
127	90
128	80
137	30
141	200
142	90
151	30
152	300
153	50
155	280
156	220
157	80
169	220
170	500
171	60
183	120
197	130
211	80
212	30
225	601
226	90
254	60
