Mass Spectrum: 2,6-Difluorobenzoic acid, 3-methylbut-2-enyl ester
Formula: C12 H12 F2 O2
Molecular weight: 226
Origin: Zaikin V.G., TIPS RAS, Moscow, Russia
m/z	RELATIVE INTENSITY
27	90
28	30
29	80
36	30
39	210
40	110
41	931
42	90
44	30
50	30
51	30
53	410
54	50
55	50
57	60
62	40
63	370
66	30
67	1311
68	3183
69	1551
70	80
83	50
85	410
93	70
94	50
112	60
113	871
114	160
127	50
140	30
141	9999
142	691
143	70
158	180
159	310
167	50
184	30
226	220
