Mass Spectrum: 5-Bromovaleric acid, 2,6-dimethylnon-1-en-3-yn-5-yl ester
Formula: C16 H25 Br O2
Molecular weight: 328
Origin: Zaikin V.G., TIPS RAS, Moscow, Russia
m/z	RELATIVE INTENSITY
26	110
27	731
29	781
39	741
40	170
41	1581
42	310
43	1281
44	460
45	40
50	90
51	260
52	200
53	490
54	100
55	5115
56	340
57	170
59	40
62	30
63	160
64	70
65	520
66	270
67	400
68	40
69	601
70	220
71	320
73	100
74	20
75	20
76	40
77	1231
78	641
79	951
80	240
81	601
82	621
83	1111
84	120
85	40
89	70
90	30
91	2052
92	631
93	1061
94	190
95	1381
96	450
97	150
98	60
99	50
100	30
101	160
102	20
103	230
104	140
105	1401
106	1401
107	1161
108	200
109	3063
110	350
111	390
112	30
113	20
115	90
116	40
117	220
118	70
119	2072
120	581
121	270
122	90
123	2042
124	9999
125	981
126	50
131	70
132	30
133	2212
134	270
135	3984
136	1021
137	5135
138	370
139	20
147	140
148	1832
149	420
150	50
151	1181
152	130
159	30
162	50
163	4314
164	280
165	5345
166	2482
167	310
168	20
175	10
177	10
179	90
193	420
194	40
229	40
230	30
231	50
232	30
243	60
245	50
247	30
249	50
257	200
258	90
259	180
260	110
285	1541
286	210
287	1541
288	220
289	10
299	30
301	20
313	200
314	30
315	190
316	20
328	60
330	60
