Mass Spectrum: 4-Ethylbenzoic acid, 4-hexadecyl ester
Formula: C25 H42 O2
Molecular weight: 374
Origin: Zaikin V.G., TIPS RAS, Moscow, Russia
m/z	RELATIVE INTENSITY
29	50
39	50
41	250
42	70
43	280
51	30
53	40
54	70
55	530
56	270
57	460
64	30
65	40
67	150
68	130
69	581
70	420
71	330
77	230
78	50
79	500
80	40
81	140
82	250
83	801
84	430
85	270
89	40
90	60
91	100
95	80
96	280
97	991
98	360
99	110
102	30
103	290
104	120
105	911
106	110
107	90
109	40
110	170
111	761
112	280
113	50
118	30
123	50
124	110
125	450
126	210
127	30
131	100
132	60
133	9999
134	1101
135	440
136	50
137	30
138	80
139	210
140	160
148	210
149	80
150	821
151	9188
152	1071
153	230
154	130
161	20
162	40
166	30
167	80
168	80
180	30
181	120
182	70
195	40
196	190
197	30
205	40
224	1722
225	300
241	300
242	50
331	30
