Mass Spectrum: 2,6-Difluorobenzoic acid, 2-chlorophenyl ester
Formula: C13 H7 Cl F2 O2
Molecular weight: 268
Origin: Zaikin V.G., TIPS RAS, Moscow, Russia
m/z	RELATIVE INTENSITY
28	10
62	40
63	320
64	40
73	80
75	50
93	50
99	110
101	30
112	60
113	901
114	80
128	40
141	9999
142	651
143	40
233	30
268	250
269	30
270	80
