Mass Spectrum: Valeric acid, 3-chloroprop-2-enyl ester
Formula: C8 H13 Cl O2
Molecular weight: 176
Origin: Zaikin V.G., TIPS RAS, Moscow, Russia
m/z	RELATIVE INTENSITY
26	180
27	781
28	30
29	1692
31	50
35	110
36	1011
37	30
38	400
39	1181
40	140
41	1962
42	340
43	520
44	240
45	120
49	360
50	100
51	280
52	360
53	250
54	40
55	1061
56	240
57	6025
58	250
59	410
60	360
61	60
62	50
63	30
66	30
67	510
68	941
69	701
70	40
71	50
73	160
74	70
75	3603
76	170
77	1111
78	130
79	681
80	30
81	50
83	801
84	140
85	9999
86	550
87	30
89	30
91	470
92	30
93	300
95	30
98	60
99	310
100	30
101	240
103	90
134	90
141	2492
142	210
147	30
176	70
