Mass Spectrum: o-Toluic acid, hexyl ester
Formula: C14 H20 O2
Molecular weight: 220
Origin: Zaikin V.G., TIPS RAS, Moscow, Russia
m/z	RELATIVE INTENSITY
27	30
28	10
29	20
35	30
36	250
38	80
39	160
41	180
42	50
43	440
44	100
45	70
50	70
51	110
52	50
53	40
55	200
56	210
57	140
59	60
62	50
63	190
64	70
65	681
66	50
67	40
69	150
77	240
78	40
79	140
83	40
84	280
85	180
89	420
90	791
91	3583
92	450
93	200
105	140
107	40
118	7317
119	7547
120	751
121	60
122	40
133	40
134	30
135	470
136	9999
137	3843
138	380
139	30
149	60
152	60
220	2452
221	430
222	40
