Mass Spectrum: 4-Ethylbenzoic acid, pentadecyl ester
Formula: C24 H40 O2
Molecular weight: 360
Origin: Zaikin V.G., TIPS RAS, Moscow, Russia
m/z	RELATIVE INTENSITY
27	70
28	60
29	150
39	70
41	430
42	110
43	561
44	30
51	30
53	40
54	100
55	611
56	260
57	390
67	150
68	160
69	470
70	250
71	170
77	240
78	60
79	480
80	30
81	90
82	170
83	440
84	180
85	90
89	50
90	80
91	230
95	40
96	80
97	350
98	110
103	220
104	120
105	1551
106	200
107	80
110	30
111	170
112	70
118	30
119	40
123	30
125	70
126	40
131	50
132	50
133	4264
134	400
135	440
136	60
137	30
140	30
148	40
149	40
150	7897
151	9999
152	1011
153	90
163	50
182	40
191	30
210	120
343	30
360	150
361	40
