Mass Spectrum: 5-Bromovaleric acid, but-3-yn-2-yl ester
Formula: C9 H13 Br O2
Molecular weight: 232
Origin: Zaikin V.G., TIPS RAS, Moscow, Russia
m/z	RELATIVE INTENSITY
25	30
26	380
27	2772
28	30
29	1161
31	50
36	170
37	50
38	200
39	981
40	130
41	1151
42	410
43	1091
44	410
45	220
49	50
50	510
51	921
52	2132
53	7317
54	611
55	8107
56	480
57	350
58	50
59	721
60	70
67	90
68	30
69	1331
70	370
71	130
73	741
74	60
77	50
79	190
80	130
81	130
82	170
83	2552
84	190
85	40
87	50
91	80
93	520
94	30
95	130
97	911
98	60
99	430
100	110
101	4144
102	220
106	70
107	591
108	80
109	410
111	150
121	30
125	320
126	30
133	60
134	40
135	4394
136	190
137	4244
138	170
153	60
162	190
163	9999
164	701
165	9939
166	510
179	80
180	140
181	210
182	140
183	120
232	90
234	90
