Mass Spectrum: Valeric acid, hex-4-yn-3-yl ester
Formula: C11 H18 O2
Molecular weight: 182
Origin: Zaikin V.G., TIPS RAS, Moscow, Russia
m/z	RELATIVE INTENSITY
26	150
27	1011
28	10
29	1631
39	1121
40	240
41	2652
42	350
43	651
44	180
45	80
50	170
51	370
52	460
53	1611
54	180
55	621
56	340
57	6306
58	260
59	60
60	460
63	80
65	470
66	270
67	350
68	50
69	801
70	40
73	190
75	50
77	841
78	210
79	8948
80	4274
81	3303
82	240
83	871
84	220
85	9999
86	540
87	50
93	70
95	40
96	30
97	591
98	1121
99	380
101	60
103	410
107	120
111	160
112	30
122	40
125	2732
126	440
127	30
139	180
140	160
153	1011
154	180
167	1912
168	200
182	841
183	90
