Mass Spectrum: 2-Chlorobenzoic acid, 1-adamantylmethyl ester
Formula: C18 H21 Cl O2
Molecular weight: 304
Origin: Zaikin V.G., TIPS RAS, Moscow, Russia
m/z	RELATIVE INTENSITY
28	10
29	30
36	30
39	80
41	200
43	30
44	40
50	50
51	50
53	90
55	190
57	30
65	70
66	40
67	400
68	30
69	100
70	100
74	30
75	210
76	90
77	370
78	140
79	1111
80	290
81	370
82	30
91	550
92	951
93	1191
94	200
95	40
104	50
105	390
106	310
107	571
108	50
111	631
112	80
113	210
119	170
120	70
133	220
134	50
135	9999
136	1041
137	50
139	1321
140	110
141	440
142	30
148	7607
149	941
150	60
156	60
165	20
304	170
305	30
306	60
