Mass Spectrum: 3-Cyclopentylpropionic acid, hex-4-yn-3-yl ester
Formula: C14 H22 O2
Molecular weight: 222
Origin: Zaikin V.G., TIPS RAS, Moscow, Russia
m/z	RELATIVE INTENSITY
26	60
27	410
28	150
29	380
38	90
39	901
40	220
41	2462
42	270
43	641
44	90
50	90
51	220
52	240
53	1571
54	420
55	4394
56	250
57	260
60	250
61	40
63	70
65	480
66	360
67	1371
68	380
69	1712
70	130
71	60
73	460
74	120
77	761
78	200
79	9999
80	6996
81	6966
82	1001
83	1672
84	120
85	30
87	30
91	90
93	120
94	100
95	1361
96	350
97	1902
98	1541
99	741
100	140
105	240
106	100
107	4884
108	480
109	110
110	70
111	280
112	50
113	60
114	110
119	30
121	90
122	310
123	2582
124	490
125	9398
126	1211
127	270
128	110
133	70
135	110
136	60
137	30
138	30
139	170
140	460
141	641
142	180
143	410
144	30
147	90
149	20
150	40
151	80
153	330
154	40
161	40
165	360
166	50
175	80
179	150
181	80
189	30
193	581
194	280
195	30
204	70
221	30
222	2352
223	370
224	30
