Mass Spectrum: 1-Bromo-3-fluoro-6-di-tert-butyl-silyloxybenzene
Formula: C14 H22 Br F O Si
Molecular weight: 332
Origin: Zaikin V.G., TIPS RAS, Moscow, Russia
m/z	RELATIVE INTENSITY
26	30
27	100
28	10
29	420
39	260
40	90
41	781
42	70
43	230
44	270
45	270
47	170
50	70
51	60
52	40
53	30
55	130
56	170
57	891
58	120
59	430
60	30
61	60
62	30
63	320
64	30
65	60
69	50
71	20
73	440
74	70
75	330
76	60
77	240
78	30
79	300
80	40
81	50
82	170
83	100
85	190
86	30
89	30
91	370
92	30
93	60
94	340
95	931
96	220
97	30
101	30
105	40
107	520
109	1241
110	130
111	110
115	30
123	741
124	100
125	671
126	30
127	30
130	40
133	30
137	1561
138	180
139	3213
140	340
141	230
142	30
143	80
149	30
151	90
152	60
153	1621
154	550
155	250
165	120
167	1161
168	190
169	260
170	30
174	50
176	60
179	90
181	150
190	100
192	90
195	40
196	440
197	70
217	1621
218	290
219	2332
220	420
221	841
222	120
233	2422
234	310
235	2432
236	290
237	80
247	6156
248	861
249	6376
250	831
251	250
259	30
274	70
275	9979
276	1712
277	9999
278	1591
279	470
280	40
332	180
333	30
334	190
335	30
