Mass Spectrum: 2,6-Difluorobenzoic acid, 2-methylphenyl ester
Formula: C14 H10 F2 O2
Molecular weight: 248
Origin: Zaikin V.G., TIPS RAS, Moscow, Russia
m/z	RELATIVE INTENSITY
27	30
28	40
39	70
50	40
51	80
52	50
53	40
62	30
63	320
65	30
77	190
78	80
79	40
93	40
94	30
107	70
108	30
112	50
113	921
114	90
140	30
141	9999
142	631
143	30
158	20
248	781
249	110
