Mass Spectrum: 2,6-Difluorobenzoic acid, pentyl ester
Formula: C12 H14 F2 O2
Molecular weight: 228
Origin: Zaikin V.G., TIPS RAS, Moscow, Russia
m/z	RELATIVE INTENSITY
28	30
36	60
39	40
41	120
42	200
43	90
44	40
55	340
57	30
62	30
63	310
68	30
69	170
70	761
71	50
87	30
93	80
94	70
112	90
113	1211
114	230
139	30
140	50
141	9999
142	791
143	70
158	811
159	7527
160	621
161	50
228	30
