Mass Spectrum: 3-Cyclopentylpropionic acid, octyl ester
Formula: C16 H30 O2
Molecular weight: 254
Origin: Zaikin V.G., TIPS RAS, Moscow, Russia
m/z	RELATIVE INTENSITY
26	140
27	651
28	20
29	1171
30	20
31	40
36	40
38	40
39	781
40	210
41	3763
42	1171
43	2993
44	210
45	50
50	30
51	60
52	40
53	430
54	601
55	5405
56	2732
57	3793
58	200
59	60
60	771
61	2082
62	50
65	100
66	130
67	1651
68	1221
69	2953
70	3723
71	2943
72	170
73	2793
74	490
75	100
77	100
78	40
79	971
80	581
81	1812
82	2092
83	7507
84	3663
85	290
86	40
87	90
91	70
93	60
94	50
95	831
96	731
97	1661
98	160
99	170
100	300
101	170
102	40
105	70
106	130
107	1902
108	170
109	40
110	70
111	110
112	4864
113	661
114	350
115	100
116	310
122	140
123	530
124	771
125	6085
126	500
127	80
129	70
130	30
140	50
141	390
142	641
143	9999
144	811
145	60
155	60
157	230
169	50
172	90
173	160
183	90
185	771
186	90
255	30
