Mass Spectrum: 4-Butylbenzoic acid, pentadecyl ester
Formula: C26 H44 O2
Molecular weight: 388
Origin: Zaikin V.G., TIPS RAS, Moscow, Russia
m/z	RELATIVE INTENSITY
27	60
28	40
29	100
39	60
41	360
42	90
43	430
44	40
54	70
55	550
56	210
57	450
65	40
67	120
68	120
69	420
70	200
71	150
77	70
79	60
81	80
82	130
83	370
84	140
85	90
89	50
90	170
91	701
92	430
93	50
95	40
96	70
97	300
98	90
103	50
104	40
105	120
107	80
110	30
111	140
112	50
115	30
117	40
118	160
119	140
123	140
125	60
126	30
131	120
133	220
134	30
135	500
136	2432
137	330
138	30
149	70
159	30
161	2933
162	370
163	50
176	40
177	50
178	5545
179	9999
180	1071
181	90
182	30
191	50
210	80
219	20
371	30
388	130
389	40
