Mass Spectrum: 3-Bromobenzoic acid, 2-chlorophenyl ester
Formula: C13 H8 Br Cl O2
Molecular weight: 310
Origin: Zaikin V.G., TIPS RAS, Moscow, Russia
m/z	RELATIVE INTENSITY
28	20
38	50
39	60
50	370
51	60
62	30
63	160
64	90
73	150
74	170
75	671
76	841
77	70
92	30
99	200
101	60
104	130
127	40
128	130
129	30
130	40
139	70
155	1772
156	140
157	1752
158	120
168	80
183	9999
184	611
185	9709
186	581
187	30
275	50
277	50
310	320
311	40
312	420
313	60
314	100
