Mass Spectrum: 3-Fluorobenzoic acid, tridec-2-ynyl ester
Formula: C20 H27 F O2
Molecular weight: 318
Origin: Zaikin V.G., TIPS RAS, Moscow, Russia
m/z	RELATIVE INTENSITY
27	70
29	140
39	80
41	320
42	50
43	410
51	40
52	90
53	100
54	60
55	270
56	60
57	100
65	60
66	60
67	210
68	40
69	120
70	30
75	90
77	130
78	40
79	320
80	90
81	170
82	40
83	50
91	130
93	200
94	110
95	601
96	70
97	40
107	70
108	80
109	50
111	50
121	100
122	30
123	9999
124	671
125	40
135	80
136	30
138	30
140	50
141	60
149	40
151	90
166	30
177	40
178	30
180	30
191	180
192	110
194	30
195	50
