Mass Spectrum: 4-Cyanobenzoic acid, 5-fluoro-2-nitrophenyl ester
Formula: C14 H7 F N2 O4
Molecular weight: 286
Origin: Zaikin V.G., TIPS RAS, Moscow, Russia
m/z	RELATIVE INTENSITY
27	30
28	30
30	90
38	30
39	30
44	40
50	180
51	260
52	50
57	60
62	30
63	100
70	60
74	70
75	400
76	300
77	30
81	120
82	140
83	40
98	30
99	30
101	70
102	2502
103	230
124	30
127	50
130	9999
131	831
132	50
141	50
147	250
157	40
238	20
286	60
