Mass Spectrum: p-Toluic acid, 3,5-difluorophenyl ester
Formula: C14 H10 F2 O2
Molecular weight: 248
Origin: Zaikin V.G., TIPS RAS, Moscow, Russia
m/z	RELATIVE INTENSITY
28	20
39	160
41	50
50	50
51	110
57	30
62	40
63	190
64	50
65	681
66	40
75	50
89	230
90	160
91	2682
92	200
101	170
102	30
118	60
119	9999
120	731
121	40
129	30
130	60
