Mass Spectrum: m-Anisic acid, tridec-2-ynyl ester
Formula: C21 H30 O3
Molecular weight: 330
Origin: Zaikin V.G., TIPS RAS, Moscow, Russia
m/z	RELATIVE INTENSITY
27	80
28	60
29	170
36	40
39	120
41	410
42	50
43	370
44	80
50	40
51	60
52	80
53	150
54	50
55	280
56	50
57	100
63	100
64	140
65	130
66	60
67	200
68	30
69	110
76	50
77	561
78	100
79	330
80	60
81	170
83	40
91	150
92	340
93	160
94	70
95	100
105	80
107	601
108	140
109	140
119	30
121	90
122	30
133	30
135	9999
136	941
137	90
152	711
153	130
178	80
203	120
204	60
