Mass Spectrum: 2,6-Difluorobenzoic acid, pent-2-en-4-ynyl ester
Formula: C12 H8 F2 O2
Molecular weight: 222
Origin: Zaikin V.G., TIPS RAS, Moscow, Russia
m/z	RELATIVE INTENSITY
28	20
36	60
38	40
39	270
44	40
50	60
51	50
53	30
62	70
63	480
64	120
65	370
68	30
75	30
81	60
93	60
94	50
112	50
113	791
114	110
123	40
140	20
141	9999
142	721
143	40
158	210
159	60
177	50
222	90
