Mass Spectrum: 4-Ethylbenzoic acid, but-3-yn-2-yl ester
Formula: C13 H14 O2
Molecular weight: 202
Origin: Zaikin V.G., TIPS RAS, Moscow, Russia
m/z	RELATIVE INTENSITY
26	30
27	330
28	20
36	70
39	140
41	30
44	40
50	140
51	300
52	170
53	611
54	30
63	120
64	30
65	100
74	30
75	40
76	50
77	741
78	170
79	671
80	40
89	190
90	180
91	280
102	50
103	420
104	160
105	1621
106	180
107	190
115	30
118	30
127	40
128	160
129	360
130	40
131	70
132	30
133	9999
134	941
135	861
136	70
143	350
144	40
150	450
151	150
157	90
161	150
173	180
174	30
202	1041
203	140
