Mass Spectrum: 4-Cyanobenzoic acid, 2-chlorophenyl ester
Formula: C14 H8 Cl N O2
Molecular weight: 257
Origin: Zaikin V.G., TIPS RAS, Moscow, Russia
m/z	RELATIVE INTENSITY
27	40
28	10
36	50
38	60
39	100
44	70
50	220
51	290
52	60
62	60
63	220
64	120
65	30
73	220
74	110
75	611
76	340
77	60
92	40
99	290
100	40
101	160
102	2793
103	260
119	40
127	30
128	90
129	30
130	9999
131	881
132	50
135	150
147	360
148	30
151	30
222	140
257	380
258	50
259	130
