Mass Spectrum: m-Anisic acid, heptadecyl ester
Formula: C25 H42 O3
Molecular weight: 390
Origin: Zaikin V.G., TIPS RAS, Moscow, Russia
m/z	RELATIVE INTENSITY
26	40
27	90
28	70
29	190
36	40
39	100
41	571
42	130
43	731
44	70
53	40
54	110
55	791
56	240
57	500
63	40
64	60
65	50
67	170
68	140
69	520
70	190
71	180
76	40
77	350
78	60
79	60
81	120
82	140
83	380
84	110
85	90
92	230
93	40
94	30
95	60
96	70
97	260
98	60
105	90
107	550
108	130
109	440
110	50
111	100
112	30
121	60
122	30
125	30
133	30
135	2182
136	380
137	50
138	30
150	40
151	30
152	9999
153	3323
154	490
155	50
165	50
390	1061
391	270
392	30
