Mass Spectrum: 4-Butylbenzoic acid, but-3-yn-2-yl ester
Formula: C15 H18 O2
Molecular weight: 230
Origin: Zaikin V.G., TIPS RAS, Moscow, Russia
m/z	RELATIVE INTENSITY
27	150
28	10
29	40
39	70
41	100
43	40
50	50
51	110
52	80
53	350
55	40
57	40
63	50
65	120
77	190
78	60
79	60
89	170
90	330
91	1001
92	220
103	110
104	70
105	140
107	190
115	100
116	30
117	40
118	200
119	50
123	30
127	30
128	140
129	290
130	50
131	100
133	100
135	731
136	250
143	601
144	110
145	30
159	40
161	9999
162	951
163	70
173	170
178	90
179	90
185	60
187	140
230	811
231	120
