Mass Spectrum: 4-Cyanobenzoic acid, cyclobutyl ester
Formula: C12 H11 N O2
Molecular weight: 201
Origin: Zaikin V.G., TIPS RAS, Moscow, Russia
m/z	RELATIVE INTENSITY
27	110
28	10
29	40
39	80
41	40
50	110
51	160
52	30
53	30
54	30
55	70
74	40
75	290
76	210
101	40
102	1912
103	210
130	9999
131	731
132	40
145	651
146	70
147	60
155	30
173	380
174	40
183	70
