Mass Spectrum: 4-Ethylbenzoic acid, 2-methyloct-5-yn-4-yl ester
Formula: C18 H24 O2
Molecular weight: 272
Origin: Zaikin V.G., TIPS RAS, Moscow, Russia
m/z	RELATIVE INTENSITY
27	60
29	50
39	80
41	160
43	140
51	60
53	70
55	100
63	30
65	70
66	40
67	70
69	60
77	370
78	80
79	591
80	100
81	250
89	50
90	70
91	220
92	30
93	430
94	80
95	40
103	190
104	80
105	520
106	50
107	561
108	50
122	170
123	30
124	40
131	30
133	9999
134	791
135	160
139	110
150	80
151	100
201	70
216	220
217	40
229	651
230	110
257	30
