Mass Spectrum: 4-Ethylbenzoic acid, tridec-2-ynyl ester
Formula: C22 H32 O2
Molecular weight: 328
Origin: Zaikin V.G., TIPS RAS, Moscow, Russia
m/z	RELATIVE INTENSITY
27	50
29	80
39	50
41	180
43	180
51	30
52	40
53	70
54	30
55	140
57	40
65	50
66	30
67	100
69	50
77	190
78	50
79	330
80	40
81	80
90	30
91	120
93	80
94	30
95	60
103	100
104	60
105	320
106	40
107	50
121	30
129	30
131	30
133	9999
134	941
135	130
150	30
151	110
201	80
202	50
