Mass Spectrum: 4-Ethylbenzoic acid, pent-2-en-4-ynyl ester
Formula: C14 H14 O2
Molecular weight: 214
Origin: Zaikin V.G., TIPS RAS, Moscow, Russia
m/z	RELATIVE INTENSITY
27	80
28	20
36	70
38	30
39	320
44	40
50	70
51	150
52	50
53	50
62	30
63	160
64	60
65	460
66	30
76	30
77	520
78	110
79	510
80	30
89	120
90	110
91	110
102	30
103	350
104	120
105	1011
106	100
107	60
115	40
128	40
129	30
131	40
133	9999
134	931
135	250
141	150
150	160
155	80
169	30
185	60
214	480
215	70
