Mass Spectrum: o-Toluic acid, 2,7-dimethyloct-7-en-5-yn-4-yl ester
Formula: C18 H22 O2
Molecular weight: 270
Origin: Zaikin V.G., TIPS RAS, Moscow, Russia
m/z	RELATIVE INTENSITY
27	70
28	10
29	40
39	130
41	230
43	220
51	80
52	30
53	70
55	90
63	70
64	30
65	330
66	40
67	50
69	30
77	330
78	70
79	230
80	20
81	110
89	90
90	120
91	1752
92	310
93	250
94	30
103	30
105	160
106	30
107	90
109	80
117	50
118	110
119	9999
120	721
121	50
133	60
134	160
135	40
136	100
151	80
214	120
227	911
228	150
270	30
