Mass Spectrum: p-Toluic acid, 2-isopropoxyphenyl ester
Formula: C17 H18 O3
Molecular weight: 270
Origin: Zaikin V.G., TIPS RAS, Moscow, Russia
m/z	RELATIVE INTENSITY
27	40
28	30
39	80
41	80
43	50
51	40
52	60
63	60
64	30
65	330
80	30
81	100
89	100
90	100
91	1431
92	120
109	110
110	90
118	50
119	9999
120	761
121	70
136	30
228	40
270	671
271	120
