Mass Spectrum: 4-Butylbenzoic acid, hex-4-yn-3-yl ester
Formula: C17 H22 O2
Molecular weight: 258
Origin: Zaikin V.G., TIPS RAS, Moscow, Russia
m/z	RELATIVE INTENSITY
27	50
28	10
29	40
39	90
41	170
51	50
52	30
53	180
55	50
57	30
63	30
65	120
66	30
77	180
78	50
79	851
80	460
81	280
89	100
90	240
91	641
92	130
97	150
103	70
104	50
105	80
107	80
115	40
118	160
119	30
123	30
129	30
131	70
133	70
135	300
136	150
157	30
159	30
161	9999
162	1011
163	70
178	80
179	220
185	40
188	70
201	80
202	30
229	130
230	370
231	50
243	170
258	220
259	40
