Mass Spectrum: 4-Cyanobenzoic acid, dodec-9-ynyl ester
Formula: C20 H25 N O2
Molecular weight: 311
Origin: Zaikin V.G., TIPS RAS, Moscow, Russia
m/z	RELATIVE INTENSITY
26	80
27	290
28	10
29	360
38	50
39	611
40	200
41	1942
42	240
43	340
44	70
50	220
51	370
52	180
53	691
54	631
55	2082
56	180
57	100
62	30
63	70
64	30
65	390
66	550
67	4264
68	9999
69	1091
70	60
71	50
74	70
75	440
76	370
77	540
78	180
79	2422
80	891
81	1912
82	3924
83	370
91	450
92	90
93	1922
94	631
95	1541
96	430
97	300
98	30
99	30
101	110
102	3383
103	611
104	130
105	140
106	40
107	1081
108	440
109	701
110	120
117	30
119	70
121	851
122	420
123	130
129	30
130	6766
131	671
132	40
133	30
135	971
136	270
137	30
147	340
148	701
149	140
163	40
164	100
230	40
244	90
