Mass Spectrum: o-Anisic acid, 3-chloroprop-2-enyl ester
Formula: C11 H11 Cl O3
Molecular weight: 226
Origin: Zaikin V.G., TIPS RAS, Moscow, Russia
m/z	RELATIVE INTENSITY
27	30
28	40
39	280
44	70
49	100
50	140
51	280
52	50
53	50
61	30
62	70
63	340
64	340
65	130
74	70
75	841
76	220
77	1742
78	230
79	250
81	40
90	30
91	110
92	981
93	150
94	50
104	90
105	611
106	70
107	80
108	150
115	80
118	40
119	90
120	240
121	1281
122	110
123	330
131	50
132	70
133	290
134	100
135	9999
136	881
137	80
145	40
147	230
151	190
152	310
153	30
163	30
181	90
183	30
191	1381
192	170
197	60
226	611
227	70
228	190
