Mass Spectrum: 5-Chlorovaleric acid, 2-adamantyl ester
Formula: C15 H23 Cl O2
Molecular weight: 270
Origin: Zaikin V.G., TIPS RAS, Moscow, Russia
m/z	RELATIVE INTENSITY
27	80
28	10
29	30
35	40
36	380
38	120
39	70
40	50
41	160
42	60
43	30
44	210
53	50
54	30
55	430
56	260
57	50
65	30
66	60
67	220
68	30
69	60
70	30
73	40
77	200
78	440
79	751
80	270
81	240
82	50
83	70
91	861
92	3513
93	1411
94	110
95	60
97	30
100	70
101	30
105	530
106	400
107	140
108	30
117	50
118	40
119	961
120	110
121	80
133	120
134	9999
135	2582
136	270
137	170
139	40
150	50
151	70
154	30
207	40
270	60
