Mass Spectrum: m-Methoxybenzoic acid, hexyl ester
Formula: C14 H20 O3
Molecular weight: 236
Origin: Zaikin V.G., TIPS RAS, Moscow, Russia
m/z	RELATIVE INTENSITY
26	10
27	80
29	120
36	10
38	20
39	90
40	10
41	250
42	80
43	210
44	20
50	40
51	40
52	10
53	40
54	10
55	200
56	190
57	20
62	10
63	130
64	210
65	80
66	10
67	20
69	70
74	10
75	20
76	110
77	671
78	100
79	50
81	30
83	20
84	20
91	10
92	591
93	60
94	30
104	20
105	80
106	20
107	901
108	200
109	210
110	10
119	10
120	10
121	60
122	40
123	10
133	10
135	4104
136	450
137	60
138	40
151	70
152	9999
153	1551
154	150
155	10
165	110
166	10
236	1802
237	270
238	30
