Mass Spectrum: 2-Chlorobenzoic acid, 2-adamantyl ester
Formula: C17 H19 Cl O2
Molecular weight: 290
Origin: Zaikin V.G., TIPS RAS, Moscow, Russia
m/z	RELATIVE INTENSITY
27	60
29	70
36	40
38	60
39	170
40	30
41	420
42	40
43	60
50	120
51	110
52	40
53	180
54	70
55	280
56	691
57	80
65	130
66	180
67	661
68	60
69	120
70	30
74	50
75	460
76	200
77	641
78	851
79	1601
80	561
81	500
82	40
83	30
85	40
91	1161
92	5505
93	2012
94	150
95	60
104	90
105	731
106	500
107	190
111	1351
112	140
113	460
114	50
117	40
119	901
120	80
133	120
134	9999
135	1401
136	100
139	3583
140	260
141	1181
142	80
150	40
151	250
156	220
157	390
158	70
159	120
255	290
256	50
290	861
291	150
292	310
293	40
