Mass Spectrum: 2,3,4-Trifluorobenzoic acid, 3-methylbut-2-enyl ester
Formula: C12 H11 F3 O2
Molecular weight: 244
Origin: Zaikin V.G., TIPS RAS, Moscow, Russia
m/z	RELATIVE INTENSITY
27	70
28	30
29	70
36	50
39	190
40	120
41	921
42	100
44	30
51	40
52	30
53	450
54	50
55	50
57	120
62	40
65	30
66	30
67	1581
68	3333
69	1672
70	90
75	30
80	30
81	581
82	30
83	40
85	370
112	60
130	50
131	1311
132	150
159	9999
160	671
161	50
176	200
177	90
244	140
