Mass Spectrum: 4-Ethylbenzoic acid, decyl ester
Formula: C19 H30 O2
Molecular weight: 290
Origin: Zaikin V.G., TIPS RAS, Moscow, Russia
m/z	RELATIVE INTENSITY
27	90
28	50
29	140
39	90
41	370
42	110
43	330
44	40
51	50
53	50
54	60
55	460
56	280
57	180
63	30
65	40
67	90
68	120
69	310
70	320
71	60
77	400
78	100
79	621
80	40
81	40
82	80
83	260
84	180
85	30
89	90
90	130
91	300
96	50
97	190
98	90
102	30
103	350
104	170
105	2192
106	270
107	120
111	100
112	100
118	40
119	50
131	70
132	60
133	5855
134	550
135	681
136	70
140	160
148	50
149	50
150	7016
151	9999
152	821
153	70
163	60
191	30
273	30
290	70
