Mass Spectrum: 3-Fluorobenzoic acid, 2,7-dimethyloct-7-en-5-yn-4-yl ester
Formula: C17 H19 F O2
Molecular weight: 274
Origin: Zaikin V.G., TIPS RAS, Moscow, Russia
m/z	RELATIVE INTENSITY
26	30
27	290
28	60
29	170
39	320
40	60
41	691
42	40
43	550
44	80
50	140
51	220
52	90
53	160
55	190
57	110
61	30
62	30
63	90
64	40
65	230
66	60
67	170
68	110
69	120
70	40
74	70
75	420
76	60
77	500
78	120
79	370
80	50
81	370
83	50
85	30
91	1021
92	370
93	300
94	130
95	2242
96	270
103	70
104	50
105	240
106	50
107	80
109	210
115	30
117	100
119	1581
120	150
122	30
123	9999
124	731
125	40
133	110
134	250
135	40
136	60
140	661
141	60
151	110
189	50
190	40
205	30
217	60
218	80
231	3403
232	520
233	50
274	130
