Mass Spectrum: 2,3,4-Trifluorobenzoic acid, but-3-yn-2-yl ester
Formula: C11 H7 F3 O2
Molecular weight: 228
Origin: Zaikin V.G., TIPS RAS, Moscow, Russia
m/z	RELATIVE INTENSITY
26	30
27	310
28	10
31	30
36	30
41	40
43	50
44	30
50	130
51	200
52	561
53	1061
54	40
57	30
61	40
62	60
68	30
69	210
75	40
80	50
81	721
82	40
99	40
112	70
130	50
131	1231
132	140
133	40
159	9999
160	621
161	30
169	80
176	540
177	170
183	70
185	80
200	70
228	671
229	70
