Mass Spectrum: 4-Ethylbenzoic acid, undecyl ester
Formula: C20 H32 O2
Molecular weight: 304
Origin: Zaikin V.G., TIPS RAS, Moscow, Russia
m/z	RELATIVE INTENSITY
26	60
27	220
28	120
29	320
36	60
39	200
40	40
41	701
42	210
43	641
44	110
50	60
51	120
52	30
53	80
54	120
55	811
56	480
57	350
63	60
65	80
66	30
67	180
68	210
69	571
70	460
71	130
75	20
76	40
77	571
78	160
79	891
80	60
81	80
82	190
83	430
84	300
85	70
89	110
90	150
91	520
92	50
95	40
96	90
97	340
98	150
102	50
103	430
104	210
105	2853
106	400
107	220
110	30
111	140
112	70
118	50
119	80
123	50
125	70
126	100
131	120
132	80
133	5025
134	550
135	961
136	120
137	50
148	130
149	90
150	7036
151	9999
152	961
153	100
154	240
163	90
191	40
287	40
304	100
