Mass Spectrum: o-Toluic acid, cyclobutyl ester
Formula: C12 H14 O2
Molecular weight: 190
Origin: Zaikin V.G., TIPS RAS, Moscow, Russia
m/z	RELATIVE INTENSITY
28	10
36	50
39	50
51	30
55	130
63	70
65	330
77	30
89	160
90	150
91	2012
92	180
118	160
119	9999
120	771
121	50
134	100
135	100
136	250
137	30
144	60
145	30
147	250
148	160
161	30
162	80
172	100
190	260
191	40
