Mass Spectrum: p-Toluic acid, oct-3-en-2-yl ester
Formula: C16 H22 O2
Molecular weight: 246
Origin: Zaikin V.G., TIPS RAS, Moscow, Russia
m/z	RELATIVE INTENSITY
27	40
28	10
29	40
36	40
39	110
41	220
43	80
44	30
51	40
53	90
54	60
55	681
56	40
63	60
65	270
66	30
67	200
68	561
69	711
70	40
71	90
77	40
79	50
81	400
82	50
89	90
90	70
91	1131
92	120
93	60
95	120
110	120
111	90
118	30
119	9999
120	721
121	50
127	430
128	40
135	50
136	250
137	230
145	40
148	30
161	40
189	30
203	140
204	30
246	60
