Mass Spectrum: 5-Chlorovaleric acid, tridecyl ester
Formula: C18 H35 Cl O2
Molecular weight: 318
Origin: Zaikin V.G., TIPS RAS, Moscow, Russia
m/z	RELATIVE INTENSITY
26	30
27	110
28	30
29	90
35	70
36	490
38	170
39	100
40	90
41	340
42	180
43	400
44	350
53	50
54	120
55	1541
56	651
57	851
58	40
63	40
67	250
68	360
69	1251
70	1041
71	751
72	40
73	170
77	40
79	50
81	210
82	821
83	2482
84	1151
85	671
86	40
87	60
91	1181
92	60
93	390
95	140
96	510
97	2382
98	1041
99	210
100	400
101	1551
102	100
103	90
105	30
109	70
110	290
111	1692
112	901
113	150
115	40
116	100
118	120
119	3473
120	250
121	1161
122	70
123	30
124	170
125	991
126	621
127	110
129	40
133	30
134	60
135	90
136	1201
137	9999
138	1091
139	3723
140	591
141	100
147	70
152	70
153	160
154	1411
155	240
157	130
163	60
174	60
177	120
179	30
180	70
182	1762
183	300
192	460
193	70
194	140
197	50
199	90
206	40
227	691
228	100
246	30
283	320
284	60
