Mass Spectrum: 4-Cyanobenzoic acid, undecyl ester
Formula: C19 H27 N O2
Molecular weight: 301
Origin: Zaikin V.G., TIPS RAS, Moscow, Russia
m/z	RELATIVE INTENSITY
26	90
27	460
28	10
29	891
37	30
38	50
39	490
40	110
41	2342
42	891
43	2452
44	170
50	230
51	340
52	80
53	200
54	510
55	3123
56	2702
57	1732
58	70
63	30
65	50
66	40
67	591
68	971
69	2993
70	2903
71	781
72	30
74	80
75	550
76	470
77	100
79	50
81	220
82	1061
83	2863
84	2122
85	430
91	30
92	20
95	90
96	410
97	2392
98	1101
99	90
100	30
101	140
102	4234
103	921
104	220
105	30
110	140
111	1001
112	571
113	50
117	30
119	40
124	50
125	450
126	1161
127	110
129	50
130	9999
131	1211
132	110
145	130
146	30
147	510
148	5855
149	1261
150	140
154	1191
155	140
158	60
161	90
171	30
174	50
175	30
185	60
188	190
189	320
190	40
202	470
203	300
204	40
216	130
217	100
230	80
231	30
244	110
245	30
258	100
259	30
272	80
273	50
300	40
301	140
302	100
