Mass Spectrum: 1-Isopropoxy-2-dimethyl-(allyl)-silyloxybenzene
Formula: C14 H22 O2 Si
Molecular weight: 250
Origin: Zaikin V.G., TIPS RAS, Moscow, Russia
m/z	RELATIVE INTENSITY
27	110
28	40
36	90
39	110
40	30
41	290
42	50
43	841
44	110
45	100
47	50
52	30
55	30
59	280
61	60
63	30
64	40
65	50
69	30
71	60
73	30
75	1682
76	150
77	120
79	50
83	60
91	420
92	70
93	30
99	50
107	50
110	30
135	50
136	791
137	220
138	40
139	40
149	360
150	60
151	2612
152	340
153	120
165	60
166	621
167	9999
168	1341
169	430
170	30
179	30
193	70
210	170
211	50
249	100
250	30
