Mass Spectrum: 1,1,2,2-Tetramethyl-3,3,4,4-tetra(n-butyl)cyclotetrasilane
Formula: C20 H48 Si4
Molecular weight: 400
Origin: M.Blazco,J.Chrom.,683,115(1994)
m/z	RELATIVE INTENSITY
43	3213
44	1291
45	2732
55	1441
57	1291
58	811
59	9999
60	721
69	861
71	1822
73	5845
74	771
83	1391
85	3063
86	1391
87	2202
88	2012
89	1201
95	811
97	1481
99	3113
100	861
101	2542
102	861
103	1441
111	1051
113	3213
114	1291
115	2492
116	1481
117	1441
125	1531
127	3683
128	1672
129	3253
130	1772
131	1581
132	1001
141	2732
142	771
143	2442
144	1241
145	1631
146	811
155	811
157	1822
158	1201
159	1341
171	2112
172	1912
173	2392
174	961
175	1481
176	4024
177	1341
186	1051
187	901
214	571
231	771
232	3974
233	1341
234	721
288	3013
289	1001
344	911
400	3403
401	1241
402	801
