Mass Spectrum: p-Methoxybenzoic acid, 2-bromo-4-fluorophenyl ester
Formula: C14 H10 Br F O3
Molecular weight: 324
Origin: Zaikin V.G., TIPS RAS, Moscow, Russia
m/z	RELATIVE INTENSITY
38	30
50	50
51	30
63	150
64	210
76	80
77	601
78	50
81	50
82	50
92	520
93	40
104	40
107	360
108	30
135	9999
136	731
137	60
152	190
161	60
163	60
