Mass Spectrum: m-Methoxybenzoic acid, 2-methylphenyl ester
Formula: C15 H14 O3
Molecular weight: 242
Origin: Zaikin V.G., TIPS RAS, Moscow, Russia
m/z	RELATIVE INTENSITY
28	20
39	60
50	60
51	80
52	30
53	40
63	170
64	280
65	70
76	120
77	971
78	140
79	80
91	30
92	701
93	50
104	30
107	1481
108	160
135	9999
136	771
137	60
152	80
242	601
243	100
