Mass Spectrum: p-Anisic acid, cyclobutyl ester
Formula: C12 H14 O3
Molecular weight: 206
Origin: Zaikin V.G., TIPS RAS, Moscow, Russia
m/z	RELATIVE INTENSITY
26	30
27	110
28	20
29	60
38	50
39	90
41	30
50	90
51	60
53	50
55	110
62	30
63	190
64	300
65	50
74	30
75	40
76	110
77	841
78	70
79	40
92	751
93	60
104	50
107	440
108	40
121	70
135	9999
136	1131
137	90
150	30
152	130
178	190
206	210
