Mass Spectrum: 3-Trifluoromethylcinnamic acid, 2-bromo-4-fluorophenyl ester
Formula: C16 H9 Br F4 O2
Molecular weight: 388
Origin: Zaikin V.G., TIPS RAS, Moscow, Russia
m/z	RELATIVE INTENSITY
28	10
50	40
51	40
57	50
63	50
74	30
75	90
76	40
81	90
82	110
83	30
94	30
95	70
101	60
102	290
103	30
110	30
120	70
125	60
126	30
145	170
151	1481
152	180
161	120
163	120
169	130
170	130
171	1361
172	140
189	60
190	70
191	60
192	70
199	9999
200	901
201	60
215	50
216	60
369	100
371	90
