Mass Spectrum: m-Toluic acid, 2,6-dimethylnon-1-en-3-yn-5-yl ester
Formula: C19 H24 O2
Molecular weight: 284
Origin: Zaikin V.G., TIPS RAS, Moscow, Russia
m/z	RELATIVE INTENSITY
27	30
28	10
29	30
39	90
41	160
43	90
51	50
53	50
55	60
63	60
65	280
66	30
67	40
69	60
77	220
78	60
79	130
81	40
82	50
83	40
89	80
90	80
91	1651
92	230
93	130
95	90
103	40
105	240
106	230
107	90
117	40
118	40
119	9999
120	801
121	70
123	140
133	400
134	50
135	30
136	370
137	70
148	450
149	60
161	40
165	180
213	60
214	100
241	530
242	100
255	30
269	90
284	50
