Mass Spectrum: o-Toluic acid, 3-methylbut-2-enyl ester
Formula: C13 H16 O2
Molecular weight: 204
Origin: Zaikin V.G., TIPS RAS, Moscow, Russia
m/z	RELATIVE INTENSITY
28	10
36	110
38	30
39	170
40	40
41	691
42	50
44	40
50	40
51	100
52	40
53	280
54	30
55	30
62	30
63	160
64	60
65	751
66	70
67	791
68	2322
69	4874
70	320
77	140
79	50
85	380
89	320
90	410
91	2993
92	400
93	110
104	30
105	120
117	40
118	1221
119	9999
120	961
121	60
130	40
131	30
134	30
135	180
136	1922
137	490
138	40
143	20
144	60
145	300
146	40
147	60
148	1061
149	140
159	220
160	30
161	90
171	40
186	300
187	40
189	100
204	1321
205	190
