Mass Spectrum: p-Toluic acid, 2-(1-adamantyl)ethyl ester
Formula: C20 H26 O2
Molecular weight: 298
Origin: Zaikin V.G., TIPS RAS, Moscow, Russia
m/z	RELATIVE INTENSITY
27	50
28	20
29	60
39	180
40	30
41	350
43	50
44	40
50	30
51	60
52	30
53	130
54	30
55	270
56	80
57	30
63	80
64	20
65	480
66	100
67	440
68	40
69	120
70	80
77	380
78	200
79	1221
80	470
81	410
82	50
84	110
89	150
90	130
91	2462
92	1211
93	1501
94	410
95	130
103	40
104	120
105	1021
106	891
107	651
108	150
117	60
118	90
119	4214
120	731
121	260
133	400
134	270
135	6025
136	1301
137	240
147	260
148	30
149	40
161	70
162	9999
163	1381
164	90
265	30
280	60
