Mass Spectrum: Valeric acid, 3-methylbut-2-enyl ester
Formula: C10 H18 O2
Molecular weight: 170
Origin: Zaikin V.G., TIPS RAS, Moscow, Russia
m/z	RELATIVE INTENSITY
26	140
27	1071
28	20
29	1792
30	30
31	30
39	1071
40	490
41	4844
42	450
43	410
44	160
45	80
50	80
51	160
52	220
53	1391
54	140
55	470
56	180
57	6866
58	300
59	40
60	330
65	70
66	120
67	4484
68	8778
69	6406
70	420
71	310
73	140
75	50
78	40
79	320
83	160
84	130
85	9999
86	631
87	50
93	40
101	60
103	270
114	40
128	160
141	30
170	280
