Mass Spectrum: p-Toluic acid, 1-adamantylmethyl ester
Formula: C19 H24 O2
Molecular weight: 284
Origin: Zaikin V.G., TIPS RAS, Moscow, Russia
m/z	RELATIVE INTENSITY
27	50
28	20
29	60
39	200
40	30
41	350
43	40
50	30
51	70
52	30
53	140
54	20
55	280
56	30
57	50
63	90
64	30
65	490
66	90
67	490
68	40
69	120
70	170
77	400
78	190
79	1371
80	440
81	460
82	30
89	150
90	140
91	2332
92	1661
93	1441
94	270
95	60
104	50
105	561
106	490
107	651
108	60
117	30
118	40
119	2752
120	340
121	50
133	330
134	80
135	9999
136	1041
137	80
147	30
148	7277
149	881
150	50
165	30
269	20
284	861
285	180
