Mass Spectrum: o-Toluic acid, 3-chloropen-2-enyl ester
Formula: C11 H11 Cl O2
Molecular weight: 210
Origin: Zaikin V.G., TIPS RAS, Moscow, Russia
m/z	RELATIVE INTENSITY
26	50
27	130
28	10
29	30
35	40
36	310
38	180
39	951
40	60
41	190
44	100
49	210
50	110
51	260
52	80
53	60
61	40
62	110
63	360
64	120
65	1301
66	70
67	30
68	70
69	160
73	30
74	40
75	1361
76	70
77	741
78	60
79	530
80	30
89	520
90	571
91	3833
92	360
93	30
105	140
107	90
115	70
116	50
118	621
119	6085
120	581
121	30
128	50
129	581
130	110
131	220
133	160
134	40
135	9999
136	1181
137	110
147	90
148	100
156	90
157	280
158	30
165	70
174	200
175	2482
176	300
210	280
211	30
212	90
