Mass Spectrum: o-Anisic acid, 3-methylbut-2-enyl ester
Formula: C13 H16 O3
Molecular weight: 220
Origin: Zaikin V.G., TIPS RAS, Moscow, Russia
m/z	RELATIVE INTENSITY
27	150
28	10
29	110
39	450
40	120
41	1601
42	80
43	60
44	210
50	260
51	510
52	130
53	390
54	40
55	90
62	90
63	490
64	480
65	300
66	50
67	450
68	300
69	2662
70	160
74	80
75	90
76	300
77	2412
78	430
79	761
80	50
81	140
82	30
83	40
85	220
90	50
91	110
92	1371
93	200
94	90
95	50
104	100
105	2362
106	410
107	280
108	250
109	50
118	40
119	80
120	310
121	410
122	180
123	2843
124	210
133	320
134	430
135	9999
136	911
137	100
145	30
146	50
151	70
152	2322
153	440
154	30
161	170
175	280
176	30
177	50
187	30
191	120
194	30
205	110
220	2122
221	290
