Mass Spectrum: m-Anisic acid, 2,6-dimethylnon-1-en-3-yn-5-yl ester
Formula: C19 H24 O3
Molecular weight: 300
Origin: Zaikin V.G., TIPS RAS, Moscow, Russia
m/z	RELATIVE INTENSITY
28	10
29	30
39	60
41	140
43	100
51	50
53	60
55	80
63	90
64	120
65	110
67	40
69	70
76	60
77	711
78	120
79	190
81	60
82	40
83	40
91	410
92	500
93	180
94	30
95	100
103	50
104	50
105	290
106	250
107	891
108	100
109	40
115	30
117	40
119	360
120	100
121	50
123	160
124	30
133	430
134	60
135	9999
136	1071
137	130
148	470
149	70
151	30
152	230
153	30
164	80
165	210
177	40
185	30
189	20
201	30
202	30
217	40
229	90
230	110
257	741
258	140
271	50
285	120
300	100
