Mass Spectrum: m-Methoxybenzoic acid, 2-bromo-4-fluorophenyl ester
Formula: C14 H10 Br F O3
Molecular weight: 324
Origin: Zaikin V.G., TIPS RAS, Moscow, Russia
m/z	RELATIVE INTENSITY
28	10
38	30
50	70
51	40
62	30
63	200
64	280
74	30
75	30
76	120
77	741
78	70
79	30
81	60
82	80
92	681
93	50
107	1291
108	100
135	9999
136	731
137	60
161	80
163	80
190	50
191	30
192	50
202	30
324	160
326	150
