Mass Spectrum: m-Toluic acid, octadecyl ester
Formula: C26 H44 O2
Molecular weight: 388
Origin: Zaikin V.G., TIPS RAS, Moscow, Russia
m/z	RELATIVE INTENSITY
26	20
27	80
28	70
29	190
39	120
41	581
42	150
43	871
53	40
54	140
55	861
56	350
57	691
58	20
63	30
65	200
67	200
68	230
69	681
70	320
71	300
77	50
79	20
81	130
82	250
83	641
84	220
85	170
89	70
90	90
91	1291
92	180
93	330
95	80
96	140
97	550
98	140
99	30
105	30
109	30
110	50
111	260
112	90
118	50
119	3333
120	300
121	30
124	30
125	120
126	50
135	40
136	6966
137	9999
138	821
139	100
140	40
149	40
224	40
252	120
388	60
389	20
