Mass Spectrum: o-Methoxybenzoic acid, 3,5-difluorophenyl ester
Formula: C14 H10 F2 O3
Molecular weight: 264
Origin: Zaikin V.G., TIPS RAS, Moscow, Russia
m/z	RELATIVE INTENSITY
28	20
50	60
51	150
62	30
63	190
64	200
75	50
76	90
77	1211
78	90
79	80
92	661
93	50
101	140
105	90
113	30
120	160
130	30
135	9999
136	731
137	60
