Mass Spectrum: 3-Fluorobenzoic acid, 2,6-dimethylnon-1-en-3-yn-5-yl ester
Formula: C18 H21 F O2
Molecular weight: 288
Origin: Zaikin V.G., TIPS RAS, Moscow, Russia
m/z	RELATIVE INTENSITY
26	40
27	50
28	70
39	130
41	160
43	30
44	390
45	60
47	100
49	40
50	380
51	200
52	70
55	30
56	50
57	100
61	290
62	70
63	80
65	30
67	30
68	200
69	330
70	130
73	50
74	280
75	1061
76	110
77	60
78	30
79	390
80	80
81	130
82	80
83	40
85	50
91	80
92	50
93	100
94	330
95	3773
96	410
105	60
106	40
107	30
111	30
112	50
119	130
120	30
122	50
123	9999
124	821
125	50
127	160
133	190
135	30
136	80
139	50
140	3433
141	310
142	60
148	160
149	40
158	170
160	50
165	110
205	50
217	120
218	140
231	50
245	1151
246	250
247	30
259	110
273	240
274	40
288	60
