Mass Spectrum: p-Methoxybenzoic acid, 5-fluoro-2-nitrophenyl ester
Formula: C14 H10 F N O5
Molecular weight: 291
Origin: Zaikin V.G., TIPS RAS, Moscow, Russia
m/z	RELATIVE INTENSITY
28	10
30	30
38	30
50	60
51	40
63	160
64	220
65	30
75	30
76	90
77	631
78	50
79	30
81	40
82	40
92	540
93	40
104	40
107	370
108	30
135	9999
136	731
137	60
152	330
153	20
291	80
