Mass Spectrum: Diisopropyl-silyloxybenzene
Formula: C12 H20 O Si
Molecular weight: 208
Origin: Zaikin V.G., TIPS RAS, Moscow, Russia
m/z	RELATIVE INTENSITY
27	40
28	20
39	50
41	60
43	100
45	190
51	150
59	60
61	150
68	30
71	40
75	30
76	30
77	811
78	240
79	110
81	40
91	100
105	50
109	160
119	30
121	1101
122	140
123	400
124	110
135	120
137	9999
138	1051
139	360
149	80
151	140
163	160
164	150
165	1872
166	460
167	110
208	2202
209	350
