Mass Spectrum: m-Toluic acid, 2-adamantyl ester
Formula: C18 H22 O2
Molecular weight: 270
Origin: Zaikin V.G., TIPS RAS, Moscow, Russia
m/z	RELATIVE INTENSITY
26	60
27	210
29	260
39	490
40	90
41	971
42	140
43	240
45	50
50	50
51	120
52	60
53	230
54	140
55	641
56	1091
57	140
59	20
62	30
63	140
64	50
65	841
66	280
67	761
68	190
69	320
70	200
77	581
78	961
79	1591
80	581
81	460
82	120
83	150
84	100
89	200
90	190
91	4384
92	6216
93	2412
94	150
95	70
96	30
97	70
105	801
106	561
107	190
115	40
117	60
118	50
119	9999
120	250
121	40
128	30
133	40
134	7707
135	971
150	60
151	280
152	50
161	30
252	80
255	70
269	110
270	2582
271	470
272	40
