Mass Spectrum: 3-Cyclopentylpropionic acid, oct-3-en-2-yl ester
Formula: C16 H28 O2
Molecular weight: 252
Origin: Zaikin V.G., TIPS RAS, Moscow, Russia
m/z	RELATIVE INTENSITY
26	120
27	791
28	320
29	811
38	150
39	1031
40	270
41	3853
42	510
43	1331
44	210
45	110
50	50
51	110
52	90
53	921
54	831
55	9629
56	601
57	520
58	270
59	160
60	390
61	50
65	210
66	200
67	2482
68	5845
69	6486
70	470
71	941
72	180
73	571
74	190
77	170
78	60
79	2302
80	941
81	5675
82	1041
83	1832
84	150
85	430
86	621
87	40
91	100
93	110
94	70
95	1752
96	270
97	1792
98	140
99	160
100	100
105	100
106	50
107	5885
108	540
109	190
110	1321
111	1672
112	160
113	240
114	350
115	30
122	160
123	1311
124	300
125	9999
126	891
127	2492
128	3533
129	320
140	100
141	390
142	90
143	150
152	110
153	30
154	90
155	190
167	50
170	450
171	60
183	190
195	80
210	30
252	50
