Mass Spectrum: 3-Cyclopentylpropionic acid, tridecyl ester
Formula: C21 H40 O2
Molecular weight: 324
Origin: Zaikin V.G., TIPS RAS, Moscow, Russia
m/z	RELATIVE INTENSITY
26	70
27	230
28	10
29	480
36	60
39	310
40	110
41	1722
42	480
43	2012
44	180
51	30
53	190
54	400
55	3283
56	1401
57	2602
58	140
60	220
61	581
65	50
66	90
67	1061
68	881
69	2482
70	1641
71	1651
72	100
73	1231
74	190
75	40
77	50
79	530
80	350
81	1121
82	1672
83	4454
84	1411
85	1121
86	70
87	40
91	40
93	40
94	40
95	571
96	991
97	2983
98	1061
99	350
100	160
101	100
105	40
106	70
107	1121
108	110
109	70
110	290
111	1401
112	741
113	260
114	200
115	70
116	310
117	30
122	130
123	400
124	701
125	3813
126	771
127	190
129	50
130	50
138	80
139	260
140	330
141	370
142	681
143	9999
144	901
145	70
152	40
153	130
154	991
155	140
169	40
180	40
182	1892
183	550
184	60
197	30
198	40
213	30
227	400
228	60
242	140
243	90
255	591
256	100
324	30
