Mass Spectrum: o-Anisic acid, tridec-2-ynyl ester
Formula: C21 H30 O3
Molecular weight: 330
Origin: Zaikin V.G., TIPS RAS, Moscow, Russia
m/z	RELATIVE INTENSITY
39	20
41	110
43	100
51	30
52	30
53	60
55	120
57	30
64	30
65	50
67	100
69	40
77	420
78	60
79	180
80	30
81	90
91	80
92	190
93	90
94	40
95	70
105	150
106	30
107	50
108	50
120	60
121	200
123	150
133	30
134	30
135	9999
136	1171
137	100
145	70
151	30
152	50
153	100
159	30
203	60
204	30
