Mass Spectrum: m-Anisic acid, 2-adamantyl ester
Formula: C18 H22 O3
Molecular weight: 286
Origin: Zaikin V.G., TIPS RAS, Moscow, Russia
m/z	RELATIVE INTENSITY
28	10
38	40
39	30
44	60
50	70
51	50
63	200
64	310
65	50
75	30
76	100
77	781
78	90
79	50
92	701
93	50
105	50
107	1331
108	130
133	160
135	9999
136	701
137	60
152	290
211	50
242	150
284	50
286	3093
287	500
288	70
