Mass Spectrum: Phenylacetic acid, 3-chloroprop-2-enyl ester
Formula: C11 H11 Cl O2
Molecular weight: 210
Origin: Zaikin V.G., TIPS RAS, Moscow, Russia
m/z	RELATIVE INTENSITY
26	40
27	70
28	70
36	200
38	130
39	571
40	50
41	130
44	160
45	40
49	140
50	90
51	190
52	70
61	30
62	90
63	270
64	100
65	851
66	50
69	130
75	1361
76	50
77	460
78	70
79	80
89	470
90	420
91	9999
92	1591
93	90
105	40
118	430
119	310
120	30
129	80
136	390
137	30
154	110
156	30
164	50
175	1041
176	120
210	911
211	110
212	300
213	30
