Mass Spectrum: 5-Chlorovaleric acid, undec-2-enyl ester
Formula: C16 H29 Cl O2
Molecular weight: 288
Origin: Zaikin V.G., TIPS RAS, Moscow, Russia
m/z	RELATIVE INTENSITY
26	40
27	360
28	260
29	661
36	110
38	30
39	390
40	70
41	1341
42	300
43	1101
44	120
51	30
52	30
53	320
54	2102
55	4404
56	591
57	621
58	60
59	50
63	110
65	100
66	140
67	1351
68	1241
69	1221
70	320
71	190
72	120
73	80
77	50
79	190
80	150
81	1461
82	1752
83	1051
84	140
85	100
86	70
91	3323
92	150
93	1081
94	60
95	1161
96	1411
97	871
98	130
99	40
100	130
101	240
109	601
110	681
111	210
112	40
113	50
114	80
118	70
119	9999
120	550
121	3043
122	170
123	290
124	1061
125	110
127	90
128	70
134	60
136	40
137	260
139	60
141	340
142	30
147	140
148	60
149	60
151	60
152	550
153	90
155	110
169	330
170	891
171	120
176	80
178	30
189	240
190	230
191	200
192	80
193	30
197	80
203	50
204	30
217	120
218	30
219	40
225	641
226	100
231	90
233	30
245	90
247	30
253	40
259	50
288	90
290	30
