Mass Spectrum: 1-Chloro-2-di-tert-butyl-silyloxybenzene
Formula: C14 H23 Cl O Si
Molecular weight: 270
Origin: Zaikin V.G., TIPS RAS, Moscow, Russia
m/z	RELATIVE INTENSITY
27	30
28	30
29	80
36	190
38	50
39	90
40	30
41	220
43	50
44	180
45	70
50	40
51	70
52	30
55	40
56	60
57	250
59	150
61	30
63	601
64	80
65	290
73	140
75	150
76	70
77	420
78	90
79	510
80	30
81	180
85	80
91	581
92	140
93	1742
94	150
95	671
96	50
97	40
105	40
112	60
115	110
117	50
119	30
121	951
122	110
123	120
127	30
128	80
130	50
133	30
135	1151
136	140
137	80
143	160
145	50
147	40
149	1862
150	270
151	160
152	50
153	60
154	160
155	1421
156	300
157	1051
158	200
159	220
160	30
161	50
169	110
171	2482
172	320
173	901
174	100
175	40
177	40
185	4334
186	611
187	1581
188	200
189	70
197	30
212	60
213	9999
214	1651
215	3613
216	550
217	140
270	120
272	40
