Mass Spectrum: 5-Bromovaleric acid, tridec-2-ynyl ester
Formula: C18 H31 Br O2
Molecular weight: 358
Origin: Zaikin V.G., TIPS RAS, Moscow, Russia
m/z	RELATIVE INTENSITY
26	140
27	881
29	1421
30	20
31	10
39	821
40	220
41	2722
42	591
43	3193
44	360
45	60
50	80
51	280
52	761
53	921
54	711
55	7507
56	901
57	901
58	100
59	230
63	40
64	30
65	470
66	550
67	1952
68	510
69	1201
70	811
71	741
72	90
73	130
77	891
78	330
79	2772
80	941
81	2022
82	971
83	1331
84	591
85	320
86	60
91	1021
92	210
93	1802
94	991
95	2082
96	821
97	1361
98	290
99	330
100	190
101	701
102	30
103	20
105	230
106	90
107	971
108	520
109	831
110	350
111	6186
112	661
113	320
114	260
115	20
119	70
120	30
121	871
122	280
123	230
124	280
125	1061
126	170
127	240
128	220
129	20
133	40
134	40
135	7897
136	741
137	7136
138	951
139	220
140	40
141	220
142	20
147	20
149	360
150	90
151	380
152	1081
153	280
154	40
155	240
156	20
162	160
163	9999
164	731
165	9949
166	571
167	100
168	20
169	80
177	330
178	360
179	130
180	70
181	320
182	10
183	90
191	110
192	30
193	110
194	60
195	621
196	741
197	140
203	50
205	120
206	40
217	20
218	50
219	30
220	90
222	30
223	80
224	20
231	711
232	290
233	731
234	300
235	40
236	20
237	50
245	100
246	20
247	120
248	20
249	30
251	230
252	40
259	40
261	40
273	20
275	20
279	50
289	10
301	20
303	20
315	20
317	10
