Mass Spectrum: 1-Methyl-2-diisopropyl-silyloxybenzene
Formula: C13 H22 O Si
Molecular weight: 222
Origin: Zaikin V.G., TIPS RAS, Moscow, Russia
m/z	RELATIVE INTENSITY
28	30
36	70
39	50
41	50
43	30
44	30
45	150
51	30
59	80
61	80
63	40
65	260
67	40
71	50
75	170
77	100
78	30
79	60
89	110
90	100
91	2172
92	280
93	30
95	30
105	70
107	30
119	130
121	230
122	30
123	50
131	30
133	160
134	70
135	1571
136	290
137	631
138	140
139	30
147	70
149	3904
150	581
151	9999
152	1371
153	450
154	30
161	40
163	100
165	150
177	380
178	370
179	3853
180	971
181	250
182	30
221	30
222	6876
223	1311
224	380
225	40
