Mass Spectrum: Valeric acid, 2,6-dimethylnon-1-en-3-yn-5-yl ester
Formula: C16 H26 O2
Molecular weight: 250
Origin: Zaikin V.G., TIPS RAS, Moscow, Russia
m/z	RELATIVE INTENSITY
26	70
27	490
28	460
29	1161
36	240
38	110
39	530
40	110
41	1882
42	160
43	741
44	100
50	70
51	230
52	170
53	340
54	40
55	671
56	140
57	5685
58	250
60	140
62	30
63	130
64	50
65	420
66	190
67	340
68	30
69	561
70	100
71	240
72	40
73	60
76	30
77	1071
78	460
79	811
80	120
81	490
82	420
83	390
84	110
85	9999
86	571
87	40
89	40
91	1692
92	550
93	931
94	160
95	1281
96	360
97	120
98	30
99	30
103	190
104	110
105	1151
106	1081
107	831
108	130
109	2172
110	280
111	230
115	80
117	170
118	60
119	1682
120	490
121	230
122	60
123	1451
124	5145
125	520
126	30
127	40
131	60
133	1682
134	350
135	100
136	350
137	961
138	170
147	100
148	1201
149	260
150	40
151	921
152	130
159	100
165	841
166	1421
167	210
176	60
179	370
180	180
181	30
193	310
194	40
207	2682
208	270
221	70
235	290
236	40
250	120
