Mass Spectrum: o-Toluic acid, heptyl ester
Formula: C15 H22 O2
Molecular weight: 234
Origin: Zaikin V.G., TIPS RAS, Moscow, Russia
m/z	RELATIVE INTENSITY
26	30
27	180
28	10
29	330
39	320
40	50
41	841
42	210
43	731
44	30
50	40
51	100
52	30
53	70
54	50
55	561
56	470
57	1822
58	80
62	40
63	180
64	70
65	881
66	50
67	50
68	70
69	300
70	340
71	50
77	200
78	30
79	120
81	30
83	60
89	380
90	661
91	3653
92	410
93	210
97	30
98	330
99	30
105	70
118	6166
119	6666
120	550
121	40
133	30
135	350
136	9999
137	3883
138	330
149	40
234	1631
235	290
236	30
