Mass Spectrum: Valeric acid, pent-2-en-4-ynyl ester
Formula: C10 H14 O2
Molecular weight: 166
Origin: Zaikin V.G., TIPS RAS, Moscow, Russia
m/z	RELATIVE INTENSITY
26	140
27	621
28	10
29	1521
31	30
39	1461
40	90
41	1601
42	240
43	320
44	210
45	80
50	200
51	300
52	360
53	260
54	90
55	470
56	150
57	7467
58	330
59	110
60	390
61	30
62	90
63	490
64	360
65	2202
66	330
67	50
69	20
73	160
75	60
77	30
78	80
79	500
80	30
81	380
82	901
83	240
84	40
85	9999
86	550
87	30
91	50
93	100
95	60
101	30
103	40
109	190
123	70
124	40
137	30
166	230
