Mass Spectrum: 4-Cyanobenzoic acid, 2-bromo-4-fluorophenyl ester
Formula: C14 H7 Br F N O2
Molecular weight: 319
Origin: Zaikin V.G., TIPS RAS, Moscow, Russia
m/z	RELATIVE INTENSITY
28	10
50	140
51	190
52	30
56	30
57	70
62	30
63	70
74	60
75	340
76	210
81	140
82	180
83	30
94	40
101	50
102	2102
103	180
110	40
111	20
130	9999
131	731
132	40
135	30
147	50
161	180
163	180
189	30
190	50
191	40
192	50
319	170
321	160
