Mass Spectrum: m-Toluic acid, decyl ester
Formula: C18 H28 O2
Molecular weight: 276
Origin: Zaikin V.G., TIPS RAS, Moscow, Russia
m/z	RELATIVE INTENSITY
26	30
27	140
28	40
29	270
39	210
40	30
41	701
42	210
43	571
44	30
50	30
51	50
53	60
54	100
55	761
56	540
57	310
63	90
64	30
65	500
66	30
67	130
68	190
69	510
70	571
71	110
77	80
81	50
82	140
83	430
84	300
85	60
89	190
90	190
91	3063
92	400
93	470
94	30
96	60
97	310
98	160
105	40
111	180
112	180
118	100
119	7647
120	631
121	60
135	70
136	9659
137	9999
138	811
139	60
140	350
141	40
149	80
177	40
276	170
277	40
