Mass Spectrum: 3-Cyclopentylpropionic acid, 3-methylbut-2-enyl ester
Formula: C13 H22 O2
Molecular weight: 210
Origin: Zaikin V.G., TIPS RAS, Moscow, Russia
m/z	RELATIVE INTENSITY
27	741
28	10
29	781
39	1161
40	470
41	5655
42	581
43	530
44	110
45	30
50	50
51	110
52	90
53	1331
54	360
55	4854
56	300
57	270
60	180
61	30
65	140
66	150
67	4074
68	9999
69	9078
70	1101
71	190
73	310
74	90
77	70
78	30
79	1992
80	530
81	3373
82	450
83	1011
84	90
85	901
86	140
87	30
91	60
93	50
94	110
95	1311
96	160
97	1351
98	100
99	110
100	80
105	210
106	30
107	3974
108	360
109	30
114	90
122	310
123	3173
124	350
125	4104
126	340
128	150
139	30
140	230
141	1461
142	220
143	110
150	40
166	40
168	30
210	150
