Mass Spectrum: 5-Chlorovaleric acid, dodec-9-ynyl ester
Formula: C17 H29 Cl O2
Molecular weight: 300
Origin: Zaikin V.G., TIPS RAS, Moscow, Russia
m/z	RELATIVE INTENSITY
26	130
27	500
28	10
29	751
31	30
36	160
38	90
39	691
40	210
41	2332
42	350
43	571
44	90
45	40
49	50
50	60
51	140
52	150
53	751
54	711
55	5715
56	440
57	230
58	40
59	80
60	50
62	50
63	190
64	30
65	400
66	731
67	4784
68	9999
69	1411
70	110
71	110
73	190
74	20
75	30
77	510
78	220
79	3273
80	1421
81	2813
82	5455
83	1171
84	90
85	60
87	50
89	30
91	2052
92	200
93	3263
94	1101
95	2442
96	861
97	1591
98	160
99	40
100	80
101	410
102	30
105	170
106	60
107	1792
108	841
109	1351
110	280
111	60
115	30
118	30
119	2212
120	160
121	1802
122	731
123	350
124	40
133	40
134	30
135	1932
136	510
137	1141
138	80
139	370
149	220
150	30
163	120
164	270
165	100
181	50
219	70
233	90
235	30
