Mass Spectrum: 5-Chlorovaleric acid, octyl ester
Formula: C13 H25 Cl O2
Molecular weight: 248
Origin: Zaikin V.G., TIPS RAS, Moscow, Russia
m/z	RELATIVE INTENSITY
26	140
27	1211
28	10
29	2072
30	60
31	70
36	150
38	80
39	1001
40	210
41	4044
42	2322
43	4214
44	270
45	170
49	140
50	40
51	110
52	40
53	530
54	681
55	9999
56	5225
57	3813
58	290
59	320
60	150
61	100
62	90
63	340
64	40
65	130
66	30
67	450
68	1051
69	3453
70	6256
71	2412
72	130
73	861
74	70
75	70
77	40
79	40
81	170
82	1151
83	5675
84	4414
85	340
87	270
89	50
90	50
91	3233
92	150
93	1081
94	40
95	40
97	561
98	100
99	80
100	831
101	3553
102	200
110	70
111	210
112	3483
113	330
116	100
118	130
119	6506
120	390
121	2132
122	90
127	110
129	110
134	70
135	30
136	691
137	7277
138	591
139	2372
140	120
147	50
149	30
157	320
163	80
174	40
176	40
177	140
179	40
192	140
194	40
213	210
