Mass Spectrum: Phenylacetic acid, 2,7-dimethyloct-7-en-5-yn-4-yl ester
Formula: C18 H22 O2
Molecular weight: 270
Origin: Zaikin V.G., TIPS RAS, Moscow, Russia
m/z	RELATIVE INTENSITY
27	130
28	30
29	90
36	60
39	320
40	50
41	581
42	30
43	841
44	100
50	70
51	220
52	90
53	180
55	400
56	30
57	120
62	40
63	190
64	90
65	761
66	110
67	210
68	50
69	230
77	1111
78	210
79	1081
80	110
81	460
82	50
83	60
85	40
89	270
90	300
91	9999
92	1181
93	1371
94	180
95	591
96	220
97	90
103	90
104	60
105	490
106	110
107	781
108	180
109	1992
110	1141
111	100
115	60
117	140
118	901
119	2362
120	340
121	50
123	150
129	30
133	190
134	410
135	130
136	180
137	540
138	50
141	30
143	30
151	290
152	1351
153	160
155	40
161	40
169	30
171	30
179	470
180	60
181	40
185	110
186	50
199	60
210	40
213	50
214	70
227	7497
228	1201
229	120
255	30
270	1141
271	220
