Mass Spectrum: 4-Butylbenzoic acid, 2,7-dimethyloct-7-en-5-yn-4-yl ester
Formula: C21 H28 O2
Molecular weight: 312
Origin: Zaikin V.G., TIPS RAS, Moscow, Russia
m/z	RELATIVE INTENSITY
27	70
28	20
29	50
39	90
41	240
43	210
51	60
53	60
55	120
57	30
63	40
65	140
67	50
69	30
77	350
78	90
79	220
80	30
81	80
89	90
90	260
91	1241
92	330
93	210
94	30
103	100
104	70
105	240
106	40
107	130
109	160
115	50
117	70
118	250
119	1181
120	110
131	80
133	150
134	220
135	260
136	200
151	70
159	30
161	9999
162	921
163	60
178	90
179	40
204	80
256	100
269	821
270	160
312	30
