Mass Spectrum: p-Toluic acid, but-3-yn-2-yl ester
Formula: C12 H12 O2
Molecular weight: 188
Origin: Zaikin V.G., TIPS RAS, Moscow, Russia
m/z	RELATIVE INTENSITY
26	40
27	270
28	20
35	30
36	240
38	130
39	320
40	30
41	90
43	30
44	100
45	40
50	170
51	280
52	200
53	621
54	30
59	30
62	70
63	260
64	70
65	801
66	50
77	110
79	100
89	290
90	200
91	2983
92	390
93	100
105	40
107	70
115	30
118	60
119	9999
120	851
121	50
127	40
128	140
129	440
130	50
135	80
136	1271
137	220
143	170
145	30
173	50
188	971
189	120
