Mass Spectrum: 3-Cyclopentylpropionic acid, heptyl ester
Formula: C15 H28 O2
Molecular weight: 240
Origin: Zaikin V.G., TIPS RAS, Moscow, Russia
m/z	RELATIVE INTENSITY
26	100
27	480
28	30
29	901
31	30
36	100
38	70
39	671
40	210
41	3023
42	861
43	1782
44	230
45	50
51	50
52	40
53	380
54	631
55	4714
56	3503
57	5325
58	280
59	60
60	841
61	2582
62	60
65	100
66	130
67	1591
68	1231
69	3083
70	4054
71	410
72	40
73	3013
74	591
75	120
77	100
78	40
79	1011
80	601
81	1852
82	1211
83	4674
84	350
85	90
86	40
87	100
91	70
93	60
94	60
95	871
96	891
97	1561
98	6336
99	791
100	340
101	180
102	40
105	80
106	140
107	2122
108	200
109	40
113	160
114	370
115	130
116	320
122	150
123	581
124	831
125	6896
126	641
127	60
129	90
140	60
141	430
142	631
143	9999
144	911
145	70
155	40
158	40
159	200
169	60
171	981
172	110
183	90
241	30
