Mass Spectrum: 4-Ethylbenzoic acid, undec-2-enyl ester
Formula: C20 H30 O2
Molecular weight: 302
Origin: Zaikin V.G., TIPS RAS, Moscow, Russia
m/z	RELATIVE INTENSITY
27	50
29	80
39	60
41	210
42	30
43	160
51	30
53	50
54	240
55	270
56	40
57	70
65	30
67	180
68	140
69	140
70	20
77	180
78	40
79	250
80	30
81	170
82	160
83	80
89	30
90	50
91	70
95	120
96	110
97	50
103	140
104	60
105	430
106	50
107	40
109	60
110	50
117	30
124	100
131	30
133	9999
134	771
135	180
149	30
150	210
151	270
152	130
161	30
203	120
204	50
217	30
231	80
245	60
259	50
273	60
302	30
