Mass Spectrum: 2,6-Difluorobenzoic acid, phenyl ester
Formula: C13 H8 F2 O2
Molecular weight: 234
Origin: Zaikin V.G., TIPS RAS, Moscow, Russia
m/z	RELATIVE INTENSITY
28	20
39	80
51	30
62	30
63	280
64	20
65	100
93	70
94	60
112	60
113	941
114	90
140	30
141	9999
142	661
143	40
234	611
235	90
