Mass Spectrum: 2,6-Difluorobenzoic acid, hexyl ester
Formula: C13 H16 F2 O2
Molecular weight: 242
Origin: Zaikin V.G., TIPS RAS, Moscow, Russia
m/z	RELATIVE INTENSITY
27	200
28	20
29	230
39	170
40	30
41	510
42	440
43	510
44	30
50	30
53	40
54	60
55	721
56	1151
57	100
62	50
63	450
67	40
68	40
69	440
74	30
81	20
83	130
84	721
85	50
93	90
94	80
112	90
113	1231
114	210
140	50
141	9999
142	611
143	50
158	601
159	8327
160	510
161	40
