Mass Spectrum: 4-Butylbenzoic acid, 2-adamantyl ester
Formula: C21 H28 O2
Molecular weight: 312
Origin: Zaikin V.G., TIPS RAS, Moscow, Russia
m/z	RELATIVE INTENSITY
26	40
27	130
28	30
29	80
36	70
39	200
40	70
41	380
42	50
43	150
44	130
50	60
51	120
52	40
53	120
54	40
55	300
56	701
57	100
63	100
64	30
65	250
66	150
67	460
68	50
69	90
75	30
76	50
77	671
78	941
79	1301
80	470
81	340
82	50
83	30
89	280
90	691
91	3103
92	5965
93	1842
94	140
95	70
102	50
103	260
104	170
105	971
106	500
107	500
108	40
109	30
115	160
116	70
117	150
118	520
119	1081
120	120
121	40
122	20
123	40
127	20
128	60
129	40
131	290
132	60
133	330
134	9999
135	3103
136	1171
137	110
138	40
148	30
149	100
150	60
151	500
152	70
159	90
160	30
161	6055
162	791
163	70
175	40
176	90
177	70
178	881
179	510
180	60
192	110
193	50
237	30
255	1752
256	330
257	30
269	100
277	60
294	180
295	80
311	370
312	2012
313	470
314	50
