Mass Spectrum: 3-Fluorobenzoic acid, undec-2-enyl ester
Formula: C18 H25 F O2
Molecular weight: 292
Origin: Zaikin V.G., TIPS RAS, Moscow, Russia
m/z	RELATIVE INTENSITY
27	210
28	150
29	380
36	30
39	250
40	40
41	901
42	150
43	671
44	40
50	40
51	40
53	170
54	1201
55	991
56	220
57	470
65	30
66	60
67	661
68	550
69	520
70	110
71	50
75	180
77	30
79	90
80	60
81	581
82	601
83	250
84	30
94	50
95	1101
96	420
97	150
109	180
110	200
111	30
123	9999
124	991
125	70
138	40
140	110
141	110
151	60
152	270
153	30
166	40
169	110
180	60
193	90
194	100
195	30
221	40
235	40
249	30
