Mass Spectrum: (2R,4R)-p-Mentha-[1(7),8]-diene, 2-hydroperoxide
Formula: C10 H16 O2
Molecular weight: 168
Origin: P.Schieberle ET AL.J.High Res.Chrom.,10,588(1987)
m/z	RELATIVE INTENSITY
38	60
39	7807
40	90
41	7937
42	2302
43	3263
51	2232
52	1802
53	7417
54	2412
55	7537
56	30
57	1341
62	30
63	951
65	1221
66	1221
67	9669
68	3783
69	5675
70	300
71	1131
77	3453
79	9489
80	2742
81	7417
82	1251
83	1431
91	6896
92	1892
93	9999
94	2322
95	2502
104	60
105	2012
106	1682
107	5985
108	3633
109	8358
119	3873
121	1281
122	1491
123	1742
134	6286
135	4734
150	2622
152	300
