Mass Spectrum: (2R,4R)-p-Mentha-6,8-diene, 2-hydroperoxide
Formula: C10 H16 O2
Molecular weight: 168
Origin: P.Schieberle ET AL.J.High Res.Chrom.,10,588(1987)
m/z	RELATIVE INTENSITY
39	3313
41	4634
43	3473
51	981
53	1982
54	2803
55	4534
56	1241
65	1101
67	2843
69	2863
77	2062
79	3103
80	1431
81	2222
82	6246
83	2803
84	4694
91	4274
92	1121
93	7697
94	1692
95	2692
105	1511
106	1101
107	7637
108	4574
109	9999
119	1712
123	1241
134	591
135	1782
137	981
138	240
150	731
152	1141
