Mass Spectrum: 2,6-Difluorobenzoic acid, oct-3-en-2-yl ester
Formula: C15 H18 F2 O2
Molecular weight: 268
Origin: Zaikin V.G., TIPS RAS, Moscow, Russia
m/z	RELATIVE INTENSITY
27	160
28	50
29	130
36	40
39	180
40	40
41	520
42	60
43	270
44	50
50	20
51	20
52	20
53	210
54	140
55	1071
56	70
57	40
62	20
63	240
65	40
66	30
67	420
68	1551
69	871
70	50
71	100
77	30
79	90
80	20
81	891
82	130
83	20
85	60
93	40
94	40
95	260
96	20
109	20
110	450
111	140
112	40
113	621
114	110
127	961
128	80
140	30
141	9999
142	711
143	40
158	190
159	220
169	50
170	70
183	50
211	80
212	30
225	40
226	40
268	20
