Mass Spectrum: 4-Cyanobenzoic acid, 2-adamantyl ester
Formula: C18 H19 N O2
Molecular weight: 281
Origin: Zaikin V.G., TIPS RAS, Moscow, Russia
m/z	RELATIVE INTENSITY
27	100
29	50
39	220
41	460
50	100
51	210
52	40
53	190
55	120
56	691
65	140
66	250
67	520
74	40
75	230
76	210
77	621
78	1001
79	1802
80	661
81	270
91	1451
92	6976
93	2012
94	140
101	40
102	1882
103	290
104	60
105	831
106	601
117	50
119	1051
120	100
130	2042
131	170
133	70
134	9999
147	180
151	50
281	300
282	30
