Mass Spectrum: 2,6-Difluorobenzoic acid, 3,5-difluorophenyl ester
Formula: C13 H6 F4 O2
Molecular weight: 270
Origin: Zaikin V.G., TIPS RAS, Moscow, Russia
m/z	RELATIVE INTENSITY
28	10
50	30
51	40
57	60
62	60
63	480
68	40
69	30
74	30
75	60
81	60
93	90
94	40
101	180
112	80
113	1241
114	100
129	40
130	50
140	40
141	9999
142	651
143	40
270	80
