Mass Spectrum: o-Toluic acid, hex-4-yn-3-yl ester
Formula: C14 H16 O2
Molecular weight: 216
Origin: Zaikin V.G., TIPS RAS, Moscow, Russia
m/z	RELATIVE INTENSITY
27	90
28	10
29	40
36	30
39	300
40	40
41	320
50	50
51	140
52	80
53	470
54	30
55	60
62	30
63	140
64	40
65	681
66	110
67	30
77	250
78	50
79	1531
80	661
81	851
82	60
89	190
90	230
91	1732
92	170
93	50
97	240
118	561
119	9999
120	801
121	50
128	50
129	60
135	190
136	440
137	160
142	30
143	220
144	40
146	30
155	30
157	50
159	80
160	30
169	40
171	150
183	50
187	200
188	480
189	50
201	190
216	100
