Mass Spectrum: 3-Trifluoromethylcinnamic acid, 5-fluoro-2-nitrophenyl ester
Formula: C16 H9 F4 N O4
Molecular weight: 355
Origin: Zaikin V.G., TIPS RAS, Moscow, Russia
m/z	RELATIVE INTENSITY
28	20
30	50
50	40
51	50
57	30
63	50
69	30
70	30
74	30
75	80
76	60
81	50
82	60
95	60
101	60
102	250
120	70
125	50
126	30
127	30
145	150
151	1381
152	170
169	130
170	140
171	1401
172	150
197	30
198	30
199	9999
200	901
201	60
215	100
216	130
306	20
336	190
337	30
