Mass Spectrum: 1-Bromo-3-fluoro-6-dimethyl-(isopropyl)-silyloxybenzene
Formula: C11 H16 Br F O Si
Molecular weight: 290
Origin: Zaikin V.G., TIPS RAS, Moscow, Russia
m/z	RELATIVE INTENSITY
27	30
28	20
39	50
41	60
43	190
45	130
47	100
57	40
58	90
59	270
63	130
73	280
74	40
75	90
77	150
79	40
81	40
82	70
83	80
85	60
89	40
91	120
94	120
95	110
101	40
107	270
108	50
109	971
110	90
111	130
123	260
124	180
125	130
137	2512
138	250
139	2682
140	210
141	170
143	60
151	60
153	440
154	70
155	30
165	90
166	70
167	1651
168	330
169	240
170	30
179	40
217	130
219	140
233	100
235	70
247	9779
248	1281
249	9999
250	1301
251	400
252	30
275	250
276	40
277	250
278	40
290	270
291	40
292	280
293	40
