Mass Spectrum: 2-Chlorobenzoic acid, cyclobutyl ester
Formula: C11 H11 Cl O2
Molecular weight: 210
Origin: Zaikin V.G., TIPS RAS, Moscow, Russia
m/z	RELATIVE INTENSITY
28	70
36	50
44	40
50	40
51	30
55	30
74	50
75	350
76	110
77	40
85	40
104	40
110	30
111	1281
112	120
113	420
114	30
139	9999
140	831
141	3113
142	260
147	170
154	200
156	170
157	40
158	30
175	60
182	170
184	50
