Mass Spectrum: 4-Butylbenzoic acid, 3-chloroprop-2-enyl ester
Formula: C14 H17 Cl O2
Molecular weight: 252
Origin: Zaikin V.G., TIPS RAS, Moscow, Russia
m/z	RELATIVE INTENSITY
28	10
36	30
39	40
41	60
51	30
57	30
63	30
65	70
68	50
69	40
75	270
77	160
78	40
79	50
89	140
90	250
91	721
92	120
103	90
104	50
105	100
107	60
115	140
116	30
117	90
118	180
119	50
125	290
127	100
128	30
129	50
131	120
133	110
135	260
136	120
151	60
159	80
160	40
161	9999
162	1091
163	80
165	40
174	30
178	70
189	60
195	60
211	30
217	1551
218	250
223	60
252	150
254	40
