Mass Spectrum: 5-Chlorovaleric acid, pent-2-en-4-ynyl ester
Formula: C10 H13 Cl O2
Molecular weight: 200
Origin: Zaikin V.G., TIPS RAS, Moscow, Russia
m/z	RELATIVE INTENSITY
26	140
27	921
28	20
29	961
36	220
37	60
38	310
39	2102
40	130
41	500
42	310
43	250
44	140
45	80
49	180
50	240
51	400
52	220
53	490
54	230
55	7367
56	410
57	110
58	40
59	70
60	70
61	40
62	170
63	971
64	591
65	3203
66	370
67	50
68	30
69	50
73	210
75	80
77	50
79	80
81	781
82	2342
83	400
84	30
89	30
91	7307
92	320
93	2212
94	100
95	60
99	60
100	70
101	40
105	50
109	440
110	30
118	30
119	9999
120	540
121	3073
122	170
123	160
133	30
137	30
200	180
202	60
