Mass Spectrum: 5-Bromovaleric acid, 2-methyloct-5-yn-4-yl ester
Formula: C14 H23 Br O2
Molecular weight: 302
Origin: Zaikin V.G., TIPS RAS, Moscow, Russia
m/z	RELATIVE INTENSITY
25	20
26	210
27	1812
28	20
29	2012
30	40
31	30
36	190
37	40
38	170
39	1832
40	390
41	3663
42	631
43	3223
44	550
45	110
49	20
50	170
51	470
52	360
53	1361
54	360
55	9999
56	901
57	1201
58	60
59	150
60	20
62	40
63	160
64	70
65	871
66	611
67	1351
68	510
69	1591
70	190
71	230
72	50
73	240
74	30
75	20
76	20
77	1912
78	530
79	5945
80	1842
81	3904
82	460
83	1802
84	290
85	510
86	30
89	20
91	2592
92	480
93	7857
94	1291
95	661
96	140
97	1992
98	4164
99	270
100	60
101	771
102	30
103	60
104	10
105	681
106	170
107	320
108	981
109	420
111	1912
112	300
113	20
119	50
121	440
122	2172
123	911
124	180
125	2012
126	140
135	4464
136	180
137	4314
138	190
139	1021
140	7016
141	741
142	40
149	40
151	40
153	30
162	70
163	5105
164	330
165	4954
166	220
167	1221
168	140
179	20
181	90
183	30
195	20
201	40
203	40
205	60
217	20
219	40
223	100
231	70
232	30
233	80
234	20
245	100
246	80
247	110
248	70
249	20
259	2532
260	410
261	2512
262	380
263	20
273	40
275	40
287	150
289	150
302	50
304	90
