Mass Spectrum: 3-Trifluoromethylcinnamic acid, 2-methylphenyl ester
Formula: C17 H13 F3 O2
Molecular weight: 306
Origin: Zaikin V.G., TIPS RAS, Moscow, Russia
m/z	RELATIVE INTENSITY
28	20
39	50
50	40
51	80
52	30
53	30
63	30
75	70
76	30
77	190
78	60
79	50
91	30
95	50
101	50
102	230
107	140
108	90
120	50
125	40
145	130
151	1241
152	160
169	90
170	100
171	1291
172	140
199	9999
200	861
201	50
215	70
216	90
287	170
288	30
306	230
307	40
