Mass Spectrum: trans-(3-Trifluoromethyl)cinnamic acid, cyclobutyl ester
Formula: C14 H13 F3 O2
Molecular weight: 270
Origin: Zaikin V.G., TIPS RAS, Moscow, Russia
m/z	RELATIVE INTENSITY
27	10
28	260
32	60
36	20
39	10
41	10
44	20
50	10
51	20
53	10
55	30
63	10
69	10
74	10
75	50
76	30
77	10
83	10
90	20
91	10
95	40
99	10
101	40
102	170
103	20
119	10
120	40
121	10
125	40
126	20
131	10
145	130
146	10
147	10
151	1071
152	140
153	10
159	10
169	100
170	110
171	1251
172	150
173	10
197	40
198	30
199	9999
200	991
201	70
214	120
215	110
216	110
217	10
242	270
243	40
250	10
251	250
252	40
270	10
