Mass Spectrum: o-Methoxybenzoic acid, octyl ester
Formula: C16 H24 O3
Molecular weight: 264
Origin: Zaikin V.G., TIPS RAS, Moscow, Russia
m/z	RELATIVE INTENSITY
26	20
27	120
29	220
38	30
39	140
40	20
41	440
42	110
43	330
44	40
50	60
51	130
52	20
53	50
54	20
55	270
56	120
57	150
62	10
63	110
64	140
65	90
66	10
67	40
68	20
69	130
70	80
71	70
74	20
75	20
76	110
77	1241
78	160
79	230
80	10
81	30
82	10
83	40
84	30
90	20
91	20
92	571
93	80
94	30
95	10
104	40
105	821
106	200
107	130
108	60
109	10
112	10
118	20
119	30
120	190
121	210
122	100
123	2112
124	160
125	10
133	651
134	390
135	9999
136	751
137	70
138	10
151	200
152	2622
153	2933
154	250
155	20
165	20
179	10
180	40
221	30
264	801
265	150
266	10
