Mass Spectrum: m-Methoxybenzoic acid, octyl ester
Formula: C16 H24 O3
Molecular weight: 264
Origin: Zaikin V.G., TIPS RAS, Moscow, Russia
m/z	RELATIVE INTENSITY
26	10
27	60
29	130
38	10
39	80
40	10
41	300
42	90
43	210
44	20
50	30
51	30
53	30
54	20
55	250
56	140
57	70
62	10
63	90
64	150
65	60
66	10
67	30
68	30
69	180
70	100
71	20
74	10
75	20
76	80
77	550
78	80
79	50
81	40
82	20
83	70
84	60
91	10
92	460
93	50
94	30
95	10
97	10
104	20
105	70
106	20
107	801
108	180
109	240
110	20
119	10
120	10
121	50
122	40
123	10
133	10
135	3613
136	440
137	50
138	40
150	10
151	50
152	9999
153	1992
154	210
155	10
165	80
166	10
264	1651
265	290
266	30
