Mass Spectrum: 5-Chlorovaleric acid, 3-chloroprop-2-enyl ester
Formula: C8 H12 Cl2 O2
Molecular weight: 210
Origin: Zaikin V.G., TIPS RAS, Moscow, Russia
m/z	RELATIVE INTENSITY
26	60
27	350
28	20
29	410
36	160
38	100
39	761
40	60
41	290
42	210
43	270
44	90
49	390
51	150
53	140
54	80
55	3523
56	500
57	260
58	50
59	60
60	50
61	70
62	100
63	270
64	40
65	80
67	30
68	30
69	30
71	70
73	150
74	90
75	3373
76	180
77	1071
78	50
79	70
82	30
83	210
84	60
89	90
90	30
91	3823
92	190
93	1241
94	60
99	270
100	120
101	40
114	40
117	30
118	50
119	9999
120	561
121	3013
122	180
135	30
139	50
147	30
175	1892
176	170
177	631
178	50
210	60
212	30
