Mass Spectrum: p-Toluic acid, 2-chlorophenyl ester
Formula: C14 H11 Cl O2
Molecular weight: 246
Origin: Zaikin V.G., TIPS RAS, Moscow, Russia
m/z	RELATIVE INTENSITY
28	10
38	30
39	170
41	50
50	50
51	70
62	50
63	210
64	90
65	591
66	30
73	80
75	50
89	190
90	130
91	2152
92	170
99	120
101	40
118	50
119	9999
120	721
121	40
127	30
128	70
246	110
248	30
