Mass Spectrum: m-Toluic acid, cyclobutyl ester
Formula: C12 H14 O2
Molecular weight: 190
Origin: Zaikin V.G., TIPS RAS, Moscow, Russia
m/z	RELATIVE INTENSITY
26	30
27	120
28	20
29	50
39	210
41	80
50	40
51	70
53	40
55	90
62	30
63	120
64	40
65	540
66	30
89	180
90	120
91	2382
92	190
118	30
119	9999
120	651
121	30
134	90
135	40
136	90
162	671
163	70
172	30
190	20
