Mass Spectrum: Phenylacetic acid, 2,6-dimethylnon-1-en-3-yn-5-yl ester
Formula: C19 H24 O2
Molecular weight: 284
Origin: Zaikin V.G., TIPS RAS, Moscow, Russia
m/z	RELATIVE INTENSITY
26	30
27	110
28	40
29	100
36	210
38	60
39	250
40	40
41	400
42	40
43	350
44	220
50	60
51	150
52	70
53	130
55	280
57	80
62	40
63	170
64	60
65	651
66	90
67	140
69	430
70	50
71	130
77	711
78	190
79	621
80	70
81	260
82	150
83	170
89	310
90	350
91	9999
92	1111
93	951
94	140
95	591
96	130
97	50
99	20
103	110
104	60
105	691
106	490
107	991
108	130
109	881
110	110
111	130
115	70
117	110
118	981
119	1421
120	280
121	260
122	50
123	781
124	3533
125	380
128	30
129	50
131	40
133	871
134	130
135	50
136	500
137	520
138	80
141	40
143	30
147	80
148	1361
149	240
150	30
151	530
152	70
153	30
155	70
157	30
161	50
165	450
166	1541
167	210
168	40
169	60
171	30
175	30
185	100
186	50
193	621
194	80
199	30
201	70
210	70
213	140
214	80
241	1802
242	340
243	30
255	30
269	260
270	50
284	370
285	80
