Mass Spectrum: 2,6-Difluorobenzoic acid, tridec-2-ynyl ester
Formula: C20 H26 F2 O2
Molecular weight: 336
Origin: Zaikin V.G., TIPS RAS, Moscow, Russia
m/z	RELATIVE INTENSITY
27	60
29	140
39	80
41	320
42	50
43	430
51	30
52	110
53	110
54	80
55	290
56	70
57	110
63	90
65	60
66	80
67	230
68	50
69	140
70	30
71	20
77	130
78	50
79	380
80	110
81	210
82	60
83	70
91	140
93	250
94	150
95	190
96	50
97	40
105	30
107	100
108	100
109	60
111	40
113	270
114	60
121	140
122	40
135	120
136	40
141	9999
142	761
143	40
149	50
151	40
158	50
159	290
169	30
177	60
178	40
181	60
195	90
210	70
