Mass Spectrum: 3-Cyclopentylpropionic acid, tetradecyl ester
Formula: C22 H42 O2
Molecular weight: 338
Origin: Zaikin V.G., TIPS RAS, Moscow, Russia
m/z	RELATIVE INTENSITY
26	80
27	280
28	10
29	571
36	30
39	350
40	90
41	1852
42	510
43	2272
44	150
51	30
53	200
54	450
55	3523
56	1381
57	2803
58	140
59	30
60	240
61	581
65	50
66	90
67	1041
68	851
69	2512
70	1511
71	1631
72	100
73	1171
74	190
75	40
77	50
79	480
80	330
81	1081
82	1621
83	4514
84	1301
85	1131
86	70
87	40
91	30
93	40
94	40
95	540
96	911
97	2943
98	931
99	310
100	140
101	100
105	40
106	70
107	951
108	90
109	80
110	280
111	1331
112	651
113	220
114	190
115	70
116	290
122	100
123	360
124	631
125	3333
126	671
127	170
129	40
130	50
138	90
139	250
140	320
141	340
142	651
143	9999
144	811
145	70
152	40
153	130
154	170
155	70
166	30
167	70
168	751
169	130
183	50
194	30
196	1411
197	430
198	80
241	390
242	60
256	130
257	70
269	520
270	100
338	30
