Mass Spectrum: 2- Bromopropionic acid, pentadecyl ester
Formula: C18 H35 Br O2
Molecular weight: 362
Origin: Zaikin V.G., TIPS RAS, Moscow, Russia
m/z	RELATIVE INTENSITY
25	30
26	320
27	1641
28	10
29	2512
30	70
31	90
35	30
36	190
37	40
38	140
39	941
40	240
41	6256
42	2002
43	9368
44	380
45	160
50	30
51	50
52	40
53	420
54	1191
55	8938
56	5825
57	9999
58	400
65	60
66	120
67	1441
68	2022
69	6376
70	3713
71	4054
72	240
73	360
74	4024
75	1431
76	50
77	70
79	230
80	510
81	761
82	2542
83	5715
84	2092
85	2052
86	130
87	30
91	40
93	30
94	30
95	430
96	1151
97	3984
98	1081
99	360
100	40
107	591
108	60
109	661
110	460
111	1782
112	621
113	210
114	30
123	120
124	250
125	741
126	320
127	140
130	40
133	30
135	260
136	20
137	280
138	150
139	270
140	170
141	50
151	40
152	100
153	460
154	120
155	390
166	40
167	40
168	40
169	30
180	60
182	250
183	30
208	190
209	70
210	180
211	30
255	60
