Mass Spectrum: 5-Chlorovaleric acid, hexadecyl ester
Formula: C21 H41 Cl O2
Molecular weight: 360
Origin: Zaikin V.G., TIPS RAS, Moscow, Russia
m/z	RELATIVE INTENSITY
26	100
27	490
28	10
29	1031
36	160
38	70
39	460
40	100
41	2672
42	911
43	4114
44	170
45	60
49	30
51	40
53	250
54	731
55	6466
56	2442
57	4254
58	230
59	140
60	50
62	30
63	110
65	60
66	60
67	831
68	1141
69	3593
70	2312
71	2282
72	130
73	380
74	30
77	30
79	70
80	40
81	550
82	1782
83	4844
84	1792
85	1481
86	90
87	90
91	1531
92	70
93	510
94	30
95	310
96	831
97	3733
98	1221
99	400
100	400
101	1802
102	100
103	60
109	120
110	380
111	2082
112	851
113	210
115	30
116	80
118	80
119	2833
120	180
121	951
122	60
123	50
124	230
125	1031
126	571
127	120
134	40
135	60
136	1682
137	9999
138	1231
139	3543
140	571
141	110
147	40
152	90
153	190
154	280
155	70
157	70
163	30
166	50
167	110
168	200
169	40
174	30
177	50
180	30
181	60
182	110
183	40
192	260
193	30
194	100
195	40
196	681
197	130
222	40
224	751
225	160
269	440
270	70
325	120
