Mass Spectrum: m-Methoxybenzoic acid, 5-fluoro-2-nitrophenyl ester
Formula: C14 H10 F N O5
Molecular weight: 291
Origin: Zaikin V.G., TIPS RAS, Moscow, Russia
m/z	RELATIVE INTENSITY
28	10
30	30
50	50
51	40
63	170
64	240
65	30
75	30
76	120
77	731
78	60
79	40
81	50
82	50
92	661
93	50
107	1401
108	120
127	30
135	9999
136	731
137	70
152	140
157	30
243	40
291	500
292	80
