Mass Spectrum: 1-Chloro-2-diisopropyl-silyloxybenzene
Formula: C12 H19 Cl O Si
Molecular weight: 242
Origin: Zaikin V.G., TIPS RAS, Moscow, Russia
m/z	RELATIVE INTENSITY
27	60
28	20
36	50
39	90
41	130
42	30
43	150
44	30
45	110
50	50
51	80
59	120
61	60
63	691
64	80
65	350
67	30
71	50
73	30
75	90
76	60
77	520
78	80
79	951
80	60
81	390
85	50
91	360
92	80
93	160
95	100
103	70
105	100
107	470
108	40
109	160
112	50
115	100
117	50
121	1371
122	150
123	60
128	30
135	1381
136	180
137	110
143	190
145	80
147	70
149	50
155	711
156	150
157	781
158	110
159	200
161	50
163	150
169	130
171	4144
172	520
173	1431
174	170
175	50
183	60
185	50
197	30
198	20
199	9999
200	1321
201	3353
202	460
203	130
229	40
242	480
243	90
244	180
