Mass Spectrum: 4-Butylbenzoic acid, undec-2-enyl ester
Formula: C22 H34 O2
Molecular weight: 330
Origin: Zaikin V.G., TIPS RAS, Moscow, Russia
m/z	RELATIVE INTENSITY
27	50
29	90
39	60
41	240
42	30
43	180
53	40
54	210
55	290
56	40
57	100
65	40
67	180
68	140
69	140
77	50
79	50
81	170
82	150
83	80
89	40
90	130
91	450
92	90
95	120
96	110
97	50
103	30
104	30
105	70
107	60
109	60
110	50
117	40
118	110
119	40
123	30
124	100
131	70
133	50
135	180
136	120
152	110
161	9999
162	1001
163	80
178	130
179	260
180	30
231	120
232	40
245	30
259	90
273	70
287	70
301	70
330	30
