Mass Spectrum: 5-Chlorovaleric acid, 2,7-dimethylocty-7-en-5-yn-4-yl ester
Formula: C15 H23 Cl O2
Molecular weight: 270
Origin: Zaikin V.G., TIPS RAS, Moscow, Russia
m/z	RELATIVE INTENSITY
26	70
27	681
28	280
29	721
36	130
38	80
39	711
40	150
41	1471
42	210
43	1321
44	130
45	30
49	70
50	100
51	340
52	170
53	460
54	90
55	4204
56	270
57	240
58	30
60	40
62	60
63	290
64	110
65	510
66	220
67	500
68	150
69	240
70	50
73	130
74	30
75	50
76	40
77	1251
78	310
79	981
80	160
81	1081
82	120
83	260
84	80
85	70
89	70
90	70
91	5225
92	1061
93	1571
94	220
95	1531
96	490
97	220
100	30
103	180
104	110
105	731
106	170
107	520
108	250
109	4044
110	2362
111	210
115	80
117	260
118	60
119	5475
120	530
121	1001
122	50
123	300
124	50
133	350
134	561
135	220
136	100
137	1021
138	100
151	480
152	1371
153	170
161	30
163	50
179	320
180	40
185	50
193	50
199	30
201	30
213	120
214	70
215	50
227	9999
228	1171
229	3063
230	380
231	30
235	30
255	30
270	430
271	70
272	140
