Mass Spectrum: m-Methoxybenzoic acid, 2-isopropoxyphenyl ester
Formula: C17 H18 O4
Molecular weight: 286
Origin: Zaikin V.G., TIPS RAS, Moscow, Russia
m/z	RELATIVE INTENSITY
27	30
28	10
39	30
41	50
43	50
51	30
52	40
63	70
64	130
65	30
76	70
77	480
78	40
80	30
81	80
92	410
93	40
107	911
108	80
109	100
110	70
121	40
135	9999
136	721
137	60
152	30
244	60
286	861
287	160
