Mass Spectrum: 4-Cyanobenzoic acid, 3,5-difluorophenyl ester
Formula: C14 H7 F2 N O2
Molecular weight: 259
Origin: Zaikin V.G., TIPS RAS, Moscow, Russia
m/z	RELATIVE INTENSITY
27	50
28	40
36	30
38	30
39	40
44	40
50	250
51	440
52	70
57	70
62	30
63	110
74	110
75	691
76	400
77	30
81	60
82	40
99	50
100	40
101	440
102	3143
103	280
113	40
129	90
130	9999
131	851
132	50
147	240
151	60
259	200
