Mass Spectrum: p-Toluic acid, 2-bromo-4-fluorophenyl ester
Formula: C14 H10 Br F O2
Molecular weight: 308
Origin: Zaikin V.G., TIPS RAS, Moscow, Russia
m/z	RELATIVE INTENSITY
28	40
39	110
41	40
50	40
51	60
57	30
62	40
63	150
64	40
65	520
66	30
81	60
82	90
89	200
90	140
91	2062
92	160
118	40
119	9999
120	741
121	40
161	80
163	80
189	30
190	60
191	30
192	60
308	30
310	30
