Mass Spectrum: 2- Bromopropionic acid, tridecyl ester
Formula: C16 H31 Br O2
Molecular weight: 334
Origin: Zaikin V.G., TIPS RAS, Moscow, Russia
m/z	RELATIVE INTENSITY
26	250
27	1471
28	30
29	2192
30	60
31	90
35	40
36	280
37	30
38	130
39	821
40	200
41	5475
42	1922
43	8037
44	370
45	130
50	30
51	50
52	40
53	410
54	1071
55	8558
56	6526
57	9999
58	460
65	60
66	110
67	1471
68	2332
69	7557
70	5335
71	4794
72	300
73	380
74	3994
75	1191
76	50
77	60
79	150
80	230
81	831
82	3543
83	8107
84	3663
85	3013
86	210
87	40
91	30
93	30
94	30
95	480
96	1661
97	6776
98	2452
99	691
100	80
101	30
106	40
107	2012
108	150
109	2032
110	811
111	4064
112	1661
113	370
114	40
123	220
124	520
125	2082
126	961
127	240
128	30
130	40
134	60
135	1161
136	100
137	1171
138	280
139	480
140	430
141	90
148	40
150	40
151	80
152	310
153	2492
154	2072
155	2472
156	80
165	40
179	40
180	651
181	300
182	1661
183	260
191	30
193	70
195	30
199	50
227	530
228	70
232	50
234	50
263	30
305	40
307	30
