Mass Spectrum: 4-Butylbenzoic acid, tridecyl ester
Formula: C24 H40 O2
Molecular weight: 360
Origin: Zaikin V.G., TIPS RAS, Moscow, Russia
m/z	RELATIVE INTENSITY
27	80
28	50
29	140
39	80
41	420
42	100
43	460
53	30
54	70
55	581
56	240
57	410
65	50
67	120
68	120
69	450
70	240
71	120
77	90
78	30
79	60
81	60
82	120
83	350
84	160
85	60
89	70
90	230
91	911
92	550
93	60
95	30
96	60
97	250
98	100
103	70
104	50
105	140
107	110
111	120
112	60
115	40
117	40
118	200
119	180
123	140
125	50
126	30
131	120
133	230
134	30
135	641
136	2833
137	330
138	30
148	30
149	80
154	40
159	30
161	3463
162	380
163	50
176	30
177	40
178	5795
179	9999
180	931
181	80
182	90
191	50
343	30
360	70
