Mass Spectrum: p-Toluic acid, nonyl ester
Formula: C17 H26 O2
Molecular weight: 262
Origin: Zaikin V.G., TIPS RAS, Moscow, Russia
m/z	RELATIVE INTENSITY
27	90
28	60
29	170
39	170
40	30
41	510
42	160
43	380
44	30
51	50
53	50
54	70
55	561
56	490
57	170
63	90
64	30
65	530
66	30
67	100
68	130
69	420
70	430
71	80
77	80
81	30
82	90
83	280
84	260
85	40
89	200
90	200
91	2622
92	380
93	380
94	20
96	40
97	280
98	200
105	50
107	60
118	80
119	7817
120	691
121	70
126	250
135	50
136	7837
137	9999
138	821
139	70
149	70
177	40
245	30
262	70
