Mass Spectrum: 3-Trifluoromethylcinnamic acid, 2-chlorophenyl ester
Formula: C16 H10 Cl F3 O2
Molecular weight: 326
Origin: Zaikin V.G., TIPS RAS, Moscow, Russia
m/z	RELATIVE INTENSITY
28	10
39	40
50	40
51	40
63	90
64	50
73	70
74	30
75	120
76	40
95	60
99	160
101	100
102	270
120	60
125	50
126	30
127	50
128	90
130	30
145	160
151	1361
152	170
169	120
170	110
171	1361
172	140
199	9999
200	901
201	60
215	70
216	90
307	140
309	40
326	50
