Mass Spectrum: 4-Ethylbenzoic acid, hex-4-yn-3-yl ester
Formula: C15 H18 O2
Molecular weight: 230
Origin: Zaikin V.G., TIPS RAS, Moscow, Russia
m/z	RELATIVE INTENSITY
27	140
28	20
29	60
36	30
39	210
40	40
41	250
43	30
50	60
51	150
52	80
53	350
55	40
63	70
65	140
66	60
76	30
77	571
78	130
79	1641
80	571
81	350
89	100
90	110
91	100
93	30
97	210
102	30
103	290
104	110
105	661
106	60
107	50
129	20
131	40
132	20
133	9999
134	831
135	230
150	100
151	220
157	60
160	80
173	30
201	190
202	390
203	40
215	230
216	30
230	150
