Mass Spectrum: o-Methoxybenzoic acid, 2-isopropoxyphenyl ester
Formula: C17 H18 O4
Molecular weight: 286
Origin: Zaikin V.G., TIPS RAS, Moscow, Russia
m/z	RELATIVE INTENSITY
28	10
39	30
41	40
43	40
51	60
52	50
63	50
64	80
65	30
76	50
77	711
78	60
79	50
81	90
92	390
93	40
105	60
109	110
110	60
120	90
121	60
135	9999
136	771
137	60
286	290
287	50
