Mass Spectrum: 3-Bromobenzoic acid, 2-methylphenyl ester
Formula: C14 H11 Br O2
Molecular weight: 290
Origin: Zaikin V.G., TIPS RAS, Moscow, Russia
m/z	RELATIVE INTENSITY
27	60
28	10
38	40
39	150
50	480
51	240
52	120
53	90
63	70
65	120
74	180
75	761
76	1111
77	641
78	250
79	130
89	40
90	40
91	80
104	220
105	50
107	250
108	120
155	1932
156	150
157	1892
158	130
183	9999
184	661
185	9589
186	621
187	30
200	90
202	90
290	811
291	120
292	801
293	120
