Mass Spectrum: 4-Ethylbenzoic acid, oct-3-en-2-yl ester
Formula: C17 H24 O2
Molecular weight: 260
Origin: Zaikin V.G., TIPS RAS, Moscow, Russia
m/z	RELATIVE INTENSITY
27	70
29	50
39	80
41	240
43	100
51	50
53	110
54	80
55	771
56	40
57	30
65	50
67	210
68	601
69	791
70	40
71	90
77	270
78	60
79	360
80	30
81	420
82	50
89	50
90	60
91	90
95	120
103	200
104	70
105	510
106	50
107	40
110	130
111	100
127	450
128	40
131	60
133	9999
134	831
135	200
149	30
150	130
151	220
159	30
175	40
217	140
218	30
260	50
