Mass Spectrum: trans-(3-Trifluoromethyl)cinnamic acid, 2-adamantyl ester
Formula: C20 H21 F3 O2
Molecular weight: 350
Origin: Zaikin V.G., TIPS RAS, Moscow, Russia
m/z	RELATIVE INTENSITY
26	50
27	100
28	440
29	90
31	10
32	90
36	10
37	10
38	30
39	260
40	50
41	571
42	50
43	70
44	80
45	30
49	10
50	150
51	190
52	60
53	220
54	80
55	420
56	871
57	170
60	10
61	10
62	40
63	100
64	10
65	150
66	250
67	881
68	90
69	150
70	50
71	50
72	10
73	10
74	110
75	260
76	150
77	651
78	1031
79	1952
80	681
81	711
82	60
83	50
84	10
85	20
86	10
87	20
88	10
89	20
90	40
91	1742
92	7257
93	2362
94	220
95	290
96	60
97	20
98	30
99	70
100	30
101	170
102	641
103	150
104	50
105	951
106	621
107	280
108	40
109	90
110	20
111	20
114	10
115	30
116	10
117	80
118	40
119	1231
120	300
121	80
122	30
123	60
124	10
125	130
126	80
127	80
128	20
129	10
131	80
132	30
133	270
134	9999
135	1611
136	130
137	20
138	20
139	10
140	40
141	10
143	20
144	40
145	400
146	90
147	260
148	30
149	40
150	150
151	3353
152	430
153	40
158	10
159	210
160	30
161	10
162	10
165	10
167	50
168	70
169	350
170	601
171	2522
172	550
173	100
174	10
175	70
177	10
178	20
179	30
180	30
181	10
183	10
185	20
186	10
187	20
188	100
189	10
191	20
195	20
196	20
197	460
198	220
199	6166
200	691
201	40
206	10
211	10
214	10
215	1431
216	1762
217	290
218	30
223	10
225	10
235	20
237	10
247	10
248	10
249	20
257	10
269	10
273	10
281	70
282	10
290	140
291	50
297	10
304	941
305	1251
306	270
307	30
322	1031
323	220
324	20
330	290
331	1001
332	270
333	30
337	10
338	40
349	10
350	1471
351	320
352	30
