Mass Spectrum: 1,3-Difluoro-5-diisopropyl-silyloxybenzene
Formula: C12 H18 F2 O Si
Molecular weight: 244
Origin: Zaikin V.G., TIPS RAS, Moscow, Russia
m/z	RELATIVE INTENSITY
27	110
28	10
39	280
41	170
42	30
43	240
44	40
45	260
47	80
53	60
55	30
57	40
59	100
61	50
62	40
63	430
64	30
65	40
67	40
71	70
73	30
75	70
77	140
79	160
81	751
82	60
83	70
86	30
87	40
91	120
93	170
94	90
95	60
101	30
105	40
110	30
113	530
114	250
115	170
117	40
119	30
125	40
130	60
133	30
139	30
157	1722
158	190
159	480
160	290
161	40
171	70
172	50
173	9999
174	1071
175	340
185	150
187	160
199	150
200	270
201	2002
202	540
203	110
244	2402
245	390
246	100
