Mass Spectrum: 4-Butylbenzoic acid, dodec-9-ynyl ester
Formula: C23 H34 O2
Molecular weight: 342
Origin: Zaikin V.G., TIPS RAS, Moscow, Russia
m/z	RELATIVE INTENSITY
26	30
27	110
28	20
29	70
36	70
39	180
40	80
41	430
42	60
43	200
44	160
50	60
51	110
52	40
53	130
54	110
55	571
56	70
57	180
63	100
64	30
65	230
66	150
67	841
68	1261
69	260
70	30
73	30
75	30
76	40
77	490
78	180
79	981
80	400
81	631
82	1151
83	210
89	260
90	571
91	2402
92	1021
93	971
94	400
95	490
96	440
97	290
102	50
103	240
104	150
105	440
106	70
107	1051
108	380
109	230
110	80
115	170
116	70
117	160
118	450
119	270
120	50
121	741
122	380
123	320
124	30
125	40
127	30
128	80
129	140
130	30
131	350
132	60
133	330
134	90
135	2762
136	2302
137	230
141	20
142	40
143	50
145	50
147	40
148	60
149	290
150	50
157	60
159	110
160	100
161	9999
162	1321
163	150
164	651
165	100
171	20
176	60
177	90
178	1651
179	7056
180	921
181	100
191	40
261	260
262	50
275	671
276	140
277	30
285	60
342	50
