Mass Spectrum: 8-Methyl-6-nonenamide
Formula: C10 H19 N O
Molecular weight: 169
Origin: D.Henderson ET AL.J.Agric.Food Chem.,40,2263(1992)
m/z	RELATIVE INTENSITY
38	300
39	5895
40	1221
41	8358
42	2432
43	4674
44	8147
45	641
46	210
50	360
51	1071
52	631
53	3763
54	1461
55	7977
56	2582
57	2082
58	310
59	9999
60	1712
61	160
63	280
65	1221
66	581
67	5035
68	1261
69	5195
70	831
71	380
72	8448
73	2873
74	180
77	1101
78	270
79	1651
80	360
81	1762
82	751
83	831
84	751
85	410
86	1141
87	230
91	440
93	831
94	230
95	1992
96	480
97	561
98	1291
99	300
100	1461
101	230
108	1021
109	921
110	400
111	270
112	510
113	921
114	1111
123	340
124	150
126	1271
127	170
136	150
137	941
138	150
152	550
154	240
169	380
