Mass Spectrum: 18-Norabietane
Formula: C19 H34
Molecular weight: 262
Origin: P.-A.Hynning ET AL.J.Chrom.,643,439(1993)
m/z	RELATIVE INTENSITY
53	591
54	330
55	5065
56	460
57	1021
58	150
63	80
65	250
66	200
67	4784
68	1982
69	4734
71	430
72	310
77	410
78	150
79	1832
80	661
81	6626
82	5375
83	2422
84	230
85	150
91	711
92	310
93	1631
94	791
95	6646
96	2652
97	2042
98	200
100	100
105	430
106	200
107	1551
108	641
109	9999
110	2983
111	811
112	80
115	100
116	30
117	150
118	80
119	280
120	130
121	1481
122	360
123	2672
124	1021
125	530
126	130
128	100
129	100
130	80
131	150
132	80
133	150
134	150
135	1251
136	460
137	1071
138	280
139	180
141	100
142	100
143	100
144	130
145	100
146	100
147	180
148	100
149	661
150	310
151	280
152	180
153	130
155	50
157	80
158	30
159	80
161	80
162	80
163	1862
164	380
165	280
166	80
171	100
172	30
173	80
176	80
177	200
178	230
179	50
185	30
187	100
189	50
190	150
191	2392
192	530
204	100
206	100
218	150
219	791
220	310
245	330
246	150
247	1682
248	410
253	150
254	150
255	430
256	230
257	100
262	4174
263	891
