Mass Spectrum: 2E,4E-Hexadiene, adduct with 4-methyl-1,2,4-triazolin-3,5-dione
Formula: C9 H13 N3 O2
Molecular weight: 195
Origin: D.Young ET AL.J.Chrom.,522,295(1990)
m/z	RELATIVE INTENSITY
40	380
41	1381
42	561
44	50
45	30
46	30
47	40
48	50
49	50
50	80
51	160
52	220
53	1421
54	591
55	260
56	380
57	60
58	160
60	50
61	30
62	50
63	50
64	50
65	260
66	210
67	3623
68	380
69	160
70	540
73	50
74	70
75	50
76	50
77	130
78	110
79	310
80	1742
81	921
82	3954
83	561
84	120
87	40
89	50
90	200
91	50
93	60
94	280
95	941
96	931
97	200
98	100
99	50
100	40
101	50
103	40
105	50
106	50
108	130
109	100
110	80
111	50
112	70
115	50
116	70
117	40
118	40
119	30
120	30
121	70
122	70
123	8778
124	661
125	90
126	40
127	40
128	80
129	50
131	50
132	30
135	60
136	30
137	200
138	90
139	30
142	30
145	50
147	20
148	20
150	260
151	50
155	50
159	40
160	30
162	40
164	70
165	160
166	60
167	70
168	40
170	50
172	50
173	40
174	40
175	40
176	30
177	30
178	50
179	30
180	9999
181	991
182	90
183	50
184	30
186	40
187	40
188	30
190	30
191	30
192	40
193	40
194	90
195	7437
196	851
197	110
198	40
