Mass Spectrum: (Z,Z)-.alpha.-Farnesene
Formula: C15 H24
Molecular weight: 204
Origin: Flavors and Fragrances (Eds.B.Lawrence ET AL.),1986
m/z	RELATIVE INTENSITY
27	2402
29	2202
39	3093
40	1051
41	9999
42	571
43	1631
50	200
51	631
52	530
53	2222
54	480
55	4374
64	250
65	991
66	400
67	1411
69	4914
77	3043
78	701
79	3593
80	1581
81	1832
89	120
91	3853
92	1571
93	7206
103	300
105	2893
106	721
107	2692
115	300
116	140
117	350
119	4964
120	911
121	941
122	360
123	410
131	140
133	1141
134	571
147	360
148	260
161	631
189	310
204	230
