Mass Spectrum: .alpha.-Bourbonene
Formula: C15 H24
Molecular weight: 204
Origin: Flavors and Fragrances (Eds.B.Lawrence ET AL.),1986
m/z	RELATIVE INTENSITY
28	1551
29	8928
31	1321
39	1792
40	741
41	3333
42	420
43	1541
51	561
52	470
53	1491
55	1391
57	801
65	751
67	1241
69	701
77	2262
78	701
79	3693
80	7497
81	9999
82	931
91	2192
92	711
93	971
95	540
105	1852
106	540
107	741
119	1001
120	691
121	611
123	3924
124	460
161	2412
162	500
