Mass Spectrum: (E,Z)-.alpha.-Farnesene
Formula: C15 H24
Molecular weight: 204
Origin: Flavors and Fragrances (Eds.B.Lawrence ET AL.),1986
m/z	RELATIVE INTENSITY
29	1792
39	3233
41	9999
42	561
43	1591
51	621
52	350
53	2262
55	3213
63	240
65	931
66	370
67	1772
69	4724
70	350
75	50
77	2542
78	681
79	3523
81	1511
92	3553
93	6986
103	210
105	2422
106	661
107	2672
108	821
115	200
116	80
117	240
119	2512
121	881
123	290
131	70
133	1001
134	621
145	40
147	360
161	681
175	100
177	70
189	240
204	510
