Mass Spectrum: 4-((1E)-3-Hydroxy-1-propenyl)-2-methoxyphenol
Formula: C10 H12 O3
Molecular weight: 180
Origin: HD Science, UK
m/z	RELATIVE INTENSITY
15	941
27	1031
29	1361
31	801
38	380
39	1812
41	510
43	581
50	1201
51	2002
52	941
53	1551
54	370
55	1972
57	150
61	240
62	601
63	1301
64	470
65	2142
66	370
67	400
69	150
73	150
74	370
75	320
77	2913
78	871
79	1401
80	320
81	671
87	160
89	1201
91	3954
92	661
93	420
94	611
95	200
102	280
103	2082
104	490
105	891
106	280
107	1301
108	420
109	1812
110	170
115	200
116	130
117	380
118	571
119	2863
120	701
121	320
122	1081
124	5915
125	510
130	90
131	1651
132	370
133	350
134	280
135	821
137	9999
138	1081
139	110
141	50
145	240
146	290
147	1291
148	170
149	450
150	220
151	510
152	781
161	400
162	340
163	561
164	410
165	160
180	6896
181	731
