Mass Spectrum: Boldenone, TMS derivative
Formula: C22 H34 O2 Si
Molecular weight: 358
Origin: HD Science, UK
m/z	RELATIVE INTENSITY
27	80
29	150
31	20
39	200
40	40
41	680
42	60
43	330
44	120
45	730
46	50
47	200
50	20
51	100
52	70
53	370
54	70
55	850
56	40
57	60
58	70
59	480
60	70
61	250
62	20
63	50
65	360
66	100
67	730
68	210
69	190
70	30
71	50
73	6059
74	580
75	2140
76	180
77	1100
78	280
79	1290
80	200
81	650
82	70
83	70
84	10
85	120
86	20
87	50
88	10
89	120
91	3280
92	780
93	1490
94	280
95	470
96	50
97	70
98	20
99	80
101	690
102	110
103	430
104	190
105	2050
106	390
107	920
108	1240
109	1750
110	240
111	50
112	20
113	60
115	880
116	390
117	750
118	200
119	1370
120	530
121	3130
122	9999
123	1090
124	90
125	20
126	20
127	180
128	380
129	2480
130	510
131	910
132	450
133	1980
134	1760
135	830
136	690
137	110
138	20
139	20
141	230
142	150
143	350
144	480
145	1110
146	800
147	5189
148	780
149	140
150	30
151	60
152	70
153	100
154	60
155	270
156	140
157	360
158	340
159	730
160	780
161	580
162	90
163	140
164	30
165	200
166	60
167	140
168	110
169	850
170	190
171	380
172	310
173	640
174	270
175	120
176	40
177	110
178	80
179	520
180	170
181	310
182	710
183	350
184	130
185	270
186	220
187	130
188	160
189	60
190	20
191	140
192	90
193	780
194	1400
195	1410
196	340
197	240
198	160
199	310
200	110
201	60
202	20
203	60
204	20
205	300
206	170
207	190
208	80
209	220
210	90
211	230
212	130
213	190
214	90
215	40
216	10
217	40
218	20
219	180
220	60
221	200
222	110
223	670
224	240
225	390
226	190
227	710
228	140
229	90
230	20
231	60
232	20
233	60
234	20
235	130
236	110
237	980
238	220
239	230
240	210
241	70
242	200
243	50
244	10
245	40
246	20
247	50
248	20
249	40
250	140
251	210
252	60
253	470
254	90
255	30
256	30
257	20
259	20
260	10
261	20
263	10
265	10
267	100
268	1350
269	300
270	40
271	30
273	20
283	20
284	10
285	40
286	20
287	20
301	20
302	30
303	10
315	40
316	10
317	10
325	20
327	10
329	20
330	40
341	20
343	680
344	190
345	50
357	50
358	1130
359	340
360	90
361	10
