Mass Spectrum: Dihydrotestosterone, O,O'-bis(trimethylsilyl)-
Formula: C25 H46 O2 Si2
Molecular weight: 434
Origin: HD Science, UK
m/z	RELATIVE INTENSITY
27	30
29	70
39	50
41	290
42	20
43	180
44	90
45	570
46	40
47	110
51	10
53	150
55	710
56	30
57	50
58	60
59	400
60	60
61	230
62	20
65	90
66	40
67	590
68	100
69	280
70	40
71	60
73	7599
74	740
75	3970
76	300
77	460
78	90
79	940
80	140
81	1010
82	100
83	160
84	30
85	360
86	40
87	70
88	10
89	90
91	1140
92	210
93	1110
94	280
95	710
96	80
97	140
98	40
99	170
100	30
101	340
102	50
103	160
104	80
105	1270
106	510
107	830
108	250
109	310
110	50
111	120
112	30
113	110
114	50
115	550
116	160
117	450
118	190
119	620
120	280
121	470
123	110
124	20
125	70
127	4650
128	650
129	2260
130	480
131	770
132	170
133	480
134	180
135	200
137	60
138	20
139	40
140	50
141	470
142	6579
143	9169
144	1510
145	1170
146	360
147	730
148	180
149	140
150	30
151	200
152	40
153	70
154	60
155	360
156	120
157	250
158	120
159	1030
160	460
161	860
162	240
163	310
164	70
165	520
166	100
167	250
168	170
169	520
170	140
171	170
172	100
173	660
174	460
175	170
176	160
177	70
178	30
179	380
180	180
181	700
182	710
183	330
184	90
185	190
186	80
187	1590
188	270
189	80
191	40
192	30
193	320
194	610
195	1180
196	410
197	190
198	70
199	160
200	210
201	710
202	2230
203	390
204	40
205	40
206	30
207	100
208	60
209	150
210	110
211	90
212	40
213	150
214	110
215	120
216	30
217	50
218	20
219	60
220	30
221	110
222	130
223	70
224	30
225	70
226	30
227	50
228	40
229	20
231	30
233	70
234	30
235	60
236	30
237	60
238	10
239	190
240	40
241	20
245	20
247	60
248	30
249	40
250	30
251	20
253	70
254	110
257	10
259	20
261	70
262	20
263	40
273	30
275	90
276	30
277	70
278	20
287	110
288	40
289	150
290	110
291	170
292	420
293	100
294	30
301	30
302	10
303	100
304	80
305	120
306	40
315	120
316	50
318	150
319	50
329	190
330	60
331	30
343	470
344	300
377	640
378	230
379	80
405	3450
406	1220
407	440
408	90
409	10
417	20
419	1710
420	610
421	220
422	50
434	9999
435	3780
436	1380
437	310
438	60
