Mass Spectrum: 2-Ethylamino-1-phenylpropanol
Formula: C11 H17 N O
Molecular weight: 179
Origin: R.E.Ardrey ET AL.Pharmaceutical Mass Spectra,L.,1985
m/z	RELATIVE INTENSITY
39	100
40	200
42	400
44	2903
51	200
56	300
70	100
72	9999
73	601
77	400
79	200
91	200
105	400
106	100
117	100
132	300
160	300
