Mass Spectrum: 2-Propionyl-1-pyrroline
Formula: C7 H11 N O
Molecular weight: 125
Origin: P.Schieberle, J.Agric. Food Chem.,39,1141(1991)
m/z	RELATIVE INTENSITY
37	80
38	160
39	1381
40	661
41	8968
42	1651
50	20
51	50
52	130
53	50
54	200
55	260
56	280
57	9999
58	290
64	80
65	30
66	150
67	250
68	2652
69	6516
70	1261
82	60
83	110
96	2622
97	7587
98	460
110	90
124	340
125	510
