Mass Spectrum: 2-Ethylamino-1-phenylpropanone
Formula: C11 H15 N O
Molecular weight: 177
Origin: R.E.Ardrey ET AL.Pharmaceutical Mass Spectra,L.,1985
m/z	RELATIVE INTENSITY
42	601
43	100
44	4004
45	100
50	100
51	500
56	300
70	300
72	9999
73	500
77	801
79	300
105	300
106	200
134	1201
135	100
