Mass Spectrum: 3-Phenylpropionic acid, pent-2-en-4-ynyl ester
Formula: C14 H14 O2
Molecular weight: 214
Origin: Zaikin V.G., TIPS RAS, Moscow, Russia
m/z	RELATIVE INTENSITY
25	10
26	70
27	200
28	10
29	30
37	20
38	100
39	811
40	80
41	60
42	40
43	190
44	220
45	20
49	30
50	230
51	571
52	200
53	160
54	20
55	130
56	20
57	10
61	20
62	90
63	360
64	120
65	1742
66	180
67	30
68	10
69	10
73	10
74	50
75	60
76	80
77	1371
78	761
79	1461
80	100
81	110
82	110
83	20
84	10
89	130
90	60
91	5154
92	1061
93	70
94	10
95	40
101	10
102	130
103	991
104	1361
105	4254
106	400
107	9999
108	751
109	60
110	10
115	80
116	30
117	10
119	10
121	10
123	80
127	20
128	100
129	60
130	10
131	280
132	90
133	681
134	120
135	10
139	10
140	10
141	100
142	30
143	10
145	20
146	20
147	20
148	10
149	3403
150	450
151	50
152	40
153	130
154	1281
155	651
156	70
157	20
158	10
165	10
167	30
168	220
169	370
170	50
171	10
172	30
173	30
175	20
183	20
185	60
186	40
196	10
199	10
214	90
215	10
