Mass Spectrum: 3-Methyl-2-butenoic acid, hex-4-yn-3-yl ester
Formula: C11 H16 O2
Molecular weight: 180
Origin: Zaikin V.G., TIPS RAS, Moscow, Russia
m/z	RELATIVE INTENSITY
26	40
27	300
28	140
29	370
38	40
39	531
40	120
41	420
43	90
44	70
50	60
51	130
52	110
53	671
54	110
55	931
56	50
63	30
65	150
66	100
67	100
69	60
77	250
78	50
79	1732
80	531
81	731
82	270
83	9999
84	460
85	70
97	130
100	150
101	250
110	30
123	140
124	40
137	90
151	130
152	430
153	40
165	230
