Mass Spectrum: 4-Cyclohexyldimethylsilyloxy-2-methyloct-5-yne
Formula: C17 H32 O Si
Molecular weight: 280
Origin: Zaikin V.G., TIPS RAS, Moscow, Russia
m/z	RELATIVE INTENSITY
26	40
27	90
28	30
29	80
39	200
40	40
41	460
42	50
43	270
44	80
45	130
47	160
50	40
51	60
52	50
53	130
54	130
55	270
56	50
57	90
58	50
59	1622
60	130
61	501
62	30
63	30
65	90
66	50
67	260
68	30
69	220
70	30
71	40
73	170
74	50
75	4474
76	340
77	380
78	70
79	350
80	90
81	641
82	120
83	300
84	40
85	150
87	40
91	150
93	100
95	120
96	70
97	621
98	90
99	190
101	290
102	20
103	40
105	40
107	90
109	110
110	70
111	7126
112	861
113	571
114	50
115	80
121	250
122	50
123	380
124	40
125	400
126	80
127	320
128	40
129	140
137	70
139	240
140	60
141	5835
142	791
143	1792
144	210
145	100
151	60
153	90
154	30
155	891
156	120
157	40
167	90
169	60
179	70
181	110
183	320
184	50
197	9999
198	1692
199	601
200	70
223	861
224	170
225	40
251	50
