Mass Spectrum: 4-Butyldimethylsilyloxy-2,7-dimethyloct-7-en-5-yne
Formula: C16 H30 O Si
Molecular weight: 266
Origin: Zaikin V.G., TIPS RAS, Moscow, Russia
m/z	RELATIVE INTENSITY
25	10
26	100
27	260
29	220
31	60
39	360
40	90
41	751
42	110
43	611
44	90
45	240
46	10
47	290
48	10
49	20
50	70
51	150
52	90
53	170
54	20
55	160
56	120
57	150
58	110
59	4134
60	330
61	1301
62	100
63	110
64	40
65	180
66	60
67	130
68	10
69	200
70	20
71	70
72	40
73	1502
74	180
75	5004
76	440
77	811
78	190
79	280
80	30
81	50
82	40
83	210
84	20
85	260
86	30
87	180
88	20
89	120
90	50
91	781
92	260
93	310
94	60
95	120
96	50
97	270
98	50
99	160
100	10
101	300
102	40
103	110
104	30
105	200
106	40
107	190
108	70
109	1271
110	160
111	210
112	50
113	110
114	10
115	901
116	110
117	340
118	50
119	390
120	50
121	90
122	80
123	9128
124	1191
125	541
126	60
127	90
128	20
129	160
130	10
131	20
133	190
134	130
135	691
136	100
137	531
138	110
139	581
140	80
141	70
142	10
143	921
144	100
145	60
147	20
149	80
150	10
151	400
152	100
153	9999
154	1411
155	440
156	40
157	10
161	10
163	70
164	10
165	350
166	70
167	871
168	260
169	80
170	10
173	10
175	20
177	30
179	160
180	30
181	90
182	20
183	10
185	110
186	10
191	90
192	10
193	110
194	20
195	771
196	130
197	40
209	7767
210	2853
211	661
212	110
223	290
224	90
225	320
226	50
237	50
238	20
251	1702
252	350
253	80
265	70
266	260
267	50
268	10
