Mass Spectrum: p-Toluic acid, 3-pentadecyl ester
Formula: C23 H38 O2
Molecular weight: 346
Origin: Zaikin V.G., TIPS RAS, Moscow, Russia
m/z	RELATIVE INTENSITY
26	70
27	170
28	140
29	350
36	40
39	230
40	40
41	951
42	220
43	1071
44	100
50	40
51	60
53	70
54	160
55	1131
56	551
57	911
58	50
63	80
65	480
66	40
67	260
68	210
69	881
70	631
71	430
72	50
77	100
79	60
81	200
82	340
83	841
84	460
85	280
89	140
90	160
91	2152
92	260
93	320
94	30
95	110
96	230
97	871
98	290
99	60
105	50
107	60
109	50
110	130
111	561
112	220
113	30
118	80
119	9999
120	931
121	70
124	70
125	280
126	140
134	70
135	70
136	851
137	6936
138	651
139	120
140	100
152	60
153	70
154	80
161	40
167	40
168	30
177	30
181	60
182	120
210	891
211	140
227	170
317	20
