Mass Spectrum: 3-Bromobenzoic acid, hex-4-yn-3-yl ester
Formula: C13 H13 Br O2
Molecular weight: 280
Origin: Zaikin V.G., TIPS RAS, Moscow, Russia
m/z	RELATIVE INTENSITY
26	60
27	210
28	40
29	110
38	60
39	410
40	110
41	641
42	30
43	180
44	80
50	551
51	270
52	190
53	811
54	70
55	110
57	40
63	70
65	300
66	170
67	130
69	260
74	190
75	821
76	1111
77	681
78	140
79	3794
80	1532
81	991
82	160
91	30
96	30
97	1071
98	70
104	210
105	70
115	60
128	30
129	70
130	30
131	30
142	40
155	1662
156	170
157	1602
158	160
159	50
173	150
183	9999
184	771
185	9949
186	751
187	40
200	200
201	120
202	200
203	60
210	140
211	30
212	140
223	50
225	40
234	50
236	60
237	60
239	50
251	400
252	440
253	440
254	430
255	50
265	1471
266	200
267	1481
268	190
279	40
280	300
282	290
283	40
