Mass Spectrum: 2-Fluorobenzoic acid, 2-bromo-4-fluorophenyl ester
Formula: C13 H7 Br F2 O2
Molecular weight: 312
Origin: Zaikin V.G., TIPS RAS, Moscow, Russia
m/z	RELATIVE INTENSITY
28	30
50	90
51	50
56	30
57	60
62	30
63	60
68	60
69	100
74	80
75	571
76	50
81	120
82	150
83	40
93	30
94	170
95	1512
96	130
110	40
122	30
123	9999
124	641
125	40
161	120
163	120
189	30
190	80
191	40
192	80
204	30
262	30
312	90
314	80
