Mass Spectrum: 4-Bromobenzoic acid, oct-3-en-2-yl ester
Formula: C15 H19 Br O2
Molecular weight: 310
Origin: Zaikin V.G., TIPS RAS, Moscow, Russia
m/z	RELATIVE INTENSITY
27	160
28	50
29	140
38	50
39	320
40	80
41	811
42	110
43	380
44	60
45	70
50	350
51	130
52	60
53	390
54	450
55	2032
56	130
65	160
66	90
67	981
68	2262
69	2002
70	130
71	240
73	50
74	180
75	591
76	781
77	290
78	50
79	330
80	120
81	1602
82	300
83	60
91	50
93	70
95	470
96	110
97	40
103	30
104	370
105	130
109	50
110	751
111	380
112	30
127	1391
128	150
129	40
131	40
149	140
155	1321
156	130
157	1331
158	120
172	50
183	9999
184	791
185	9629
186	731
187	30
200	340
201	120
202	350
203	110
212	110
213	30
214	110
253	50
254	40
255	50
256	40
267	110
268	30
269	110
270	30
310	60
312	60
