Mass Spectrum: l-Serine, N,O-bis(3-fluorobenzoyl)-, methyl ester
Formula: C18 H15 F2 N O5
Molecular weight: 363
Origin: Zaikin V.G., TIPS RAS, Moscow, Russia
m/z	RELATIVE INTENSITY
28	10
29	30
40	30
41	40
44	100
50	50
51	30
68	30
69	50
70	20
74	40
75	350
76	40
94	110
95	2132
96	220
109	40
121	30
122	50
123	9999
124	681
125	40
136	50
140	180
141	30
164	2262
165	260
179	30
191	290
192	70
193	60
210	40
223	731
224	100
240	230
262	691
263	110
304	160
332	30
333	40
363	30
