Mass Spectrum: l-Proline, N-(4-bromobenzoyl)-, methyl ester
Formula: C13 H14 Br N O3
Molecular weight: 311
Origin: Zaikin V.G., TIPS RAS, Moscow, Russia
m/z	RELATIVE INTENSITY
26	40
27	70
28	10
29	30
38	30
39	100
40	40
41	410
42	190
43	30
44	130
50	350
51	90
55	30
59	60
67	30
68	180
69	130
70	80
74	140
75	701
76	1001
77	170
79	30
80	70
81	20
82	70
103	80
104	701
105	130
117	30
126	40
127	30
128	260
145	330
146	70
154	30
155	1582
156	160
157	1572
158	130
173	70
174	30
182	30
183	9999
184	741
185	9659
186	701
187	40
225	60
227	50
252	5124
253	661
254	4905
255	621
256	40
279	30
280	40
282	40
311	601
312	100
313	591
314	90
