Mass Spectrum: l-Valine, N-(4-butylbenzoyl)-, methyl ester
Formula: C17 H25 N O3
Molecular weight: 291
Origin: Zaikin V.G., TIPS RAS, Moscow, Russia
m/z	RELATIVE INTENSITY
27	60
28	10
29	40
39	60
41	110
43	70
44	30
55	80
56	30
59	30
65	80
77	110
78	40
79	30
89	120
90	390
91	921
92	130
103	110
104	90
105	110
106	30
115	70
116	30
117	50
118	410
119	70
130	50
131	140
132	50
133	70
134	130
135	130
148	30
159	60
160	40
161	9999
162	1021
163	70
177	1021
178	771
179	90
189	50
217	170
218	30
231	30
232	1001
233	170
244	40
248	30
249	150
260	40
291	150
292	30
