Mass Spectrum: 3-Methyl-2-butenoic acid, 3-methylbut-2-enyl ester
Formula: C10 H16 O2
Molecular weight: 168
Origin: Zaikin V.G., TIPS RAS, Moscow, Russia
m/z	RELATIVE INTENSITY
26	60
27	490
28	10
29	621
38	50
39	811
40	280
41	2052
42	160
43	160
44	120
50	50
51	90
52	60
53	741
54	160
55	1431
56	130
57	30
59	50
65	40
66	40
67	1351
68	2492
69	3904
70	210
81	70
82	240
83	9999
84	521
85	721
86	30
96	30
100	270
101	541
107	40
109	30
122	100
123	440
124	50
125	160
126	40
153	170
168	350
169	30
