Mass Spectrum: 1-Bromo-3-fluoro-6-pentafluorophenyldimethylsilyloxybenzene
Formula: C14 H9 Br F6 O Si
Molecular weight: 414
Origin: Zaikin V.G., TIPS RAS, Moscow, Russia
m/z	RELATIVE INTENSITY
28	20
36	60
44	300
47	170
49	130
50	30
51	60
57	60
62	40
63	170
73	50
74	70
75	390
76	90
77	2302
78	180
79	200
80	120
81	861
82	330
83	100
85	110
87	30
91	250
92	50
93	110
94	170
95	120
96	50
98	30
99	220
101	40
105	100
106	60
107	130
108	50
109	430
110	230
111	70
117	60
119	150
120	30
123	110
125	831
126	50
129	250
130	30
132	40
133	130
135	30
137	260
138	70
139	280
140	30
141	691
142	60
143	811
144	100
145	120
146	30
147	60
148	40
150	30
153	50
155	60
156	30
157	140
158	50
159	350
160	80
161	190
163	160
165	40
167	190
168	120
169	30
171	511
172	120
173	300
174	50
175	50
176	50
181	20
183	40
185	90
186	100
187	120
188	60
189	160
190	100
191	230
192	260
193	140
196	30
201	30
203	30
204	50
205	90
206	210
210	220
211	460
212	60
215	70
217	60
219	90
220	120
221	30
223	180
224	80
225	260
226	30
229	60
233	50
234	30
235	130
236	30
237	250
238	50
239	70
240	80
242	40
247	150
249	170
250	20
251	601
252	70
253	651
254	90
255	180
256	30
257	30
258	80
267	50
271	150
272	30
273	140
277	2492
278	420
279	110
285	40
289	40
299	50
301	230
302	40
305	641
306	120
315	30
316	50
319	60
320	9999
321	2002
322	531
323	50
333	50
334	140
336	30
363	20
399	4985
400	971
401	5134
402	951
403	250
414	6295
415	1311
416	6566
417	1321
418	360
419	30
511	40
