Mass Spectrum: 4-(Trifluoromethyl)benzoic acid, but-3-yn-2-yl ester
Formula: C12 H9 F3 O2
Molecular weight: 242
Origin: Zaikin V.G., TIPS RAS, Moscow, Russia
m/z	RELATIVE INTENSITY
26	60
27	340
28	220
38	30
39	50
40	40
41	70
43	60
44	130
50	350
51	330
52	821
53	1211
54	50
57	50
63	40
69	320
74	80
75	310
76	100
77	60
94	30
95	450
96	60
99	40
119	50
125	270
126	170
127	120
128	30
129	30
143	80
144	70
145	2933
146	260
171	140
172	30
173	9999
174	781
175	40
190	140
191	130
195	30
199	60
213	30
214	60
223	280
224	40
242	861
243	100
