Mass Spectrum: Cyclobutanecarboxylic acid, 2-methyloct-5-yn-4-yl ester
Formula: C14 H22 O2
Molecular weight: 222
Origin: Zaikin V.G., TIPS RAS, Moscow, Russia
m/z	RELATIVE INTENSITY
26	150
27	911
28	370
29	931
38	50
39	901
40	160
41	1451
42	130
43	1221
44	200
50	100
51	220
52	160
53	771
54	290
55	9999
56	581
57	380
63	70
65	360
66	260
67	711
68	180
69	631
70	70
71	40
72	30
73	60
77	831
78	200
79	2543
80	681
81	2402
82	300
83	6706
84	380
85	110
91	1131
92	200
93	2893
94	490
95	380
96	70
97	290
98	190
99	30
100	50
101	170
105	320
106	60
107	3854
108	380
109	110
110	30
111	250
112	60
121	180
122	771
123	480
124	150
125	631
126	50
137	120
138	120
139	410
140	1261
141	130
149	30
151	661
152	120
165	240
166	150
167	470
168	210
179	3483
180	571
181	50
193	40
194	240
207	230
222	120
