Mass Spectrum: l-Proline, N-(p-toluoyl)-, methyl ester
Formula: C14 H17 N O3
Molecular weight: 247
Origin: Zaikin V.G., TIPS RAS, Moscow, Russia
m/z	RELATIVE INTENSITY
26	20
27	20
29	10
38	10
39	110
40	20
41	150
42	50
43	10
44	50
50	20
51	40
52	10
59	20
62	10
63	70
64	20
65	440
66	20
67	10
68	60
69	40
70	40
76	10
77	10
89	160
90	160
91	1522
92	130
94	20
105	10
117	30
118	80
119	9999
120	721
121	40
128	90
131	10
136	10
146	30
159	20
160	10
161	20
187	10
188	2993
189	380
190	30
215	30
216	30
246	10
247	470
248	80
