Mass Spectrum: 4-Diisopropylsilyloxy-2-methyloct-5-yne
Formula: C15 H30 O Si
Molecular weight: 254
Origin: Zaikin V.G., TIPS RAS, Moscow, Russia
m/z	RELATIVE INTENSITY
26	100
27	260
28	60
29	150
35	30
37	30
39	460
40	170
41	1071
42	210
43	791
44	210
45	1201
46	60
47	250
50	60
51	100
52	100
53	240
54	60
55	420
56	80
57	130
58	40
59	1131
60	120
61	3143
62	200
63	150
65	220
66	110
67	350
68	80
69	971
70	90
71	200
72	60
73	541
74	50
75	971
76	70
77	430
78	100
79	601
80	90
81	480
82	80
83	480
84	100
85	300
86	30
87	581
88	70
89	541
90	40
91	310
92	40
93	270
94	40
95	240
96	100
97	3664
98	450
99	681
100	60
101	611
102	60
103	220
105	90
107	170
108	30
109	240
110	50
111	971
112	210
113	7827
114	841
115	1181
116	110
117	60
119	30
121	280
122	60
123	601
124	100
125	1632
126	250
127	1982
128	240
129	531
130	50
131	60
135	20
137	110
139	1141
140	160
141	881
142	100
143	300
144	30
149	30
151	110
153	200
154	100
155	2633
156	360
157	781
158	90
159	40
165	40
167	1241
168	190
169	611
170	90
181	200
182	40
183	531
184	80
185	30
195	60
197	2022
198	340
199	100
209	1111
210	200
211	9999
212	1872
213	470
214	40
225	350
226	60
253	30
