Mass Spectrum: 5-Bromovaleric acid, dodec-9-ynyl ester
Formula: C17 H29 Br O2
Molecular weight: 344
Origin: Zaikin V.G., TIPS RAS, Moscow, Russia
m/z	RELATIVE INTENSITY
26	190
27	611
28	10
29	821
31	40
38	50
39	761
40	240
41	2513
42	390
43	641
44	90
45	70
50	60
51	140
52	160
53	751
54	771
55	5905
56	490
57	230
58	30
59	150
63	40
65	390
66	731
67	4735
68	9999
69	1481
70	100
71	110
73	230
77	501
78	200
79	3103
80	1431
81	2723
82	5314
83	1271
84	90
85	60
91	521
92	110
93	2663
94	971
95	2262
96	771
97	1632
98	140
99	40
100	40
101	871
102	50
105	160
106	60
107	1712
108	761
109	1491
110	270
111	50
119	60
120	20
121	1341
122	701
123	380
124	40
133	30
135	2773
136	521
137	1031
138	40
149	190
163	1131
164	300
165	1151
166	50
181	521
182	30
183	511
263	30
265	90
277	50
279	50
