Mass Spectrum: Cyclopropanecarboxylic acid, pent-2-en-4-ynyl ester
Formula: C9 H10 O2
Molecular weight: 150
Origin: Zaikin V.G., TIPS RAS, Moscow, Russia
m/z	RELATIVE INTENSITY
26	110
27	220
28	20
29	70
37	70
38	250
39	1792
40	220
41	2342
42	100
43	60
44	210
45	40
50	180
51	210
52	120
53	140
55	100
61	30
62	100
63	380
64	190
65	1161
66	70
68	70
69	9999
70	410
77	40
78	70
79	70
81	60
109	50
150	70
