Mass Spectrum: o-Anisic acid, 3-pentadecyl ester
Formula: C23 H38 O3
Molecular weight: 362
Origin: Zaikin V.G., TIPS RAS, Moscow, Russia
m/z	RELATIVE INTENSITY
26	60
27	160
28	10
29	380
39	180
40	60
41	871
42	180
43	1051
44	150
50	50
51	110
53	70
54	110
55	931
56	340
57	681
58	30
63	70
64	100
65	80
66	20
67	190
68	110
69	561
70	300
71	270
72	30
76	80
77	1091
78	150
79	290
81	120
82	130
83	390
84	180
85	150
91	40
92	450
93	70
94	40
95	80
96	80
97	330
98	100
99	20
104	30
105	671
106	180
107	120
108	60
109	40
110	40
111	170
112	60
118	30
119	30
120	180
121	140
122	70
123	2052
124	160
125	70
126	40
133	80
134	290
135	9999
136	951
137	100
138	30
151	70
152	4675
153	4875
154	440
155	40
193	60
210	80
227	120
362	100
