Mass Spectrum: 6-Bromohexanoic acid, hex-4-yn-3-yl ester
Formula: C12 H19 Br O2
Molecular weight: 274
Origin: Zaikin V.G., TIPS RAS, Moscow, Russia
m/z	RELATIVE INTENSITY
26	160
27	831
29	460
37	30
38	80
39	1171
40	310
41	3393
42	450
43	1401
44	90
45	60
48	20
50	130
51	300
52	350
53	1662
54	260
55	1091
56	140
57	210
60	270
63	80
64	30
65	511
66	350
67	531
68	140
69	8978
70	561
71	140
72	30
73	150
77	891
78	210
79	9999
80	6435
81	4004
82	470
83	1021
84	60
93	110
95	120
96	60
97	1471
98	2242
99	490
100	30
106	30
107	450
108	50
109	310
111	160
112	60
113	60
115	400
116	30
121	90
122	80
123	100
124	30
125	3534
126	501
127	40
135	130
137	40
139	180
140	300
148	30
149	380
150	50
151	350
153	270
159	120
160	30
161	110
167	30
177	4965
178	370
179	4945
180	320
194	30
195	250
196	40
197	100
217	160
218	50
219	160
220	50
231	60
233	60
245	400
246	120
247	390
248	120
259	1902
260	220
261	1842
262	220
274	941
275	140
276	951
277	110
