Mass Spectrum: (Phenylthio)acetic acid, nonyl ester
Formula: C17 H26 O2 S
Molecular weight: 294
Origin: Zaikin V.G., TIPS RAS, Moscow, Russia
m/z	RELATIVE INTENSITY
26	40
27	140
28	120
29	320
39	190
40	30
41	821
42	190
43	1652
44	140
45	851
46	40
47	40
50	50
51	170
53	40
54	50
55	791
56	290
57	901
58	30
65	290
66	100
67	80
68	80
69	621
70	210
71	591
72	30
77	380
78	200
79	190
81	50
82	50
83	260
84	140
85	310
91	120
94	40
95	30
97	110
98	60
105	40
108	100
109	981
110	901
111	120
112	40
121	260
122	110
123	8768
124	1702
125	490
126	130
150	40
151	410
152	60
168	9999
169	1111
170	521
171	410
172	40
294	9498
295	1762
296	611
297	90
