Mass Spectrum: 3-Chloropropionic acid, 2,6-dimethylnon-1-en-3-yn-5-yl ester
Formula: C14 H21 Cl O2
Molecular weight: 256
Origin: Zaikin V.G., TIPS RAS, Moscow, Russia
m/z	RELATIVE INTENSITY
25	50
26	410
27	1632
28	20
29	1041
35	110
36	841
37	100
38	400
39	1431
40	420
41	3453
42	591
43	3874
44	521
45	140
49	90
50	390
51	991
52	1171
53	1031
54	671
55	3403
56	631
57	1051
58	50
61	50
62	110
63	3744
64	190
65	1782
66	581
67	2973
68	601
69	2272
70	521
71	781
72	350
73	290
74	50
75	160
76	90
77	2062
78	1572
79	3303
80	551
81	3023
82	1281
83	1351
84	230
85	120
87	160
88	270
89	190
90	130
91	7056
92	711
93	5374
94	581
95	5565
96	1552
97	511
98	90
99	30
100	50
101	70
102	701
103	350
104	370
105	1512
106	1211
107	1251
108	300
109	4474
110	531
111	370
112	30
114	20
115	591
116	190
117	390
118	110
119	1592
120	480
121	681
122	170
123	2553
124	9999
125	931
126	60
128	70
129	1291
130	571
131	521
132	180
133	1752
134	200
135	170
136	320
137	1431
138	200
143	270
144	90
145	110
146	40
147	100
148	961
149	320
150	60
151	891
152	90
157	190
158	40
159	70
165	300
166	731
167	100
173	30
177	60
185	100
186	120
187	40
188	30
191	30
193	120
213	1121
214	200
215	380
216	60
221	30
241	150
243	40
256	80
