Mass Spectrum: 1-Dimethylisopropylsilyloxypent-2-en-4-yne
Formula: C10 H18 O Si
Molecular weight: 182
Origin: Zaikin V.G., TIPS RAS, Moscow, Russia
m/z	RELATIVE INTENSITY
26	150
27	220
29	70
31	100
39	1401
40	130
41	350
42	150
43	571
44	60
45	771
46	40
47	480
49	20
50	80
51	100
52	80
53	150
55	160
57	60
58	250
59	1992
60	230
61	1201
62	180
63	240
64	50
65	1922
66	140
69	290
70	30
71	100
72	30
73	1692
74	190
75	1792
76	130
77	200
78	70
79	210
81	30
83	5855
84	541
85	911
86	70
87	80
89	30
91	80
93	90
95	611
96	80
97	200
98	130
99	901
100	90
101	270
107	30
109	1662
110	220
111	6455
112	701
113	551
114	40
121	120
123	170
124	80
125	791
126	100
127	30
137	100
139	9999
140	1241
141	400
167	170
182	501
183	60
