Mass Spectrum: l-Alanine, N-(m-toluoyl)-, methyl ester
Formula: C12 H15 N O3
Molecular weight: 221
Origin: Zaikin V.G., TIPS RAS, Moscow, Russia
m/z	RELATIVE INTENSITY
26	20
27	20
29	10
31	10
38	10
39	130
40	20
41	60
42	70
43	20
44	100
50	30
51	60
52	10
55	10
59	40
62	20
63	120
64	40
65	601
66	30
70	10
74	20
75	10
76	10
77	20
81	20
89	220
90	190
91	2032
92	180
102	60
105	30
116	10
117	30
118	80
119	9999
120	771
121	40
132	20
135	10
136	20
145	10
146	10
160	90
161	30
162	3524
163	380
164	20
189	30
190	60
221	330
222	50
