Mass Spectrum: 6-Bromohexanoic acid, 2-methyloct-5-yn-4-yl ester
Formula: C15 H25 Br O2
Molecular weight: 316
Origin: Zaikin V.G., TIPS RAS, Moscow, Russia
m/z	RELATIVE INTENSITY
26	170
27	991
29	821
37	40
38	80
39	1091
40	230
41	3904
42	601
43	2262
44	130
45	30
50	100
51	230
52	210
53	771
54	230
55	1842
56	320
57	551
58	40
60	300
63	80
64	30
65	511
66	390
67	1061
68	430
69	9999
70	701
71	240
72	30
73	130
77	1171
78	330
79	3734
80	1331
81	2773
82	450
83	791
84	150
85	300
91	1622
92	310
93	5434
94	951
95	551
96	110
97	1572
98	2543
99	180
103	30
105	470
106	100
107	7997
108	731
109	420
110	30
111	1351
112	240
113	40
115	160
119	30
121	380
122	1772
123	811
124	180
125	1602
126	140
134	30
135	30
137	40
138	50
139	881
140	5855
141	651
142	40
149	350
150	30
151	350
153	90
167	1171
168	170
177	4144
178	270
179	4054
180	250
181	90
182	40
195	60
197	30
201	40
203	80
219	80
221	60
231	50
233	60
237	140
245	80
246	40
247	70
248	30
259	130
260	100
261	150
262	100
273	2983
274	501
275	2913
276	490
277	40
287	70
289	70
301	200
303	200
316	110
318	110
