Mass Spectrum: o-Anisic acid, dodec-9-ynyl ester
Formula: C20 H28 O3
Molecular weight: 316
Origin: Zaikin V.G., TIPS RAS, Moscow, Russia
m/z	RELATIVE INTENSITY
26	30
27	60
28	30
29	80
39	140
40	30
41	430
42	50
43	90
50	40
51	80
52	40
53	130
54	80
55	410
56	40
63	50
64	70
65	120
66	100
67	551
68	320
69	120
76	50
77	941
78	140
79	621
80	190
81	330
82	330
83	40
91	130
92	350
93	470
94	190
95	220
96	160
105	410
106	100
107	330
108	220
109	110
110	30
119	30
120	140
121	280
122	140
123	781
124	60
133	160
134	150
135	9999
136	791
137	70
149	40
151	50
152	741
153	2402
154	210
164	160
234	50
248	60
249	60
316	180
317	40
