Mass Spectrum: Trichloroacetic acid, 3-methylbut-2-enyl ester
Formula: C7 H9 Cl3 O2
Molecular weight: 230
Origin: Zaikin V.G., TIPS RAS, Moscow, Russia
m/z	RELATIVE INTENSITY
26	110
27	751
28	30
29	731
35	160
36	821
37	80
38	360
39	1431
40	470
41	5695
42	420
43	440
44	511
47	240
48	40
49	90
50	140
51	240
52	160
53	1532
54	210
55	320
56	60
57	440
63	110
65	130
66	110
67	3323
68	5294
69	9999
70	591
75	50
77	100
79	210
82	621
83	440
84	460
85	5044
86	350
87	30
89	40
91	30
95	60
97	50
103	200
105	110
110	460
112	290
114	30
115	30
117	1662
119	1592
121	511
123	100
131	130
133	70
146	110
148	110
150	30
191	30
194	40
195	180
196	30
197	120
215	110
217	100
219	30
230	90
232	80
