Mass Spectrum: l-Proline, N-(2-thienylcarbonyl)-, methyl ester
Formula: C11 H13 N O3 S
Molecular weight: 239
Origin: Zaikin V.G., TIPS RAS, Moscow, Russia
m/z	RELATIVE INTENSITY
27	40
28	20
39	601
40	40
41	180
42	80
44	60
45	50
53	30
57	70
58	30
59	40
68	70
69	40
70	50
82	60
83	330
84	60
111	9999
112	521
113	390
128	120
153	30
180	4004
181	410
182	190
239	601
240	80
241	30
