Mass Spectrum: 2-Trifluoromethylbenzoic acid, phenyl ester
Formula: C14 H9 F3 O2
Molecular weight: 266
Origin: Zaikin V.G., TIPS RAS, Moscow, Russia
m/z	RELATIVE INTENSITY
28	10
38	40
39	260
50	130
51	130
57	30
62	30
63	80
64	30
65	290
66	60
69	50
74	60
75	220
76	70
77	120
93	50
94	190
95	340
96	40
99	40
119	50
125	250
126	140
127	30
143	30
144	70
145	3313
146	270
151	110
173	9999
174	811
175	50
247	40
266	310
267	50
