Mass Spectrum: (Phenylthio)acetic acid, 3-pentadecyl ester
Formula: C23 H38 O2 S
Molecular weight: 378
Origin: Zaikin V.G., TIPS RAS, Moscow, Russia
m/z	RELATIVE INTENSITY
26	90
27	160
28	10
29	390
34	30
36	100
38	30
39	310
40	100
41	1251
42	280
43	2072
44	440
45	691
46	30
47	30
50	110
51	250
52	40
53	110
54	150
55	2092
56	601
57	3864
58	230
59	40
63	50
65	350
66	220
67	350
68	190
69	1612
70	501
71	3043
72	210
73	80
74	40
75	30
76	40
77	490
78	270
79	260
80	40
81	280
82	260
83	951
84	380
85	2292
86	150
91	200
93	40
94	40
95	240
96	160
97	731
98	170
99	601
100	40
101	30
105	80
108	110
109	1101
110	1802
111	350
112	180
113	340
121	360
122	150
123	8467
124	3483
125	681
126	230
127	220
133	30
135	30
137	40
139	50
140	30
141	150
149	30
150	110
151	921
152	110
153	80
154	30
155	90
168	9999
169	2252
170	661
171	100
182	30
191	30
197	70
209	30
210	130
211	50
227	50
255	50
277	50
319	60
378	8247
379	2262
380	691
381	110
