Mass Spectrum: Glycine, N-(3-fluorobenzoyl)-, methyl ester
Formula: C10 H10 F N O3
Molecular weight: 211
Origin: Zaikin V.G., TIPS RAS, Moscow, Russia
m/z	RELATIVE INTENSITY
28	10
29	40
40	30
44	100
50	110
51	70
56	50
57	90
59	50
68	60
69	120
70	30
74	80
75	701
76	80
88	40
93	30
94	180
95	2713
96	250
121	30
122	70
123	9999
124	681
125	40
135	20
140	60
151	30
152	2392
153	220
179	601
180	170
194	40
211	871
212	100
