Mass Spectrum: 4-(Trifluoromethyl)benzoic acid, 2-methyloct-5-yn-4-yl ester
Formula: C17 H19 F3 O2
Molecular weight: 312
Origin: Zaikin V.G., TIPS RAS, Moscow, Russia
m/z	RELATIVE INTENSITY
27	100
28	40
29	100
39	160
40	30
41	360
42	30
43	260
44	60
50	70
51	70
52	40
53	130
55	200
56	40
57	90
63	30
65	110
66	70
67	120
68	50
69	170
75	80
76	30
77	320
78	80
79	831
80	240
81	280
83	80
91	420
92	80
93	1211
94	220
95	180
96	40
97	40
98	30
105	120
107	1582
108	140
121	60
122	420
123	60
124	40
125	100
126	110
127	40
139	190
143	40
144	50
145	2052
146	190
171	160
172	30
173	9999
174	771
175	40
190	90
191	30
227	30
241	100
242	100
255	130
256	120
265	30
269	1441
270	290
283	60
293	90
297	100
312	110
