Mass Spectrum: 1-Dimethylisopropylsilyloxyundec-2-ene
Formula: C16 H34 O Si
Molecular weight: 270
Origin: Zaikin V.G., TIPS RAS, Moscow, Russia
m/z	RELATIVE INTENSITY
29	50
39	70
41	260
42	40
43	190
45	60
47	70
53	40
54	130
55	250
56	50
57	70
58	30
59	470
60	50
61	200
67	250
68	70
69	160
70	40
71	30
73	781
74	110
75	6536
76	501
77	300
78	30
79	80
81	270
82	60
83	100
85	130
87	70
89	360
91	40
93	30
95	430
96	40
97	80
99	350
100	50
101	1752
102	190
103	250
109	220
111	80
113	430
114	60
115	1111
116	120
117	70
123	30
125	30
127	200
128	40
129	1572
130	180
131	70
141	150
143	1131
144	150
145	60
151	330
152	70
155	80
157	641
158	80
159	30
169	140
171	150
183	40
185	30
197	480
198	80
199	290
200	40
203	100
213	70
227	9999
228	2012
229	531
230	50
255	400
256	80
270	40
