Mass Spectrum: 2-Bromobenzoic acid, 2-isopropoxyphenyl ester
Formula: C16 H15 Br O3
Molecular weight: 334
Origin: Zaikin V.G., TIPS RAS, Moscow, Russia
m/z	RELATIVE INTENSITY
26	50
27	150
28	20
38	30
39	140
41	220
42	50
43	200
44	50
50	260
51	140
52	280
53	100
63	60
64	60
65	90
74	80
75	420
76	651
77	180
79	30
80	240
81	430
82	100
92	30
93	50
104	270
105	120
109	300
110	320
111	90
121	100
128	50
135	50
136	40
139	40
152	30
155	1121
156	120
157	1051
158	90
168	40
183	9999
184	751
185	9649
186	701
187	40
212	30
263	30
292	160
294	150
334	561
335	100
336	561
337	100
