Mass Spectrum: Isonicotinic acid, 4-tridecyl ester
Formula: C19 H31 N O2
Molecular weight: 305
Origin: Zaikin V.G., TIPS RAS, Moscow, Russia
m/z	RELATIVE INTENSITY
26	90
27	270
28	180
29	450
36	130
38	30
39	270
40	60
41	1441
42	390
43	1512
44	220
50	170
51	781
52	170
53	130
54	260
55	1702
56	911
57	1221
58	60
65	30
66	30
67	370
68	290
69	1241
70	931
71	531
72	30
77	100
78	2302
79	480
80	110
81	230
82	350
83	1031
84	561
85	260
93	70
95	120
96	210
97	761
98	350
99	50
105	60
106	9999
107	1211
108	80
109	30
110	130
111	430
112	220
113	30
120	90
121	250
122	70
123	320
124	4805
125	551
126	110
134	30
135	40
137	30
138	30
139	100
140	60
148	30
150	90
151	30
154	100
162	40
164	60
178	220
179	40
182	270
183	30
191	30
192	30
232	40
234	60
261	410
262	170
263	30
305	40
