Mass Spectrum: l-Cysteine, N,S-bis(2-fluorobenzoyl )-, methyl ester
Formula: C18 H15 F2 N O4 S
Molecular weight: 379
Origin: Zaikin V.G., TIPS RAS, Moscow, Russia
m/z	RELATIVE INTENSITY
28	10
44	30
45	30
50	30
69	30
74	30
75	250
76	30
94	60
95	1091
96	150
122	40
123	9999
124	611
125	30
140	40
164	110
180	30
192	30
210	40
223	110
224	480
225	60
238	30
240	110
256	1161
257	150
258	60
262	1001
263	150
320	300
321	50
