Mass Spectrum: l-Proline, N-(O-anisoyl)-, methyl ester
Formula: C14 H17 N O4
Molecular weight: 263
Origin: Zaikin V.G., TIPS RAS, Moscow, Russia
m/z	RELATIVE INTENSITY
26	30
27	60
28	10
29	40
30	10
31	10
36	10
37	10
38	30
39	120
40	30
41	250
42	110
43	30
44	110
45	20
50	80
51	200
52	30
53	30
54	10
55	30
56	10
59	40
62	20
63	150
64	250
65	60
66	10
67	20
68	110
69	80
70	260
71	10
74	20
75	30
76	140
77	1792
78	170
79	120
80	10
82	10
90	10
91	30
92	811
93	60
94	10
96	10
102	110
103	10
104	20
105	160
106	20
107	20
108	10
119	20
120	170
121	50
128	140
129	140
130	10
133	20
134	30
135	9999
136	731
137	60
204	841
205	100
206	10
263	50
