Mass Spectrum: Glycine, N-capryloyl-, methyl ester
Formula: C11 H21 N O3
Molecular weight: 215
Origin: Zaikin V.G., TIPS RAS, Moscow, Russia
m/z	RELATIVE INTENSITY
26	60
27	350
28	20
29	611
30	2613
31	60
39	250
40	60
41	1171
42	350
43	1071
44	1762
45	90
53	80
54	100
55	1101
56	561
57	2793
58	140
59	150
62	40
67	170
68	80
69	360
70	130
71	200
72	390
73	50
74	60
79	30
81	80
82	90
83	240
84	541
85	100
86	90
88	460
89	721
90	2232
91	100
96	30
97	140
98	360
99	891
100	60
101	40
103	971
104	50
105	30
109	150
111	30
112	420
113	230
114	40
126	250
127	2042
128	200
131	9999
132	551
133	70
140	40
144	1201
145	160
154	30
156	511
157	50
158	230
159	30
172	150
173	60
183	30
184	370
185	40
186	150
198	30
215	150
216	80
