Mass Spectrum: 3-Bromobenzoic acid, undec-2-enyl ester
Formula: C18 H25 Br O2
Molecular weight: 352
Origin: Zaikin V.G., TIPS RAS, Moscow, Russia
m/z	RELATIVE INTENSITY
26	70
27	250
28	170
29	430
38	30
39	340
40	70
41	1181
42	210
43	881
44	110
50	220
51	90
52	30
53	250
54	1752
55	1451
56	310
57	521
65	80
66	100
67	1061
68	811
69	741
70	180
71	110
74	80
75	320
76	551
77	220
78	60
79	160
80	170
81	951
82	1081
83	460
84	70
85	40
91	50
93	30
94	30
95	741
96	811
97	310
98	50
104	280
105	150
109	350
110	410
111	70
117	80
123	150
124	771
125	80
135	60
151	40
152	791
153	100
155	931
156	110
157	941
158	90
161	30
169	330
170	40
183	9999
184	761
185	9659
186	731
187	40
198	50
200	400
201	140
202	340
203	120
211	50
212	30
213	50
214	30
226	60
227	30
228	50
240	80
241	30
242	70
253	120
254	140
255	160
256	130
257	30
267	30
268	60
269	40
270	50
282	40
283	80
284	30
295	50
297	60
309	40
311	40
323	40
325	40
352	30
354	30
