Mass Spectrum: Octanoic acid, 2-methyloct-5-yn-4-yl ester
Formula: C17 H30 O2
Molecular weight: 266
Origin: Zaikin V.G., TIPS RAS, Moscow, Russia
m/z	RELATIVE INTENSITY
25	30
26	220
27	1001
28	10
29	1602
30	30
37	40
38	80
39	1021
40	260
41	3584
42	741
43	4114
44	310
45	70
50	100
51	210
52	170
53	701
54	200
55	2793
56	561
57	9999
58	450
59	130
60	440
61	50
63	80
64	30
65	460
66	430
67	1371
68	480
69	1411
70	340
71	300
72	40
73	310
74	40
77	1081
78	300
79	3564
80	1211
81	3383
82	511
83	1151
84	420
85	440
86	30
87	70
89	40
91	1522
92	290
93	5745
94	1001
95	741
96	170
97	1411
98	2172
99	170
100	30
101	130
103	40
105	450
106	80
107	8287
108	791
109	791
110	130
111	1281
112	230
113	30
115	70
121	360
122	1812
123	1001
124	240
125	1802
126	200
127	7597
128	661
129	50
135	40
137	30
138	80
139	941
140	5444
141	651
142	40
143	70
145	190
149	50
151	110
153	200
154	40
166	30
167	1071
168	240
169	200
181	260
182	130
183	60
195	210
196	90
209	360
210	240
211	50
223	7897
224	1361
225	130
237	180
238	30
251	541
252	80
266	631
267	100
