Mass Spectrum: trans-3-Trifluoromethylcinnamic acid, pent-2-en-4-ynyl ester
Formula: C15 H11 F3 O2
Molecular weight: 280
Origin: Zaikin V.G., TIPS RAS, Moscow, Russia
m/z	RELATIVE INTENSITY
26	30
27	40
28	50
38	40
39	340
44	70
50	110
51	120
52	50
53	40
62	40
63	180
64	80
65	541
66	40
69	40
74	50
75	130
76	70
77	40
81	40
91	30
95	90
99	30
101	90
102	340
103	60
119	30
120	90
121	30
125	70
126	30
131	90
145	220
146	40
147	30
151	1842
152	290
153	30
159	80
165	210
166	170
167	170
168	30
169	170
170	210
171	2012
172	300
173	40
183	40
186	30
196	40
197	90
198	40
199	9999
200	1001
201	80
214	30
215	300
216	200
233	50
234	70
235	480
236	80
251	50
252	581
253	90
261	170
262	60
280	310
