Mass Spectrum: 4-Dimethylisopropylsilyloxy-2-methyloct-5-yne
Formula: C14 H28 O Si
Molecular weight: 240
Origin: Zaikin V.G., TIPS RAS, Moscow, Russia
m/z	RELATIVE INTENSITY
26	90
27	260
28	10
29	190
31	40
39	450
40	150
41	881
42	150
43	631
44	210
45	350
47	460
50	60
51	110
52	90
53	190
54	40
55	230
56	70
57	180
58	170
59	1532
60	170
61	450
62	40
63	50
65	170
66	70
67	140
69	260
70	50
71	60
72	30
73	2442
74	240
75	7466
76	531
77	621
78	80
79	440
80	60
81	200
82	30
83	430
84	80
85	250
87	50
89	40
91	280
92	40
93	170
95	130
96	110
97	450
98	60
99	160
100	20
101	1522
102	150
103	180
105	70
107	140
109	160
110	90
111	9999
112	1131
113	601
114	40
115	70
121	290
122	60
123	390
124	40
125	330
126	60
127	250
129	80
137	50
139	541
140	80
141	4044
142	501
143	1672
144	190
145	80
153	90
155	861
156	110
157	30
167	110
169	50
171	100
179	20
181	100
183	3283
184	490
185	140
197	7436
198	1211
199	330
211	110
225	200
226	30
