Mass Spectrum: 5-Chlorovaleric acid, 5-tridecyl ester
Formula: C18 H35 Cl O2
Molecular weight: 318
Origin: Zaikin V.G., TIPS RAS, Moscow, Russia
m/z	RELATIVE INTENSITY
26	80
27	280
28	210
29	541
36	80
39	200
40	40
41	991
42	280
43	1011
44	120
45	30
53	100
54	200
55	2492
56	831
57	1221
58	120
59	30
63	60
67	210
68	160
69	961
70	701
71	611
72	30
73	80
79	30
81	150
82	250
83	841
84	490
85	450
86	30
87	30
91	1491
92	70
93	470
95	60
96	200
97	701
98	420
99	120
100	300
101	110
110	120
111	460
112	240
113	80
118	30
119	9999
120	571
121	3093
122	170
124	90
125	400
126	150
127	50
134	260
135	90
136	220
137	430
138	60
139	270
140	100
141	220
142	30
153	50
154	170
182	1041
183	180
199	70
205	240
207	80
261	80
263	20
