Mass Spectrum: Isonicotinic acid, 4-pentadecyl ester
Formula: C21 H35 N O2
Molecular weight: 333
Origin: Zaikin V.G., TIPS RAS, Moscow, Russia
m/z	RELATIVE INTENSITY
26	100
27	130
28	60
29	160
35	40
36	290
38	80
39	160
40	30
41	721
42	170
43	751
44	300
50	140
51	450
52	140
53	100
54	180
55	1111
56	490
57	811
58	50
66	30
67	340
68	240
69	941
70	571
71	470
73	40
77	130
78	1812
79	541
80	180
81	300
82	350
83	851
84	400
85	310
91	40
93	190
94	40
95	210
96	260
97	851
98	280
99	70
105	110
106	9999
107	1702
108	130
109	100
110	150
111	501
112	190
113	40
120	220
121	290
122	120
123	531
124	9549
125	1221
126	130
133	30
134	120
135	140
137	50
138	50
139	80
140	90
148	110
149	80
150	150
151	60
152	30
153	40
154	40
162	100
163	100
164	100
165	40
167	30
176	60
177	50
178	330
179	70
182	70
190	80
191	60
192	50
193	30
204	140
205	40
206	40
210	190
211	30
218	90
219	210
220	70
232	60
233	40
234	40
246	60
247	50
248	60
260	360
261	110
262	180
263	70
276	80
289	1732
290	831
291	140
304	210
305	40
318	40
332	70
333	240
334	60
