Mass Spectrum: 3-Methyl-1-triisobutylsilyloxybut-2-ene
Formula: C17 H36 O Si
Molecular weight: 284
Origin: Zaikin V.G., TIPS RAS, Moscow, Russia
m/z	RELATIVE INTENSITY
27	70
28	20
29	60
39	180
40	70
41	571
42	100
43	100
44	30
45	300
47	260
53	90
55	90
56	90
57	130
58	40
59	410
60	130
61	2883
62	190
63	110
64	110
67	120
68	80
69	470
70	40
71	80
73	90
74	190
75	360
76	30
78	70
83	30
85	210
86	40
87	340
88	50
97	40
99	170
100	30
101	420
102	100
103	5915
104	571
105	230
106	140
111	40
113	260
114	70
115	771
116	90
117	721
118	70
123	60
127	70
129	140
143	120
155	50
157	280
158	40
159	9999
160	1311
161	420
162	30
169	40
170	30
171	1612
172	300
173	150
227	3934
228	1311
229	1161
230	220
231	40
