Mass Spectrum: l-Methionine, N-(2-trifluoromethylbenzoyl)-, methyl ester
Formula: C14 H16 F3 N O3 S
Molecular weight: 335
Origin: Zaikin V.G., TIPS RAS, Moscow, Russia
m/z	RELATIVE INTENSITY
26	20
27	70
29	30
30	10
31	20
33	30
35	40
39	30
41	110
42	20
43	10
44	60
45	90
46	40
47	110
48	40
49	30
50	50
51	30
54	40
55	30
56	110
57	50
58	10
59	110
60	20
61	651
62	30
63	40
69	20
71	10
73	10
74	100
75	380
76	50
77	40
81	10
85	20
86	30
87	80
88	651
89	30
91	10
94	10
95	200
96	30
99	50
100	20
101	10
102	50
103	10
105	20
107	20
114	270
115	20
117	10
119	20
121	10
125	150
126	220
127	40
130	50
131	20
132	20
133	10
143	20
144	60
145	2442
146	260
147	130
148	10
149	10
150	10
151	10
152	40
154	480
155	50
159	10
160	10
162	741
163	60
164	40
168	10
170	50
171	30
172	50
173	9999
174	1001
175	60
181	170
182	30
185	10
188	20
189	10
190	40
192	20
194	70
198	20
201	240
202	30
210	60
216	30
227	40
228	320
229	1662
230	200
231	10
240	10
241	10
242	571
243	110
244	40
255	60
256	80
257	10
260	40
261	3153
262	370
263	30
273	10
274	781
275	100
276	280
277	30
278	10
287	30
288	230
289	30
303	50
304	20
335	460
336	80
337	30
