Mass Spectrum: 1-Trihexylsilyloxytridec-2-yne
Formula: C31 H62 O Si
Molecular weight: 478
Origin: Zaikin V.G., TIPS RAS, Moscow, Russia
m/z	RELATIVE INTENSITY
26	60
27	110
28	30
29	80
39	120
40	70
41	280
42	130
43	260
44	70
45	60
47	50
53	40
54	30
55	220
56	150
57	100
59	180
61	110
67	120
69	100
71	90
73	150
75	120
77	40
79	100
81	110
82	20
83	240
84	60
85	350
86	30
87	90
89	50
91	50
93	80
95	160
96	30
97	280
98	70
99	200
101	170
107	50
109	150
110	30
111	330
112	60
113	511
114	60
115	260
116	30
121	60
123	120
125	250
126	40
127	130
129	130
131	1091
132	130
133	60
135	60
137	110
139	190
140	30
141	100
143	60
145	120
149	30
151	80
153	180
154	30
155	80
157	40
163	60
165	40
167	210
168	30
169	50
177	80
181	180
182	50
183	190
184	30
193	40
195	140
197	90
199	100
211	30
215	1421
216	260
217	70
223	140
224	30
225	460
226	80
227	50
229	70
237	70
241	100
251	80
265	40
279	140
280	30
307	70
309	9999
310	2412
311	701
312	110
325	601
326	160
327	40
363	20
393	741
394	240
395	60
