Mass Spectrum: 4-Fluorobenzoic acid, 2-chlorophenyl ester
Formula: C13 H8 Cl F O2
Molecular weight: 250
Origin: Zaikin V.G., TIPS RAS, Moscow, Russia
m/z	RELATIVE INTENSITY
28	10
38	20
39	50
50	80
51	40
62	30
63	130
64	80
68	30
69	70
73	110
74	70
75	480
76	50
92	30
94	110
95	2022
96	150
99	150
101	40
123	9999
124	611
125	30
128	140
130	40
157	30
215	30
250	220
251	30
252	70
