Mass Spectrum: (Phenylthio)acetic acid, 5-tridecyl ester
Formula: C21 H34 O2 S
Molecular weight: 350
Origin: Zaikin V.G., TIPS RAS, Moscow, Russia
m/z	RELATIVE INTENSITY
26	80
27	250
28	230
29	591
36	50
38	40
39	420
40	60
41	1832
42	380
43	3213
44	420
45	1231
46	60
47	60
50	110
51	300
52	50
53	130
54	180
55	2342
56	701
57	6205
58	360
63	50
65	420
66	210
67	310
68	150
69	1662
70	511
71	4484
72	270
73	20
74	40
75	30
76	40
77	591
78	300
79	300
80	30
81	190
82	190
83	801
84	350
85	3243
86	230
91	220
94	30
95	110
96	110
97	501
98	150
99	771
100	70
105	70
108	120
109	1301
110	2052
111	490
112	180
113	511
114	40
121	440
122	210
123	8848
124	4585
125	801
126	280
127	350
128	30
141	200
150	60
151	661
152	70
153	30
154	30
168	9999
169	1431
170	571
171	60
180	90
182	160
183	60
199	90
227	30
237	30
291	60
293	30
350	8608
351	2112
352	651
353	100
