Mass Spectrum: 3-Cloropropionic acid, 2,7-dimethyloct-7-en-5-yn-4-yl ester
Formula: C13 H19 Cl O2
Molecular weight: 242
Origin: Zaikin V.G., TIPS RAS, Moscow, Russia
m/z	RELATIVE INTENSITY
25	40
26	310
27	1431
28	20
29	410
35	80
36	621
37	40
38	300
39	1021
40	290
41	2032
42	180
43	1431
44	380
45	130
49	60
50	350
51	791
52	741
53	591
54	60
55	1742
56	170
57	511
58	30
59	30
61	40
62	130
63	4104
64	270
65	1792
66	400
67	811
68	260
69	641
70	80
71	40
72	260
73	270
74	70
75	90
76	100
77	1762
78	591
79	2222
80	280
81	1592
82	240
83	220
84	120
85	130
89	120
90	90
91	7266
92	1502
93	4304
94	360
95	3944
96	981
97	430
98	30
102	40
103	320
104	210
105	981
106	210
107	671
108	501
109	6896
110	3964
111	380
115	150
116	40
117	460
118	100
119	6085
120	631
121	250
122	50
123	460
124	70
133	420
134	611
135	280
136	70
137	1772
138	170
145	30
149	90
151	270
152	1522
153	170
157	80
159	30
163	250
164	30
173	40
179	160
185	110
186	50
187	40
193	30
199	9999
200	1101
201	3313
202	360
203	20
207	290
208	60
242	921
243	120
244	300
245	30
