Mass Spectrum: 3-Triisobutyloxyhex-4-yne
Formula: C18 H36 O Si
Molecular weight: 296
Origin: Zaikin V.G., TIPS RAS, Moscow, Russia
m/z	RELATIVE INTENSITY
26	20
27	60
28	20
29	60
39	150
40	50
41	320
42	50
43	110
44	40
45	250
47	160
53	100
55	70
56	90
57	90
58	40
59	611
60	80
61	1021
62	70
63	50
67	50
69	200
70	50
71	60
73	80
74	70
75	110
77	70
79	100
81	70
82	40
83	531
84	90
85	480
86	60
87	170
95	30
96	30
97	440
98	110
99	220
100	20
101	150
103	200
105	30
109	160
111	90
112	60
113	60
123	220
124	50
125	1461
126	240
127	2623
128	310
129	110
139	140
140	30
141	290
142	40
143	170
153	30
155	360
156	40
159	50
167	30
181	130
182	60
183	9999
184	1481
185	440
186	30
193	30
211	150
227	30
239	440
240	90
243	170
244	30
