Mass Spectrum: m-Toluic acid, 2-tetradecyl ester
Formula: C22 H36 O2
Molecular weight: 332
Origin: Zaikin V.G., TIPS RAS, Moscow, Russia
m/z	RELATIVE INTENSITY
26	80
27	210
28	170
29	440
39	290
40	50
41	1211
42	330
43	1451
44	110
45	40
50	40
51	60
53	90
54	200
55	1542
56	931
57	1251
58	110
63	90
64	30
65	561
66	50
67	300
68	330
69	1211
70	991
71	601
72	20
77	110
79	60
81	220
82	470
83	1231
84	711
85	370
89	170
90	190
91	2783
92	350
93	521
94	40
95	110
96	330
97	1331
98	490
99	80
105	50
109	50
110	220
111	811
112	350
113	50
118	100
119	9999
120	991
121	80
124	100
125	390
126	240
127	30
134	130
135	100
136	2052
137	8978
138	851
139	180
140	150
152	70
153	100
154	150
163	180
167	60
168	210
196	1742
197	260
213	200
