Mass Spectrum: 4-Cyanobenzoic acid, pentyl ester
Formula: C13 H15 N O2
Molecular weight: 217
Origin: Zaikin V.G., TIPS RAS, Moscow, Russia
m/z	RELATIVE INTENSITY
26	140
27	811
28	30
29	911
31	30
37	30
38	70
39	591
40	120
41	1552
42	3714
43	851
44	120
45	40
49	30
50	521
51	861
52	190
53	110
54	90
55	3163
56	180
57	110
62	40
63	60
64	40
65	40
67	80
68	70
69	661
70	7496
71	450
73	30
74	180
75	1321
76	941
77	140
87	30
99	50
100	50
101	190
102	5845
103	981
104	400
105	30
119	30
129	40
130	9999
131	1021
132	70
145	50
147	380
148	4545
149	400
160	40
161	140
174	40
188	420
189	250
216	70
217	40
