Mass Spectrum: Pentafluorobenzoic acid, tridec-2-ynyl ester
Formula: C20 H23 F5 O2
Molecular weight: 390
Origin: Zaikin V.G., TIPS RAS, Moscow, Russia
m/z	RELATIVE INTENSITY
26	40
27	170
28	130
29	330
39	220
40	60
41	841
42	170
43	1051
44	130
50	30
51	90
52	230
53	240
54	230
55	891
56	230
57	390
64	30
65	140
66	190
67	681
68	220
69	511
70	130
71	150
77	300
78	120
79	1031
80	370
81	711
82	360
83	330
84	50
85	60
91	310
92	70
93	811
94	531
95	691
96	290
97	160
98	30
99	180
105	70
107	380
108	470
109	260
110	110
111	110
113	80
117	180
121	581
122	160
123	80
124	40
135	480
136	160
137	140
138	40
148	50
149	300
150	40
151	80
152	30
163	50
167	490
168	270
177	240
178	190
179	30
181	40
195	9999
196	681
197	40
212	100
213	80
263	150
264	110
265	40
278	80
305	70
