Mass Spectrum: o-Toluic acid, 5-pentadecyl ester
Formula: C23 H38 O2
Molecular weight: 346
Origin: Zaikin V.G., TIPS RAS, Moscow, Russia
m/z	RELATIVE INTENSITY
26	80
27	200
28	160
29	410
36	60
39	280
40	50
41	1151
42	260
43	1401
44	150
50	50
51	70
53	80
54	210
55	1471
56	671
57	1461
58	80
63	80
64	30
65	551
66	50
67	300
68	190
69	1121
70	631
71	761
72	30
77	150
79	110
81	220
82	280
83	931
84	430
85	470
89	180
90	370
91	2733
92	270
93	220
95	130
96	200
97	851
98	280
99	100
105	100
109	50
110	110
111	450
112	180
113	60
118	1912
119	8888
120	811
121	50
123	30
124	80
125	230
126	130
127	30
134	30
135	210
136	9999
137	2643
138	250
139	90
140	80
153	50
154	40
182	80
205	20
210	511
211	80
227	160
255	20
