Mass Spectrum: 4-Cyanobenzoic acid, butyl ester
Formula: C12 H13 N O2
Molecular weight: 203
Origin: Zaikin V.G., TIPS RAS, Moscow, Russia
m/z	RELATIVE INTENSITY
26	50
27	250
28	10
29	340
38	40
39	230
40	40
41	771
42	50
43	140
44	100
45	60
50	310
51	490
52	110
53	40
54	30
55	450
56	4134
57	300
61	30
62	30
63	40
69	50
73	80
74	150
75	951
76	661
77	100
79	20
83	30
99	50
100	50
101	150
102	4535
103	771
104	380
105	40
119	40
129	30
130	9999
131	1031
132	60
147	460
148	4795
149	450
150	30
158	160
159	20
160	60
161	330
162	30
174	30
175	160
188	230
201	30
202	50
203	170
204	30
