Mass Spectrum: 1-Dimethyldodecylsilyloxypent-2-en-4-yne
Formula: C19 H36 O Si
Molecular weight: 308
Origin: Zaikin V.G., TIPS RAS, Moscow, Russia
m/z	RELATIVE INTENSITY
25	10
26	70
27	110
29	160
31	10
35	10
36	110
37	10
38	60
39	310
40	60
41	511
42	160
43	631
44	170
45	150
47	80
50	30
51	30
52	40
53	70
54	70
55	410
56	220
57	300
58	80
59	2172
60	190
61	791
62	60
63	70
64	10
65	1001
66	90
67	150
68	50
69	541
70	150
71	260
72	60
73	370
74	90
75	1451
76	110
77	150
78	50
79	130
80	30
81	140
82	50
83	1972
84	220
85	531
86	60
87	390
88	50
89	120
90	10
91	50
92	10
93	100
94	10
95	581
96	110
97	430
98	160
99	1421
100	150
101	360
102	30
103	40
105	20
107	30
108	30
109	851
110	180
111	3714
112	470
113	541
114	100
115	170
116	20
117	20
119	10
121	90
122	20
123	220
124	150
125	9999
126	1251
127	751
128	90
129	120
130	10
131	10
133	20
135	40
137	90
138	80
139	7456
140	5925
141	1702
142	360
143	110
144	10
147	10
149	50
151	50
152	10
153	80
154	30
155	90
156	10
157	50
163	10
165	20
166	10
167	80
168	20
169	20
171	20
179	10
181	50
182	10
183	10
185	10
193	10
195	20
197	10
199	20
211	20
223	10
224	20
225	30
226	10
227	581
228	120
229	80
230	10
235	10
237	10
247	10
249	10
255	290
256	60
257	10
263	90
264	20
265	50
266	10
293	250
294	60
295	10
308	10
