Mass Spectrum: 2-Fluorobenzoic acid, tridec-2-ynyl ester
Formula: C20 H27 F O2
Molecular weight: 318
Origin: Zaikin V.G., TIPS RAS, Moscow, Russia
m/z	RELATIVE INTENSITY
27	60
28	50
29	130
39	80
41	300
42	50
43	290
51	30
52	80
53	90
54	70
55	260
56	60
57	90
65	50
66	60
67	190
68	40
69	110
70	30
75	90
77	110
78	30
79	290
80	80
81	150
82	40
83	40
91	110
93	180
94	100
95	390
96	80
97	30
107	60
108	50
109	40
111	30
121	70
123	9999
124	641
125	40
135	60
140	50
141	200
151	50
191	120
192	70
195	40
