Mass Spectrum: Butyldimethylsilyloxybenzene
Formula: C12 H20 O Si
Molecular weight: 208
Origin: Zaikin V.G., TIPS RAS, Moscow, Russia
m/z	RELATIVE INTENSITY
26	40
27	50
28	10
29	40
39	50
41	40
43	90
44	30
45	100
47	40
51	100
58	30
59	310
60	20
61	80
65	50
73	30
75	300
76	200
77	410
78	50
81	30
83	30
85	30
91	370
92	30
95	210
97	30
109	70
121	290
122	30
123	80
135	280
136	40
137	2002
138	260
139	90
149	90
150	30
151	9999
152	1221
153	390
154	30
163	30
193	631
194	110
195	30
208	2232
210	110
