Mass Spectrum: l-Proline, N-pivaloyl-, methyl ester
Formula: C11 H19 N O3
Molecular weight: 213
Origin: Zaikin V.G., TIPS RAS, Moscow, Russia
m/z	RELATIVE INTENSITY
26	70
27	300
28	20
29	751
30	50
31	30
38	30
39	490
40	150
41	2172
42	821
43	350
44	230
45	30
53	90
54	70
55	320
56	240
57	9999
58	440
59	300
67	70
68	761
69	891
70	7106
71	380
82	170
83	90
84	190
85	3864
86	220
87	70
96	110
97	60
98	240
99	30
110	50
112	50
114	70
125	30
126	40
127	130
128	4344
129	320
130	70
138	250
139	30
153	30
154	9478
155	931
156	110
158	90
170	340
171	60
181	80
182	240
198	40
213	1131
214	180
