Mass Spectrum: Nicotinic acid, nonyl ester
Formula: C15 H23 N O2
Molecular weight: 249
Origin: Zaikin V.G., TIPS RAS, Moscow, Russia
m/z	RELATIVE INTENSITY
26	70
27	250
28	170
29	430
39	230
40	50
41	1081
42	450
43	1101
44	100
50	150
51	721
52	160
53	110
54	190
55	1281
56	1071
57	420
67	180
68	190
69	881
70	711
71	130
76	30
77	160
78	2673
79	2152
80	330
81	70
82	90
83	400
84	260
85	50
93	220
94	20
96	30
97	240
98	170
105	420
106	5454
107	3624
108	280
120	100
121	160
122	40
123	571
124	9999
125	681
126	60
134	50
135	70
137	551
138	40
148	30
149	70
150	290
151	651
152	60
162	60
163	70
164	901
165	671
166	60
176	30
177	80
178	971
179	200
192	1071
193	140
204	60
205	70
206	1191
207	210
220	480
221	100
234	280
235	40
248	290
249	160
250	70
