Mass Spectrum: l-Methionine, N-(p-toluoyl)-, methyl ester
Formula: C14 H19 N O3 S
Molecular weight: 281
Origin: Zaikin V.G., TIPS RAS, Moscow, Russia
m/z	RELATIVE INTENSITY
26	30
27	60
29	30
31	10
33	10
35	20
36	10
38	10
39	110
40	10
41	120
42	20
43	10
44	60
45	70
46	30
47	80
48	30
49	20
50	30
51	50
52	10
53	10
54	20
55	20
56	90
57	10
58	10
59	70
60	10
61	230
62	20
63	90
64	30
65	511
66	30
73	10
74	70
75	180
76	20
77	30
85	10
86	10
87	40
88	200
89	190
90	190
91	2062
92	180
93	20
99	10
102	20
103	10
104	10
105	20
109	20
114	130
115	10
116	20
117	50
118	120
119	9999
120	961
121	70
127	10
131	20
132	10
134	10
135	10
136	90
137	10
141	30
144	10
145	10
146	40
147	731
148	90
160	20
161	20
162	420
163	30
164	20
165	10
173	20
174	110
175	2392
176	270
177	20
180	10
188	220
189	110
190	20
201	10
202	20
206	40
207	2653
219	10
220	390
221	50
222	110
223	10
234	80
235	10
249	20
250	10
282	30
283	10
