Mass Spectrum: 4-Fluorobenzoic acid, hex-4-yn-3-yl ester
Formula: C13 H13 F O2
Molecular weight: 220
Origin: Zaikin V.G., TIPS RAS, Moscow, Russia
m/z	RELATIVE INTENSITY
26	60
27	240
28	40
29	100
38	50
39	460
40	150
41	551
43	60
44	130
50	190
51	250
52	170
53	651
54	50
55	90
57	40
63	70
65	220
66	120
67	90
68	50
69	300
70	30
74	80
75	631
76	70
77	390
78	80
79	2422
80	741
81	460
82	30
94	130
95	2052
96	220
97	390
102	30
122	30
123	9999
124	691
125	30
140	100
141	70
150	60
177	30
191	170
192	240
205	571
206	60
220	70
