Mass Spectrum: 5-Cyclohexyldimethylsilyloxy-2,6-dimethylnon-1-en-3-yne
Formula: C19 H34 O Si
Molecular weight: 306
Origin: Zaikin V.G., TIPS RAS, Moscow, Russia
m/z	RELATIVE INTENSITY
26	70
27	150
28	50
29	130
31	40
39	270
40	70
41	531
42	100
43	370
44	50
45	110
47	140
50	50
51	80
52	60
53	150
54	150
55	400
56	30
57	30
58	70
59	2603
60	210
61	521
62	40
63	50
65	120
66	60
67	270
69	80
71	60
73	310
74	60
75	4154
76	320
77	531
78	240
79	340
80	70
81	881
82	160
83	240
85	120
87	30
89	130
91	420
92	90
93	160
94	20
95	90
96	30
97	200
98	60
99	220
101	70
103	70
105	200
106	110
107	220
108	50
109	490
110	70
111	160
112	70
113	220
115	310
116	40
117	70
119	130
121	80
122	80
123	6766
124	881
125	521
126	50
127	50
129	80
133	110
135	50
137	480
138	150
139	230
140	30
141	360
142	50
143	100
147	430
148	110
149	1131
150	130
151	350
152	110
153	9999
154	1371
155	440
156	30
157	1091
158	150
159	80
161	30
163	70
165	140
167	250
168	40
169	40
177	40
179	300
180	70
181	250
182	90
191	60
193	400
194	70
195	50
205	80
209	250
210	40
223	2172
224	831
225	220
226	30
235	4985
236	1001
237	260
249	40
263	40
264	90
265	30
277	30
291	90
306	90
