Mass Spectrum: 2-Fluorobenzoic acid, 2-methylphenyl ester
Formula: C14 H11 F O2
Molecular weight: 230
Origin: Zaikin V.G., TIPS RAS, Moscow, Russia
m/z	RELATIVE INTENSITY
28	30
39	70
50	80
51	110
52	50
53	40
63	40
65	40
68	30
69	60
74	50
75	400
76	40
77	240
78	120
79	70
94	100
95	1471
96	130
107	120
108	90
122	30
123	9999
124	661
125	40
157	40
230	831
231	120
