Mass Spectrum: l-Alanine, N-(2-thienylcarbonyl)-, methyl ester
Formula: C9 H11 N O3 S
Molecular weight: 213
Origin: Zaikin V.G., TIPS RAS, Moscow, Russia
m/z	RELATIVE INTENSITY
27	30
28	10
38	30
39	721
40	30
42	110
44	100
45	90
53	30
57	110
58	60
59	70
70	50
81	40
82	90
83	400
84	70
102	60
110	40
111	9999
112	581
113	400
154	4364
155	360
156	200
180	40
181	20
182	30
213	551
214	60
215	30
