Mass Spectrum: 6-Bromohexanoic acid, 2,6-dimethylnon-1-en-3-yn-5-yl ester
Formula: C17 H27 Br O2
Molecular weight: 342
Origin: Zaikin V.G., TIPS RAS, Moscow, Russia
m/z	RELATIVE INTENSITY
26	170
27	731
29	581
37	30
38	70
39	881
40	200
41	3393
42	611
43	1782
44	110
45	60
50	100
51	270
52	210
53	490
54	120
55	1421
56	130
57	180
60	270
62	40
63	170
64	70
65	551
66	330
67	561
68	120
69	9999
70	731
71	400
72	50
73	100
76	30
77	1291
78	581
79	1091
80	390
81	661
82	811
83	501
84	80
85	30
89	50
90	30
91	2162
92	641
93	1181
94	250
95	1552
96	460
97	490
98	80
99	60
103	220
104	130
105	1381
106	1361
107	1271
108	210
109	2773
110	320
111	370
112	30
115	170
116	40
117	200
118	50
119	1872
120	561
121	340
122	90
123	1672
124	8387
125	771
126	50
131	60
132	40
133	2062
134	280
135	80
136	410
137	1121
138	200
147	120
148	1982
149	881
150	60
151	1011
152	110
165	841
166	1842
167	260
168	30
177	3133
178	200
179	3053
180	190
193	501
194	60
221	30
243	30
245	30
271	110
272	40
273	120
274	40
299	751
300	100
301	721
302	100
327	90
329	80
342	40
344	30
