Mass Spectrum: l-Methionine, N-(2,3,4-trifluorobenzoyl)-, methyl ester
Formula: C13 H14 F3 N O3 S
Molecular weight: 321
Origin: Zaikin V.G., TIPS RAS, Moscow, Russia
m/z	RELATIVE INTENSITY
27	90
28	10
33	40
35	70
39	30
41	160
42	30
44	80
45	130
46	60
47	170
48	50
49	40
54	80
55	40
56	120
57	50
59	130
60	30
61	1662
62	110
63	100
74	100
75	400
81	490
82	30
86	50
87	100
88	1041
89	40
99	80
102	30
112	80
113	30
114	310
130	70
131	1632
132	190
140	40
141	40
145	30
147	60
157	40
158	70
159	9999
160	1381
161	100
162	270
168	30
176	120
187	531
188	80
200	70
213	80
214	561
215	4294
216	450
217	30
228	1001
229	140
241	90
242	70
246	50
247	5084
248	561
249	60
260	941
261	120
262	330
263	40
273	30
274	200
289	50
321	460
322	80
323	30
