Mass Spectrum: 2,6-Dimethyl-5-dimethyloctylsilyloxynon-1-en-3-yne
Formula: C21 H40 O Si
Molecular weight: 336
Origin: Zaikin V.G., TIPS RAS, Moscow, Russia
m/z	RELATIVE INTENSITY
26	100
27	240
28	100
29	250
39	250
40	70
41	581
42	240
43	641
44	40
45	80
47	90
50	30
51	50
52	30
53	90
54	30
55	370
56	130
57	90
58	70
59	3213
60	230
61	601
62	40
63	50
65	90
66	50
67	90
69	200
70	100
71	100
72	40
73	511
74	70
75	2593
76	200
77	360
78	180
79	210
81	50
83	150
84	30
85	210
86	30
87	380
88	30
89	110
91	360
92	90
93	150
94	30
95	80
96	30
97	140
98	40
99	340
100	30
101	210
103	60
105	180
106	120
107	160
108	40
109	440
110	60
111	170
112	50
113	150
115	190
117	50
119	110
121	40
122	50
123	4655
124	591
125	340
126	30
127	80
129	70
133	110
135	50
137	330
138	100
139	120
141	40
143	60
147	130
148	70
149	350
150	40
151	170
152	70
153	9999
154	1271
155	400
156	30
157	270
158	30
163	30
165	100
167	90
171	270
172	40
173	40
179	150
180	30
181	90
182	40
189	30
191	30
193	110
199	30
209	160
210	30
223	320
224	170
225	30
265	2032
266	420
267	100
279	50
293	30
294	50
321	50
336	40
