Mass Spectrum: Nicotinic acid, cyclobutyl ester
Formula: C10 H11 N O2
Molecular weight: 177
Origin: Zaikin V.G., TIPS RAS, Moscow, Russia
m/z	RELATIVE INTENSITY
26	40
27	180
28	30
29	80
39	120
41	50
50	180
51	781
52	120
53	70
54	40
55	150
76	30
77	80
78	2683
79	220
93	40
105	50
106	9999
107	621
108	40
121	1161
122	90
123	40
124	80
132	40
148	160
149	821
150	80
176	50
