Mass Spectrum: Octanoic acid, pent-2-en-4-ynyl ester
Formula: C13 H20 O2
Molecular weight: 208
Origin: Zaikin V.G., TIPS RAS, Moscow, Russia
m/z	RELATIVE INTENSITY
26	90
27	410
28	240
29	611
38	80
39	1101
40	110
41	1311
42	300
43	2042
44	180
45	50
50	90
51	140
52	120
53	220
54	100
55	1231
56	180
57	9999
58	440
59	140
60	100
62	50
63	290
64	220
65	2412
66	450
67	410
68	40
69	190
70	60
71	150
73	80
77	40
78	30
79	140
80	30
81	410
82	761
83	691
84	120
85	80
87	40
91	50
93	50
95	100
96	60
97	410
98	90
101	60
105	30
107	70
109	741
110	60
123	90
124	130
125	360
126	30
127	7386
128	641
129	40
137	100
143	30
165	30
179	20
208	440
209	60
