Mass Spectrum: Glycine, N-(4-butylbenzoyl)-, methyl ester
Formula: C14 H19 N O3
Molecular weight: 249
Origin: Zaikin V.G., TIPS RAS, Moscow, Russia
m/z	RELATIVE INTENSITY
27	40
28	10
29	30
39	40
41	50
44	30
51	30
55	40
56	30
63	30
65	90
77	110
78	40
79	30
89	140
90	350
91	731
92	70
103	100
104	70
105	80
115	50
116	30
117	40
118	340
119	70
131	110
132	40
133	80
159	50
161	9999
162	1001
163	70
178	30
189	30
190	521
191	70
206	90
217	200
218	120
249	1091
250	170
