Mass Spectrum: l-Serine, N,O-bis(4-fluorobenzoyl)-, methyl ester
Formula: C18 H15 F2 N O5
Molecular weight: 363
Origin: Zaikin V.G., TIPS RAS, Moscow, Russia
m/z	RELATIVE INTENSITY
28	50
41	30
44	60
50	40
69	40
74	30
75	270
76	30
94	80
95	1552
96	170
109	30
121	30
122	50
123	9999
124	641
125	40
140	150
141	30
164	1582
165	180
191	260
192	70
193	30
223	611
224	80
240	220
262	450
263	70
304	80
333	30
