Mass Spectrum: l-Proline, N-capryloyl-, methyl ester
Formula: C14 H25 N O3
Molecular weight: 255
Origin: Zaikin V.G., TIPS RAS, Moscow, Russia
m/z	RELATIVE INTENSITY
27	110
28	50
29	140
39	80
41	430
42	160
43	310
44	50
53	30
55	290
56	50
57	460
59	40
67	50
68	190
69	180
70	9999
71	400
82	30
83	70
84	40
85	30
96	30
97	40
98	40
111	30
112	440
113	40
124	50
127	90
128	280
129	70
130	160
139	50
171	1361
172	130
184	140
196	871
197	120
198	30
223	80
224	50
255	210
256	50
