Mass Spectrum: 2-Fluorobenzoic acid, pent-2-en-4-ynyl ester
Formula: C12 H9 F O2
Molecular weight: 204
Origin: Zaikin V.G., TIPS RAS, Moscow, Russia
m/z	RELATIVE INTENSITY
28	170
38	40
39	270
40	30
44	110
50	110
51	90
52	30
62	40
63	200
64	100
65	430
66	30
68	40
69	80
74	60
75	460
76	60
77	30
94	90
95	1261
96	140
97	30
123	9999
124	761
125	40
133	50
140	110
141	30
159	90
204	120
