Mass Spectrum: 1-Butyldimethylsilyloxy-2-methylbenzene
Formula: C13 H22 O Si
Molecular weight: 222
Origin: Zaikin V.G., TIPS RAS, Moscow, Russia
m/z	RELATIVE INTENSITY
26	50
27	70
28	20
29	50
31	50
39	80
41	80
43	130
44	50
45	100
47	40
51	40
58	50
59	781
60	60
61	100
63	30
65	220
67	30
73	90
74	30
75	350
76	80
77	140
78	50
79	80
82	120
83	360
85	40
89	80
90	60
91	3153
92	260
95	40
103	60
105	240
107	40
109	30
115	40
121	110
123	30
131	30
133	70
135	1281
136	170
137	110
147	110
148	50
149	1612
150	260
151	1922
152	270
153	80
161	60
163	290
164	90
165	9999
166	1411
167	420
168	30
222	4414
223	801
224	220
