Mass Spectrum: l-Serine, N,O-bis(2,3,4-trifluorobenzoyl)-, methyl ester
Formula: C18 H11 F6 N O5
Molecular weight: 435
Origin: Zaikin V.G., TIPS RAS, Moscow, Russia
m/z	RELATIVE INTENSITY
28	10
41	30
44	50
62	30
81	330
112	60
130	40
131	971
132	120
140	30
145	30
158	30
159	9999
160	641
161	40
172	70
176	130
200	2352
201	260
215	30
227	150
228	40
244	30
246	100
259	430
260	60
276	60
334	350
335	50
376	490
377	90
404	30
405	30
