Mass Spectrum: o-Toluic acid, 4-tetradecyl ester
Formula: C22 H36 O2
Molecular weight: 332
Origin: Zaikin V.G., TIPS RAS, Moscow, Russia
m/z	RELATIVE INTENSITY
26	60
27	160
28	120
29	320
39	210
40	30
41	921
42	230
43	1161
44	110
50	30
51	50
53	70
54	130
55	1121
56	531
57	1071
58	50
63	60
65	440
66	30
67	200
68	130
69	791
70	521
71	571
72	30
77	110
79	70
81	120
82	190
83	661
84	360
85	350
86	30
89	150
90	290
91	2132
92	220
93	180
95	60
96	120
97	561
98	220
99	70
105	110
110	70
111	310
112	140
113	30
118	1752
119	7727
120	711
121	50
124	50
125	170
126	100
135	170
136	9999
137	2603
138	240
139	60
140	50
153	40
154	30
168	70
191	20
196	440
197	70
213	160
332	30
