Mass Spectrum: 4-Bromobutanoic acid, pent-2-en-4-ynyl ester
Formula: C9 H11 Br O2
Molecular weight: 230
Origin: Zaikin V.G., TIPS RAS, Moscow, Russia
m/z	RELATIVE INTENSITY
26	130
27	480
28	20
29	110
37	80
38	370
39	2442
40	190
41	3944
42	951
43	200
44	210
45	100
49	50
50	350
51	430
52	310
53	330
54	150
55	280
56	30
57	30
60	170
61	50
62	200
63	1001
64	641
65	3644
66	360
67	40
68	50
69	130
75	30
77	80
78	50
79	260
80	310
81	1011
82	4094
83	240
85	190
87	70
91	90
93	180
94	30
95	240
105	100
107	100
108	20
109	591
110	30
121	2803
122	100
123	2833
124	120
148	30
149	9999
150	480
151	9799
152	440
155	30
157	30
165	40
167	40
183	70
185	70
200	100
202	100
230	90
232	90
