Mass Spectrum: 2-Diphenylethenylsilyloxybut-3-yne
Formula: C18 H18 O Si
Molecular weight: 278
Origin: Zaikin V.G., TIPS RAS, Moscow, Russia
m/z	RELATIVE INTENSITY
25	30
26	180
27	200
28	10
29	30
39	110
41	30
43	50
44	80
45	1051
46	50
47	50
49	30
50	230
51	460
52	220
53	651
54	50
55	110
63	60
65	30
67	30
71	80
72	20
73	30
74	60
75	50
76	120
77	1572
78	1001
79	340
80	50
81	40
89	40
90	40
91	160
92	30
93	30
95	30
96	70
97	370
98	80
99	40
100	40
102	170
103	380
104	631
105	1902
106	350
107	260
108	30
115	621
116	90
117	90
118	30
121	410
122	781
123	1792
124	270
125	80
126	50
127	140
128	1512
129	1522
130	1502
131	1742
132	360
133	140
134	50
136	70
137	50
139	30
141	260
142	80
143	60
144	30
145	50
146	40
147	1502
148	621
149	1522
150	250
151	160
152	460
153	220
154	230
155	701
156	651
157	3534
158	601
159	180
160	100
161	210
162	60
165	130
166	70
167	80
168	30
171	60
172	70
173	971
174	6245
175	1141
176	330
177	50
178	160
179	200
180	551
181	2062
182	480
183	1852
184	340
185	450
186	70
187	340
188	60
189	40
191	70
193	30
197	651
198	130
199	1942
200	2202
201	931
202	220
203	90
204	120
205	280
206	170
207	9999
208	2192
209	1922
210	400
211	100
217	60
218	30
219	70
220	280
221	110
222	30
223	110
224	80
225	100
226	110
231	70
232	40
233	390
234	1702
235	501
236	140
237	190
238	40
244	30
245	110
246	30
248	50
249	120
250	721
251	1061
252	230
253	60
259	30
260	50
261	40
262	30
263	3684
264	861
265	220
277	1331
278	3884
279	991
280	240
