Mass Spectrum: 4-Chlorobenzoic acid, but-3-yn-2-yl ester
Formula: C11 H9 Cl O2
Molecular weight: 208
Origin: Zaikin V.G., TIPS RAS, Moscow, Russia
m/z	RELATIVE INTENSITY
27	120
28	10
36	30
44	30
50	230
51	200
52	230
53	631
54	30
69	60
74	120
75	681
76	160
77	80
85	90
87	20
104	60
110	40
111	1512
112	180
113	531
114	60
127	60
128	140
129	310
130	30
135	30
139	9999
140	821
141	3093
142	270
145	70
149	50
152	30
156	350
157	120
158	120
159	60
163	70
165	40
173	90
180	40
208	1091
209	140
210	360
211	40
