Mass Spectrum: l-Methionine, N-pivaloyl-, methyl ester
Formula: C11 H21 N O3 S
Molecular weight: 247
Origin: Zaikin V.G., TIPS RAS, Moscow, Russia
m/z	RELATIVE INTENSITY
26	70
27	280
28	20
29	771
30	90
31	50
33	80
35	110
36	30
39	330
40	90
41	1602
42	340
43	120
44	190
45	300
46	120
47	270
48	130
49	60
53	50
54	130
55	310
56	1181
57	9999
58	511
59	360
60	70
61	2352
62	110
63	110
68	50
69	420
70	180
71	90
73	40
74	330
75	611
76	30
77	40
82	70
83	190
84	190
85	3203
86	390
87	280
88	1712
89	991
90	170
91	30
96	40
98	100
99	90
100	120
101	50
102	551
103	60
104	310
105	30
111	80
112	50
113	501
114	911
115	180
116	200
117	70
124	100
126	70
127	40
130	50
131	130
135	70
139	40
140	531
141	6946
142	721
143	80
144	30
145	40
146	40
147	50
154	1101
155	290
156	30
158	30
162	2072
163	180
164	120
167	150
168	140
172	250
173	6846
174	661
175	70
184	190
185	40
186	1552
187	160
188	591
189	60
190	40
199	40
200	611
201	60
204	60
215	70
216	70
232	40
247	1171
248	210
249	70
