Mass Spectrum: 2,6-Difluorobenzoic acid, 2-pentadecyl ester
Formula: C22 H34 F2 O2
Molecular weight: 368
Origin: Zaikin V.G., TIPS RAS, Moscow, Russia
m/z	RELATIVE INTENSITY
26	60
27	180
28	150
29	380
39	190
40	40
41	1131
42	320
43	1471
44	120
45	30
50	40
53	80
54	220
55	1542
56	891
57	1361
58	90
63	280
67	310
68	310
69	1261
70	901
71	701
72	30
77	30
79	50
81	230
82	480
83	1281
84	661
85	420
91	30
93	50
94	70
95	140
96	350
97	1461
98	480
99	90
109	50
110	210
111	881
112	360
113	811
114	200
123	60
124	130
125	460
126	250
127	40
138	80
139	250
140	260
141	9999
142	801
143	60
152	50
153	110
154	130
155	30
156	230
157	40
158	300
159	5535
160	430
161	80
166	60
167	90
168	160
169	60
181	50
182	220
183	30
185	80
210	1642
211	270
227	140
