Mass Spectrum: 4-Bromobutanoic acid, tridec-2-ynyl ester
Formula: C17 H29 Br O2
Molecular weight: 344
Origin: Zaikin V.G., TIPS RAS, Moscow, Russia
m/z	RELATIVE INTENSITY
26	170
27	631
28	10
29	961
37	30
38	60
39	811
40	220
41	3944
42	631
43	2122
44	190
45	90
50	70
51	220
52	591
53	631
54	551
55	2002
56	511
57	721
58	110
59	70
60	190
63	30
64	40
65	360
66	450
67	1542
68	480
69	1051
70	891
71	771
72	80
77	681
78	270
79	2142
80	801
81	1562
82	851
83	781
84	531
85	260
86	70
87	410
91	721
92	150
93	1341
94	731
95	1542
96	651
97	1101
98	230
99	150
100	150
105	160
106	50
107	601
108	360
109	521
110	300
111	4815
112	531
113	210
114	200
119	50
120	30
121	2082
122	260
123	1642
124	270
125	711
126	140
127	160
128	160
135	440
136	260
137	130
138	400
139	170
140	30
141	40
148	70
149	9999
150	551
151	9789
152	1091
153	210
155	70
163	60
164	70
165	30
166	70
167	120
169	50
172	40
177	270
178	180
179	130
181	110
190	30
191	40
192	60
194	30
195	280
196	380
197	70
204	30
206	70
217	330
218	160
219	370
220	180
221	20
223	30
231	50
233	60
251	60
