Mass Spectrum: Isonicotinic acid, cyclobutyl ester
Formula: C10 H11 N O2
Molecular weight: 177
Origin: Zaikin V.G., TIPS RAS, Moscow, Russia
m/z	RELATIVE INTENSITY
26	50
27	160
28	30
29	90
39	130
41	60
42	30
50	260
51	1051
52	140
53	70
54	60
55	170
76	30
77	60
78	3113
79	260
93	40
105	50
106	9999
107	601
108	30
121	1481
122	120
123	470
124	80
131	40
132	70
148	90
149	1642
150	160
159	120
176	40
177	30
