Mass Spectrum: l-Proline, N-(2,6-difluorobenzoyl)-, methyl ester
Formula: C13 H13 F2 N O3
Molecular weight: 269
Origin: Zaikin V.G., TIPS RAS, Moscow, Russia
m/z	RELATIVE INTENSITY
27	60
28	30
39	90
40	40
41	300
42	140
44	50
59	50
62	40
63	390
68	110
69	80
93	70
94	50
112	100
113	1051
114	130
123	30
128	70
140	80
141	9999
142	641
143	40
181	30
210	3263
211	380
269	240
270	30
