Mass Spectrum: l-Phenylalanine, N-(m-anisoyl)-, methyl ester
Formula: C18 H19 N O4
Molecular weight: 313
Origin: Zaikin V.G., TIPS RAS, Moscow, Russia
m/z	RELATIVE INTENSITY
26	20
27	20
29	10
31	10
38	10
39	50
41	10
44	40
50	40
51	60
52	10
53	10
59	20
62	10
63	100
64	180
65	130
66	10
74	10
75	20
76	100
77	841
78	100
79	40
89	30
90	30
91	470
92	681
93	60
102	20
103	100
104	70
105	20
106	20
107	1121
108	110
109	10
116	10
117	30
118	40
119	50
120	40
121	70
122	10
130	10
131	290
132	30
133	40
134	30
135	9999
136	741
137	60
150	160
151	5835
152	511
153	40
161	90
162	390
163	50
164	10
165	10
178	30
191	10
222	50
223	10
235	10
252	10
253	20
254	380
255	60
282	30
313	150
314	30
