Mass Spectrum: 1,3-Difluoro-5-octyldimethylsilyloxybenzene
Formula: C16 H26 F2 O Si
Molecular weight: 300
Origin: Zaikin V.G., TIPS RAS, Moscow, Russia
m/z	RELATIVE INTENSITY
27	40
28	20
29	50
39	70
41	110
42	30
43	110
53	100
55	50
58	30
59	300
63	200
69	30
73	40
75	50
77	410
78	30
79	50
81	470
82	40
83	40
85	50
87	30
89	30
91	50
97	30
99	120
101	40
109	70
111	40
113	130
114	30
127	140
130	50
155	210
156	30
157	230
159	30
169	30
170	30
171	140
172	30
173	1281
174	170
175	50
185	90
186	50
187	9999
188	1401
189	400
190	30
199	70
201	60
213	110
215	50
285	941
286	200
287	50
300	1932
301	440
302	110
