Mass Spectrum: 2-Chlorobenzoic acid, 3-tetradecyl ester
Formula: C21 H33 Cl O2
Molecular weight: 352
Origin: Zaikin V.G., TIPS RAS, Moscow, Russia
m/z	RELATIVE INTENSITY
26	70
27	160
28	140
29	350
39	140
40	30
41	841
42	240
43	1061
44	90
50	90
51	60
53	50
54	160
55	1081
56	741
57	1101
58	50
65	30
67	240
68	230
69	1051
70	891
71	571
72	70
74	30
75	290
76	170
77	150
78	30
79	30
81	170
82	390
83	1071
84	671
85	400
95	100
96	290
97	1161
98	450
99	70
104	160
105	110
109	40
110	210
111	1802
112	490
113	410
114	40
121	50
124	100
125	370
126	240
127	30
138	100
139	9999
140	901
141	3083
142	230
152	40
153	80
154	190
156	380
157	5204
158	490
159	1662
160	120
167	100
168	210
196	1502
197	230
213	280
214	30
