Mass Spectrum: 6-Bromohexanoic acid, 2,7-dimethyloct-7-en-5-yn-4-yl ester
Formula: C16 H25 Br O2
Molecular weight: 328
Origin: Zaikin V.G., TIPS RAS, Moscow, Russia
m/z	RELATIVE INTENSITY
25	30
26	230
27	1121
28	20
29	701
37	50
38	110
39	1211
40	420
41	4494
42	661
43	2513
44	350
45	60
50	170
51	460
52	270
53	621
54	140
55	1912
56	200
57	360
58	20
60	470
61	30
62	60
63	240
64	160
65	791
66	390
67	911
68	330
69	9999
70	641
71	110
73	180
74	40
75	40
76	70
77	1822
78	460
79	1642
80	561
81	1682
82	480
83	220
84	100
85	130
89	90
90	80
91	3824
92	1582
93	1892
94	370
95	2072
96	731
97	671
98	60
102	30
103	240
104	160
105	1051
106	260
107	1221
108	460
109	5515
110	3283
111	290
112	30
115	210
116	40
117	350
118	80
119	6776
120	721
121	210
122	30
123	501
124	130
132	30
133	511
134	1011
135	410
136	190
137	1331
138	170
149	290
150	60
151	871
152	2432
153	290
154	30
163	70
165	30
177	1882
178	120
179	2032
180	130
193	80
243	30
245	30
259	20
271	60
272	30
273	60
274	30
285	4334
286	571
287	4184
288	551
289	40
328	160
330	150
