Mass Spectrum: 2-Chlorobenzoic acid, 2-methyloct-5-yn-4-yl ester
Formula: C16 H19 Cl O2
Molecular weight: 278
Origin: Zaikin V.G., TIPS RAS, Moscow, Russia
m/z	RELATIVE INTENSITY
26	30
27	130
28	50
29	130
39	190
40	40
41	420
42	30
43	360
44	40
50	110
51	110
52	50
53	150
55	270
56	40
57	80
63	30
65	130
66	70
67	170
68	40
69	200
74	40
75	340
76	140
77	350
78	80
79	721
80	190
81	551
82	40
83	50
85	30
91	340
92	70
93	911
94	180
95	90
97	40
98	30
104	50
105	110
107	1021
108	100
111	931
112	120
113	310
114	30
121	50
122	400
123	80
124	70
139	9999
140	691
141	2913
142	230
156	100
157	100
158	40
159	40
181	60
221	30
222	110
223	40
224	30
235	1031
236	160
237	340
238	50
243	70
263	30
