Mass Spectrum: (Phenylthio)acetic acid, hex-4-yn-3-yl ester
Formula: C14 H16 O2 S
Molecular weight: 248
Origin: Zaikin V.G., TIPS RAS, Moscow, Russia
m/z	RELATIVE INTENSITY
26	50
27	170
28	30
29	90
38	40
39	410
40	100
41	561
42	70
43	90
44	160
45	1321
46	70
47	60
50	140
51	460
52	110
53	811
54	50
55	140
57	30
63	70
65	501
66	250
67	130
69	150
74	40
75	30
76	40
77	831
78	240
79	1331
80	220
81	2262
82	210
83	30
84	40
91	110
95	120
97	80
105	60
108	110
109	741
110	490
111	70
121	310
122	140
123	9999
124	891
125	470
126	40
139	501
140	40
147	40
150	70
151	150
168	681
169	70
170	30
175	70
189	330
190	40
218	30
248	3163
249	521
250	190
