Mass Spectrum: l-Valine, N-pivaloyl-, methyl ester
Formula: C11 H21 N O3
Molecular weight: 215
Origin: Zaikin V.G., TIPS RAS, Moscow, Russia
m/z	RELATIVE INTENSITY
26	40
27	250
28	10
29	761
30	110
31	40
33	90
36	30
39	390
40	90
41	1512
42	330
43	280
44	160
45	30
53	70
54	50
55	861
56	631
57	9999
58	470
59	480
60	70
68	50
69	430
70	370
71	100
72	2623
73	350
74	50
82	80
83	300
84	90
85	2993
86	260
87	80
88	891
89	150
98	721
99	60
100	110
101	110
102	2593
103	160
112	140
113	80
114	130
115	921
116	110
126	40
128	30
130	1672
131	130
132	80
140	260
141	821
142	90
155	60
156	8658
157	891
158	190
168	210
170	20
172	350
173	841
174	80
183	30
184	140
200	50
215	280
216	70
