Mass Spectrum: Isonicotinic acid, undec-10-enyl ester
Formula: C17 H25 N O2
Molecular weight: 275
Origin: Zaikin V.G., TIPS RAS, Moscow, Russia
m/z	RELATIVE INTENSITY
25	30
26	250
27	621
28	20
29	1061
31	30
36	30
37	30
38	60
39	851
40	190
41	3594
42	651
43	811
44	130
49	30
50	310
51	1431
52	290
53	440
54	2913
55	4234
56	581
57	290
65	80
66	210
67	3033
68	2192
69	2272
70	260
71	100
76	40
77	200
78	4064
79	1471
80	420
81	2222
82	1662
83	581
84	70
85	30
91	50
93	601
94	110
95	1692
96	761
97	220
98	40
105	280
106	8868
107	2382
108	180
109	541
110	320
111	80
118	30
119	2563
120	511
121	160
122	90
123	1051
124	9999
125	751
126	60
132	330
133	1371
134	220
135	80
136	30
137	290
138	40
146	1582
147	2783
148	310
149	140
150	781
151	160
152	60
160	430
161	581
162	140
163	60
164	4024
165	470
166	30
174	170
175	300
176	260
177	100
178	651
179	80
188	340
189	260
190	90
191	180
192	160
202	460
203	661
204	210
205	60
206	140
217	40
218	370
219	60
220	240
221	90
230	100
231	531
232	911
233	150
234	300
235	30
246	350
247	190
260	40
274	1181
275	731
276	130
