Mass Spectrum: Nicotinic acid, undecyl ester
Formula: C17 H27 N O2
Molecular weight: 277
Origin: Zaikin V.G., TIPS RAS, Moscow, Russia
m/z	RELATIVE INTENSITY
26	30
27	60
28	10
29	130
36	120
38	30
39	90
40	90
41	430
42	130
43	420
44	230
50	70
51	300
52	80
53	60
54	110
55	681
56	320
57	310
67	210
68	130
69	531
70	310
71	130
77	140
78	1802
79	1732
80	290
81	110
82	110
83	340
84	170
85	70
93	290
94	30
95	70
96	50
97	240
98	70
105	310
106	4024
107	3634
108	290
109	40
111	70
119	30
120	180
121	220
122	50
123	380
124	9999
125	811
126	70
134	80
135	150
137	420
138	30
148	40
149	120
150	220
151	751
152	80
162	80
163	110
164	781
165	701
166	70
176	80
177	80
178	1461
179	390
180	40
190	60
191	60
192	1361
193	220
204	30
205	110
206	1532
207	280
220	1371
221	300
222	30
232	110
233	190
234	1592
235	330
236	30
248	1692
249	320
250	30
262	851
263	150
276	460
277	360
278	100
