Mass Spectrum: o-Toluic acid, 4-tridecyl ester
Formula: C21 H34 O2
Molecular weight: 318
Origin: Zaikin V.G., TIPS RAS, Moscow, Russia
m/z	RELATIVE INTENSITY
26	100
27	310
28	230
29	591
38	30
39	380
40	60
41	1602
42	390
43	1852
44	210
50	50
51	90
52	30
53	120
54	210
55	1712
56	841
57	1592
58	70
63	110
64	40
65	771
66	60
67	290
68	200
69	1181
70	811
71	801
72	40
77	180
78	30
79	120
81	180
82	260
83	881
84	490
85	450
86	30
89	240
90	460
91	3323
92	340
93	260
95	80
96	150
97	671
98	300
99	80
105	90
109	30
110	100
111	360
112	180
113	40
118	2342
119	9458
120	861
121	60
124	40
125	180
126	90
135	200
136	9999
137	2703
138	240
139	70
140	50
154	80
182	410
183	50
191	30
199	130
