Mass Spectrum: 1-(Dimethyldodecylsilyloxy)butane
Formula: C18 H40 O Si
Molecular weight: 300
Origin: Zaikin V.G., TIPS RAS, Moscow, Russia
m/z	RELATIVE INTENSITY
27	60
28	30
29	90
39	40
41	190
42	70
43	200
45	50
47	30
55	140
56	90
57	130
58	30
59	350
60	30
61	300
69	50
70	40
71	40
73	30
75	1542
76	110
77	60
83	30
85	50
87	70
88	30
89	521
90	40
93	30
97	30
99	80
101	80
113	40
115	120
117	1001
118	110
119	40
131	9999
132	1051
133	380
145	30
157	30
285	1582
286	390
287	100
