Mass Spectrum: p-Toluic acid, 2-pentadecyl ester
Formula: C23 H38 O2
Molecular weight: 346
Origin: Zaikin V.G., TIPS RAS, Moscow, Russia
m/z	RELATIVE INTENSITY
26	70
27	170
28	150
29	370
39	280
40	50
41	1151
42	300
43	1361
44	140
45	30
50	50
51	70
52	30
53	80
54	190
55	1421
56	751
57	1161
58	100
63	90
65	551
66	50
67	320
68	280
69	1111
70	771
71	561
77	120
79	70
81	230
82	440
83	1091
84	551
85	330
89	170
90	190
91	2553
92	330
93	480
94	40
95	140
96	310
97	1231
98	390
99	70
105	60
107	70
109	50
110	170
111	711
112	290
113	40
118	100
119	9388
120	891
121	90
123	30
124	90
125	360
126	190
127	30
134	80
135	90
136	1932
137	9999
138	961
139	170
140	140
152	30
153	70
154	100
163	110
166	50
167	70
168	90
181	40
182	170
183	30
210	1311
211	220
227	190
228	30
346	20
