Mass Spectrum: 1-Dimethyldodecylsilyloxytridec-2-yne
Formula: C27 H54 O Si
Molecular weight: 422
Origin: Zaikin V.G., TIPS RAS, Moscow, Russia
m/z	RELATIVE INTENSITY
25	10
26	110
27	230
29	310
36	20
37	10
38	20
39	250
40	60
41	741
42	280
43	941
44	80
45	60
47	40
50	20
51	30
52	40
53	120
54	110
55	631
56	340
57	701
58	70
59	1692
60	130
61	470
62	30
63	20
65	50
66	40
67	420
68	100
69	400
70	220
71	190
72	30
73	300
74	50
75	9999
76	721
77	480
78	60
79	400
80	110
81	400
82	100
83	310
84	110
85	340
86	30
87	170
88	30
89	1141
90	100
91	190
92	40
93	470
94	120
95	460
96	160
97	410
98	90
99	450
100	50
101	771
102	70
103	120
104	10
105	70
106	20
107	370
108	70
109	340
110	60
111	360
112	120
113	671
114	150
115	350
116	40
117	40
119	140
120	20
121	340
122	50
123	180
124	30
125	350
126	150
127	1081
128	180
129	290
130	30
131	40
133	450
134	60
135	220
136	30
137	170
138	40
139	450
140	80
141	531
142	90
143	160
144	20
145	20
147	30
149	120
150	20
151	160
152	40
153	200
154	40
155	370
156	60
157	100
158	10
159	30
161	20
163	180
164	30
165	60
166	10
167	130
168	30
169	160
170	30
171	581
172	90
173	80
174	10
175	10
177	1111
178	250
179	100
180	10
181	100
182	20
183	50
185	2643
186	440
187	140
188	10
191	20
193	10
195	70
196	10
197	50
199	20
210	10
211	110
212	20
213	60
214	10
221	30
223	1552
224	340
225	150
226	20
227	40
229	290
230	60
231	10
233	20
235	350
236	90
237	100
238	20
239	2282
240	480
241	150
242	10
243	20
251	20
253	4144
254	1031
255	310
256	40
267	20
268	10
282	20
287	20
295	10
301	130
302	30
303	10
309	10
325	20
339	180
340	50
341	10
377	10
407	170
408	60
409	10
422	30
423	10
