Mass Spectrum: m-Toluic acid, 3-pentadecyl ester
Formula: C23 H38 O2
Molecular weight: 346
Origin: Zaikin V.G., TIPS RAS, Moscow, Russia
m/z	RELATIVE INTENSITY
26	60
27	140
28	120
29	300
36	60
39	210
40	30
41	871
42	200
43	1021
44	130
50	40
51	50
53	70
54	150
55	1121
56	541
57	911
58	40
63	70
65	460
66	40
67	250
68	210
69	881
70	621
71	440
72	50
77	100
79	70
81	200
82	320
83	861
84	470
85	310
89	140
90	170
91	2492
92	290
93	390
94	30
95	130
96	250
97	981
98	320
99	60
105	40
109	50
110	140
111	611
112	240
113	30
118	80
119	9999
120	961
121	70
124	90
125	320
126	170
134	100
135	80
136	861
137	5765
138	581
139	140
140	120
152	60
153	80
154	90
161	20
167	40
168	40
177	60
181	70
182	150
210	1181
211	200
227	180
