Mass Spectrum: 1-Chloro-2-dichloromethyldimethylsilyloxybenzene
Formula: C9 H11 Cl3 O Si
Molecular weight: 268
Origin: Zaikin V.G., TIPS RAS, Moscow, Russia
m/z	RELATIVE INTENSITY
28	50
36	170
38	50
39	60
41	30
43	110
44	90
45	20
50	60
51	60
53	20
57	50
62	30
63	691
64	210
65	440
67	70
71	20
73	40
74	40
75	140
76	70
77	190
78	100
79	300
80	40
81	50
85	30
89	90
90	30
91	811
92	270
93	3724
94	370
95	1341
96	90
97	60
98	70
99	80
100	50
101	50
103	40
105	110
111	30
112	40
113	961
114	70
115	651
116	40
117	130
121	50
125	60
126	40
127	50
128	120
129	30
130	30
133	90
135	250
137	30
139	100
141	40
147	130
148	70
149	3163
150	470
151	180
155	160
157	70
159	100
161	110
169	270
170	40
171	110
181	100
183	120
184	30
185	9999
186	1471
187	3554
188	501
189	160
197	70
199	60
205	90
217	160
219	110
220	30
268	180
270	190
272	60
