Mass Spectrum: Glycine, N-(2,3,4-trifluorobenzoyl)-, methyl ester
Formula: C10 H8 F3 N O3
Molecular weight: 247
Origin: Zaikin V.G., TIPS RAS, Moscow, Russia
m/z	RELATIVE INTENSITY
28	10
29	40
44	40
56	50
57	30
59	60
62	50
75	30
80	40
81	651
82	30
88	70
99	30
112	80
130	80
131	1341
132	140
140	40
158	40
159	9999
160	661
161	40
188	3213
189	260
215	360
216	140
247	440
248	50
