Mass Spectrum: (Phenylthio)acetic acid, tridec-2-ynyl ester
Formula: C21 H30 O2 S
Molecular weight: 346
Origin: Zaikin V.G., TIPS RAS, Moscow, Russia
m/z	RELATIVE INTENSITY
26	60
27	160
28	110
29	280
39	240
40	50
41	671
42	100
43	641
44	120
45	871
46	40
47	40
50	80
51	210
52	160
53	270
54	90
55	641
56	100
57	190
63	30
65	280
66	170
67	521
68	80
69	360
70	70
71	60
77	521
78	170
79	671
80	130
81	531
82	110
83	140
84	70
91	270
92	40
93	340
94	240
95	591
96	70
97	110
105	110
107	180
108	170
109	480
110	851
111	250
112	50
121	420
122	120
123	9999
124	911
125	470
126	40
135	100
137	30
147	50
149	40
150	761
151	220
152	70
161	80
168	1161
169	180
170	60
176	40
177	100
178	30
189	60
195	50
219	90
220	70
237	110
269	40
287	40
346	1732
347	400
348	120
