Mass Spectrum: l-Valine, N-(o-anisoyl)-, methyl ester
Formula: C14 H19 N O4
Molecular weight: 265
Origin: Zaikin V.G., TIPS RAS, Moscow, Russia
m/z	RELATIVE INTENSITY
26	10
27	30
29	30
31	10
38	10
39	50
41	40
42	10
43	30
44	30
50	30
51	60
52	10
53	10
55	20
56	20
59	20
63	50
64	80
65	40
70	20
71	10
72	30
75	10
76	70
77	791
78	80
79	60
83	10
88	10
91	10
92	370
93	40
96	10
103	10
104	20
105	160
106	40
107	20
118	10
119	20
120	100
121	100
122	30
130	20
132	30
133	40
134	330
135	9999
136	731
137	60
148	60
151	501
152	170
153	10
162	10
163	10
176	10
190	10
191	110
192	20
205	10
206	1562
218	40
222	20
223	130
224	10
233	10
234	40
235	10
250	20
265	230
266	40
