Mass Spectrum: 2,7-Dimethyl-4-diphenylmethylsilyloxyoct-7-en-5-yne
Formula: C23 H28 O Si
Molecular weight: 348
Origin: Zaikin V.G., TIPS RAS, Moscow, Russia
m/z	RELATIVE INTENSITY
26	60
27	110
28	30
29	90
38	30
39	210
40	60
41	330
42	70
43	310
45	240
50	90
51	150
52	70
53	160
55	50
57	40
59	30
61	50
63	60
65	120
66	60
67	80
69	30
74	30
75	30
76	50
77	601
78	270
79	120
85	30
91	581
92	120
93	260
94	40
95	50
99	40
102	30
103	70
104	30
105	801
106	120
107	100
113	30
115	130
116	30
117	60
119	460
120	130
121	340
122	50
123	70
127	50
128	110
129	150
130	30
131	70
135	100
137	5284
138	691
139	250
141	170
142	70
143	80
145	150
146	30
147	50
149	20
151	70
152	200
153	200
154	180
155	3143
156	581
157	60
159	110
161	50
163	80
165	410
166	90
167	350
168	130
169	1221
170	210
171	100
172	30
173	40
174	30
175	30
179	50
180	200
181	721
182	150
183	220
184	70
185	1512
186	360
187	300
188	50
189	40
191	60
193	140
194	30
195	951
196	210
197	9999
198	1812
199	1341
200	220
201	80
202	30
205	50
210	300
211	200
212	170
213	911
214	210
215	170
216	70
217	60
221	150
222	30
225	50
227	460
228	200
229	110
230	60
231	100
232	30
233	30
235	30
243	40
245	80
246	40
247	2573
248	611
249	170
251	40
255	160
256	30
257	90
259	50
261	360
262	210
263	240
264	60
265	50
269	30
270	30
271	290
272	70
273	50
275	160
276	50
277	120
278	30
289	150
290	90
291	7436
292	1892
293	490
294	70
305	731
306	190
307	200
308	40
333	410
334	110
347	170
348	1231
349	360
350	80
