Mass Spectrum: 5-Bromovaleric acid, 5-tridecyl ester
Formula: C18 H35 Br O2
Molecular weight: 362
Origin: Zaikin V.G., TIPS RAS, Moscow, Russia
m/z	RELATIVE INTENSITY
26	170
27	591
28	10
29	1071
36	50
38	30
39	430
40	90
41	1972
42	561
43	2002
44	230
45	60
51	30
53	200
54	400
55	5024
56	1592
57	2372
58	170
59	100
65	30
66	30
67	440
68	370
69	1792
70	1301
71	1171
72	60
73	180
77	30
79	130
80	140
81	360
82	651
83	1822
84	941
85	911
86	50
91	140
93	50
95	140
96	400
97	1301
98	691
99	410
100	130
101	1221
102	70
107	80
109	140
110	250
111	981
112	450
113	170
119	901
120	70
121	290
123	40
124	200
125	761
126	290
127	110
128	30
129	30
135	2012
136	110
137	1962
138	160
139	220
140	190
141	511
142	70
152	30
153	100
154	320
155	40
162	30
163	9999
164	601
165	9709
166	561
178	210
179	70
180	420
181	541
182	2683
183	891
184	30
196	150
197	320
198	40
199	130
249	280
250	30
251	280
252	20
276	30
277	20
278	30
305	90
307	90
