Mass Spectrum: 3-Butyldimethylsilyloxyhex-4-yne
Formula: C12 H24 O Si
Molecular weight: 212
Origin: Zaikin V.G., TIPS RAS, Moscow, Russia
m/z	RELATIVE INTENSITY
25	20
26	160
27	380
28	20
29	400
31	130
35	10
39	420
40	110
41	631
42	80
43	651
44	120
45	511
46	30
47	490
48	20
49	20
50	60
51	140
52	110
53	360
54	40
55	250
56	60
57	150
58	210
59	3413
60	310
61	1361
62	100
63	180
64	10
65	160
66	110
67	170
68	30
69	220
70	130
71	110
72	60
73	1481
74	180
75	3433
76	250
77	370
78	70
79	330
80	80
81	250
82	70
83	1522
84	150
85	310
86	30
87	140
88	10
89	10
91	70
92	10
93	60
94	10
95	1542
96	330
97	8718
98	911
99	751
100	50
101	120
103	20
105	30
106	20
107	40
108	20
109	280
110	40
111	501
112	100
113	120
114	10
115	3103
116	320
117	190
118	10
119	70
121	10
123	140
124	90
125	220
126	180
127	4585
128	511
129	170
133	260
134	30
135	30
137	180
138	30
139	691
140	130
141	1832
142	210
143	80
148	10
151	110
152	10
153	50
154	30
155	9999
156	1291
157	490
158	30
167	10
169	10
175	10
183	2132
184	310
185	80
189	60
197	110
198	10
