Mass Spectrum: l-Leucine, N-(2,3,4-trifluorobenzoyl)-, methyl ester
Formula: C14 H16 F3 N O3
Molecular weight: 303
Origin: Zaikin V.G., TIPS RAS, Moscow, Russia
m/z	RELATIVE INTENSITY
27	80
28	20
29	50
39	60
41	190
42	60
43	170
44	50
55	40
57	30
58	50
59	310
68	30
69	140
70	40
81	280
86	50
88	130
112	60
113	60
128	140
129	30
130	50
131	911
132	100
140	30
157	60
158	80
159	9999
160	711
161	40
175	60
176	340
187	50
188	651
189	60
200	50
201	40
202	130
215	480
216	1121
217	130
218	50
228	190
229	30
244	3714
245	440
246	70
247	521
248	50
260	30
