Mass Spectrum: p-Anisic acid, pent-2-en-4-ynyl ester
Formula: C13 H12 O3
Molecular weight: 216
Origin: Zaikin V.G., TIPS RAS, Moscow, Russia
m/z	RELATIVE INTENSITY
38	40
39	270
50	70
51	70
52	30
62	30
63	190
64	240
65	490
66	30
76	50
77	561
78	60
79	30
92	450
93	30
107	320
108	80
127	30
128	80
129	140
135	9999
136	711
137	60
141	50
157	50
171	90
187	60
216	711
217	100
