Mass Spectrum: 4-Nitrobenzoic acid, hex-4-yn-3-yl ester
Formula: C13 H13 N O4
Molecular weight: 247
Origin: Zaikin V.G., TIPS RAS, Moscow, Russia
m/z	RELATIVE INTENSITY
26	30
27	120
28	20
29	70
30	50
38	40
39	320
40	70
41	490
43	70
44	120
50	410
51	200
52	150
53	601
54	50
55	90
57	60
63	110
64	130
65	400
66	140
67	120
69	230
74	140
75	360
76	1071
77	581
78	110
79	3363
80	1381
81	571
82	40
86	30
92	601
93	70
97	330
103	60
104	1732
105	160
120	791
121	340
122	80
127	40
134	190
136	20
137	90
150	9999
151	2272
152	220
153	30
155	40
158	40
167	60
168	30
172	90
177	60
188	50
190	90
191	30
200	40
201	60
202	70
204	40
218	951
219	420
220	50
232	2452
233	340
234	30
246	30
247	891
248	130
