Mass Spectrum: l-Phenylalanine, N-(2-trifluoromethylbenzoyl)-, methyl ester
Formula: C18 H16 F3 N O3
Molecular weight: 351
Origin: Zaikin V.G., TIPS RAS, Moscow, Russia
m/z	RELATIVE INTENSITY
26	10
27	20
29	10
31	10
39	40
41	10
44	40
50	40
51	50
52	10
57	10
59	30
62	10
63	30
64	10
65	140
69	10
74	20
75	70
76	30
77	90
78	30
85	10
89	50
90	40
91	771
92	140
93	10
94	10
95	150
96	20
99	10
102	60
103	150
104	70
105	20
107	20
116	20
117	100
118	80
119	50
120	10
121	70
125	120
126	150
127	30
128	10
130	60
131	1141
132	150
133	10
134	20
136	10
143	10
144	100
145	2252
146	220
147	20
152	20
154	40
155	10
161	551
162	6415
163	661
164	60
170	10
171	10
172	40
173	9999
174	721
175	40
178	40
189	40
190	20
232	20
260	40
272	40
291	60
292	561
293	100
320	20
332	10
351	50
352	10
