Mass Spectrum: 1-Cyclohexyldimethylsilyloxyundec-2-ene
Formula: C19 H38 O Si
Molecular weight: 310
Origin: Zaikin V.G., TIPS RAS, Moscow, Russia
m/z	RELATIVE INTENSITY
26	30
27	40
28	10
29	40
35	40
36	240
38	70
39	90
40	30
41	240
42	30
43	130
44	230
45	40
47	40
51	30
52	30
53	60
54	150
55	280
56	50
57	70
59	651
60	50
61	340
67	310
68	50
69	140
70	30
71	30
73	80
74	50
75	4765
76	380
77	280
78	60
79	170
80	60
81	571
82	130
83	120
85	100
87	60
89	340
91	40
93	20
95	360
96	50
97	110
99	360
100	40
101	1301
102	130
103	80
109	180
111	80
113	511
114	70
115	1271
116	130
117	50
123	30
125	60
127	180
128	60
129	1451
130	170
131	60
139	40
141	250
142	40
143	1151
144	140
145	50
151	380
152	70
155	60
157	170
158	30
169	160
171	40
183	30
185	40
197	551
198	90
199	250
200	40
211	50
213	511
214	90
227	9999
228	1982
229	551
230	60
295	100
310	100
