Mass Spectrum: l-Serine, N,O-bis-(2,6-difluorobenzoyl)-, methyl ester
Formula: C18 H13 F4 N O5
Molecular weight: 399
Origin: Zaikin V.G., TIPS RAS, Moscow, Russia
m/z	RELATIVE INTENSITY
28	20
44	50
63	210
93	30
94	40
112	50
113	681
114	140
127	30
140	60
141	9999
142	641
143	40
154	120
155	40
158	100
159	30
182	2482
183	260
197	30
210	30
226	30
228	50
241	501
242	70
258	140
298	370
299	60
340	521
341	90
368	30
