Mass Spectrum: 5-Chlorovaleric acid, 2-tridecyl ester
Formula: C18 H35 Cl O2
Molecular weight: 318
Origin: Zaikin V.G., TIPS RAS, Moscow, Russia
m/z	RELATIVE INTENSITY
26	130
27	420
28	10
29	841
36	120
38	40
39	330
40	80
41	1632
42	571
43	2082
44	250
45	140
53	160
54	320
55	3804
56	1692
57	2533
58	220
59	80
60	50
63	90
65	30
66	30
67	350
68	370
69	1762
70	1592
71	1471
72	80
73	220
79	40
81	250
82	651
83	1902
84	1141
85	921
86	50
87	60
91	1682
92	70
93	541
95	150
96	480
97	1942
98	881
99	260
100	791
101	450
102	20
109	60
110	280
111	1231
112	651
113	180
118	60
119	9999
120	551
121	3123
122	170
123	30
124	130
125	611
126	370
127	120
134	350
135	130
136	480
137	2122
138	250
139	731
140	390
141	110
147	40
152	30
153	130
154	400
155	50
163	521
164	30
165	170
182	1652
183	661
184	60
198	30
199	150
206	30
274	30
