Mass Spectrum: 1-Diphenylethenylsilyloxyundec-2-ene
Formula: C25 H34 O Si
Molecular weight: 378
Origin: Zaikin V.G., TIPS RAS, Moscow, Russia
m/z	RELATIVE INTENSITY
25	40
26	280
27	380
28	10
29	521
36	30
37	30
38	50
39	410
40	80
41	1121
42	230
43	861
44	70
45	470
50	160
51	220
52	120
53	250
54	350
55	821
56	200
57	420
63	40
65	70
66	60
67	480
68	230
69	360
70	110
71	140
73	80
74	50
75	30
76	70
77	931
78	831
79	270
80	160
81	360
82	300
83	250
84	400
85	90
91	330
92	80
93	90
94	100
95	310
96	290
97	340
98	100
99	50
101	30
102	60
103	150
104	601
105	1241
106	200
107	410
108	70
109	140
110	80
111	130
112	50
113	50
115	200
116	100
117	571
118	210
119	50
121	380
122	430
123	2292
124	350
125	150
126	80
127	80
128	140
129	220
130	280
131	581
132	330
133	360
134	190
135	80
136	90
137	170
138	40
139	60
140	70
141	90
142	50
143	170
144	80
145	160
146	40
147	541
148	651
149	4985
150	821
151	380
152	290
153	200
154	250
155	220
156	40
157	200
158	120
159	180
160	230
161	2913
162	1331
163	691
164	130
165	120
166	40
167	110
168	80
169	130
170	30
171	120
172	70
173	420
174	561
175	1812
176	480
177	210
178	130
179	100
180	260
181	1481
182	460
183	5414
184	1011
185	300
186	50
187	1702
188	501
189	420
190	120
191	70
193	60
194	40
195	50
196	340
197	631
198	140
199	6295
200	1171
201	721
202	270
203	250
204	80
205	60
207	450
208	691
209	9999
210	2092
211	981
212	260
213	180
214	50
215	210
216	120
217	270
218	60
219	30
221	120
222	180
223	190
224	360
225	561
226	360
227	170
228	110
229	180
230	140
231	160
232	30
233	50
235	200
236	120
237	511
238	320
239	250
240	50
243	180
244	60
245	90
247	40
249	50
251	721
252	320
253	100
254	30
257	70
259	110
261	30
265	2332
266	641
267	170
268	30
270	90
271	60
272	130
273	541
274	180
275	40
279	541
280	150
287	460
288	100
293	40
300	941
301	350
302	80
303	70
307	60
320	50
321	160
322	40
335	90
337	80
348	80
349	50
350	70
351	180
352	50
377	70
378	1141
379	360
380	90
