Mass Spectrum: Phenylacetic acid, 3,5-difluorophenyl ester
Formula: C14 H10 F2 O2
Molecular weight: 248
Origin: Zaikin V.G., TIPS RAS, Moscow, Russia
m/z	RELATIVE INTENSITY
26	20
28	10
38	40
39	260
41	80
50	100
51	220
52	50
57	70
61	20
62	80
63	330
64	90
65	901
66	50
75	110
81	70
82	60
89	400
90	490
91	9999
92	681
93	30
101	410
102	130
113	60
118	3033
119	971
120	70
129	60
130	310
