Mass Spectrum: 4-Fluorobenzoic acid, pent-2-en-4-ynyl ester
Formula: C12 H9 F O2
Molecular weight: 204
Origin: Zaikin V.G., TIPS RAS, Moscow, Russia
m/z	RELATIVE INTENSITY
27	30
28	10
29	40
38	30
39	130
40	130
44	220
50	70
51	50
62	30
63	130
64	70
65	280
69	60
74	50
75	380
76	40
77	30
94	90
95	1682
96	160
97	40
123	9999
124	841
125	50
133	40
140	130
159	120
204	200
