Mass Spectrum: l-Methionine, N-capryloyl-, methyl ester
Formula: C14 H27 N O3 S
Molecular weight: 289
Origin: Zaikin V.G., TIPS RAS, Moscow, Russia
m/z	RELATIVE INTENSITY
26	170
27	601
28	30
29	951
30	260
31	70
33	130
35	110
36	50
38	30
39	380
40	100
41	2222
42	551
43	2172
44	691
45	380
46	150
47	350
48	150
49	70
50	20
51	30
52	30
53	130
54	250
55	1842
56	2663
57	6145
58	380
59	450
60	210
61	2853
62	130
63	140
67	300
68	150
69	430
70	230
71	230
72	130
73	170
74	601
75	931
76	60
77	80
79	60
80	30
81	150
82	170
83	591
84	511
85	230
86	160
87	330
88	2392
89	3754
90	1091
91	110
95	40
96	90
97	180
98	571
99	871
100	210
101	340
102	2402
103	300
104	3864
105	240
106	190
107	30
109	360
110	130
111	190
112	1872
113	410
114	1361
115	751
116	1782
117	180
118	30
120	30
124	70
125	130
126	901
127	4384
128	430
129	30
130	60
131	4555
132	290
133	80
134	50
138	250
139	40
140	631
141	190
142	100
143	90
144	2372
145	360
146	160
147	190
148	210
149	30
152	30
154	370
155	170
156	100
157	60
158	400
159	90
160	30
162	3333
163	801
164	611
165	70
166	40
168	130
169	40
170	110
172	280
173	150
181	90
182	210
183	3053
184	430
185	40
186	340
187	50
188	60
196	2172
197	290
198	50
200	30
205	30
210	170
212	30
214	60
215	9999
216	1261
217	130
218	90
227	30
228	2523
229	340
230	410
231	50
232	50
241	60
242	771
243	100
257	90
258	130
274	60
289	1912
290	420
291	130
