Mass Spectrum: 1-Dodecyldimethylsilyloxy-2-methylbenzene
Formula: C21 H38 O Si
Molecular weight: 334
Origin: Zaikin V.G., TIPS RAS, Moscow, Russia
m/z	RELATIVE INTENSITY
27	30
28	20
29	70
39	30
41	140
42	30
43	200
55	60
56	30
57	60
59	430
60	30
61	30
65	40
73	40
75	110
77	30
85	50
91	1692
92	140
97	30
99	110
105	150
113	60
121	40
127	40
135	591
136	80
137	60
147	40
149	941
150	150
151	1211
152	160
153	50
161	30
163	190
164	70
165	9999
166	1371
167	400
168	30
177	40
191	50
211	70
319	360
320	100
334	5374
335	1351
336	340
337	50
