Mass Spectrum: Glycine, N-(2-fluorobenzoyl)-, methyl ester
Formula: C10 H10 F N O3
Molecular weight: 211
Origin: Zaikin V.G., TIPS RAS, Moscow, Russia
m/z	RELATIVE INTENSITY
28	20
29	90
39	20
44	50
50	140
51	100
56	60
57	30
59	60
68	70
69	140
70	30
74	100
75	781
76	100
77	40
93	40
94	210
95	1792
96	180
122	70
123	9999
124	671
125	40
152	2422
153	220
179	310
180	120
211	480
212	60
