Mass Spectrum: 2-Methyl-4-tributylsilyloxyoct-5-yne
Formula: C21 H42 O Si
Molecular weight: 338
Origin: Zaikin V.G., TIPS RAS, Moscow, Russia
m/z	RELATIVE INTENSITY
25	10
26	90
27	190
28	70
29	180
39	200
40	50
41	511
42	80
43	260
44	40
45	240
46	10
47	380
48	10
49	10
50	20
51	30
52	20
53	70
54	30
55	250
56	130
57	200
58	50
59	891
60	100
61	891
62	60
63	40
65	50
66	30
67	90
68	20
69	140
70	60
71	110
72	20
73	551
74	110
75	340
76	30
77	140
78	20
79	160
80	30
81	140
82	40
83	561
84	200
85	501
86	60
87	290
88	50
89	20
91	160
92	10
93	80
94	10
95	100
96	40
97	701
98	130
99	290
100	30
101	300
102	30
103	591
104	60
105	70
107	60
108	10
109	200
110	60
111	1001
112	300
113	490
114	60
115	100
116	10
117	10
121	20
122	20
123	80
124	20
125	240
126	90
127	140
128	10
129	30
133	10
135	10
137	230
138	40
139	2172
140	370
141	240
142	20
143	350
144	50
145	10
149	10
151	20
153	70
154	10
155	70
157	20
159	180
160	20
165	20
167	120
168	110
169	1451
170	230
171	220
172	20
173	10
181	60
182	20
183	50
195	891
196	170
197	50
199	40
211	10
223	50
224	10
225	9999
226	1882
227	901
228	140
229	30
253	10
281	2162
282	531
283	140
284	10
309	20
