Mass Spectrum: 3-Bromobenzoic acid, 2,6-dimethylnon-1-en-3-yn-5-yl ester
Formula: C18 H21 Br O2
Molecular weight: 348
Origin: Zaikin V.G., TIPS RAS, Moscow, Russia
m/z	RELATIVE INTENSITY
26	40
27	150
28	50
29	140
38	40
39	250
40	60
41	521
42	70
43	410
44	70
50	230
51	160
52	70
53	150
55	230
57	40
63	80
64	30
65	220
66	90
67	130
69	240
70	30
71	90
74	90
75	350
76	621
77	641
78	280
79	350
80	120
81	140
82	260
83	150
89	30
91	881
92	270
93	330
94	70
95	320
96	40
103	120
104	320
105	631
106	671
107	260
108	50
109	100
111	50
115	70
117	100
118	30
119	871
120	270
121	90
122	30
123	350
124	120
131	30
133	1191
134	140
135	40
136	661
137	270
147	70
148	981
149	150
150	50
151	40
155	1261
156	120
157	1221
158	110
165	501
166	60
171	30
183	9999
184	761
185	9609
186	721
187	40
199	40
200	220
202	220
236	30
238	30
249	30
250	30
251	30
252	40
265	60
267	40
277	100
278	120
279	110
280	130
291	30
293	40
305	831
306	160
307	831
308	160
319	70
321	60
333	140
335	130
348	40
350	40
