Mass Spectrum: 1-Dimethyldodecylsilyloxyundec-2-ene
Formula: C25 H52 O Si
Molecular weight: 396
Origin: Zaikin V.G., TIPS RAS, Moscow, Russia
m/z	RELATIVE INTENSITY
25	10
26	90
27	180
28	90
29	220
36	20
38	10
39	170
40	40
41	591
42	190
43	681
44	60
45	50
47	40
50	10
51	10
52	10
53	60
54	190
55	601
56	240
57	360
58	30
59	1331
60	110
61	731
62	40
63	20
65	20
66	20
67	320
68	120
69	380
70	150
71	120
72	30
73	200
74	80
75	7266
76	541
77	300
78	20
79	60
80	30
81	310
82	180
83	270
84	70
85	200
86	30
87	230
88	40
89	480
90	40
91	30
93	20
94	10
95	390
96	130
97	210
98	50
99	541
100	70
101	1141
102	120
103	140
104	10
105	10
107	10
109	170
110	60
111	100
112	20
113	470
114	80
115	2693
116	300
117	150
118	10
119	110
120	10
121	10
123	40
124	50
125	50
126	10
127	240
128	60
129	1321
130	160
131	90
133	751
134	100
135	60
137	20
139	20
141	170
142	30
143	581
144	70
145	30
149	10
151	811
152	210
153	40
155	70
156	10
157	120
158	10
159	20
167	10
169	80
170	10
171	120
172	10
173	10
183	40
185	100
186	10
187	10
197	210
198	30
199	150
200	20
201	10
211	120
212	20
213	1091
214	200
215	50
224	10
225	30
226	10
227	9999
228	1852
229	1041
230	160
231	30
245	30
255	330
256	70
257	20
259	30
273	170
274	30
275	10
283	280
284	60
285	10
287	20
297	70
298	10
301	160
302	40
303	10
339	40
340	10
353	40
354	10
381	811
382	250
383	60
395	10
396	330
397	100
398	20
