Mass Spectrum: 3-Tributylsilyloxyhex-4-yne
Formula: C18 H36 O Si
Molecular weight: 296
Origin: Zaikin V.G., TIPS RAS, Moscow, Russia
m/z	RELATIVE INTENSITY
26	60
27	100
28	40
29	110
39	110
40	30
41	250
42	30
43	90
44	20
45	190
46	10
47	260
48	10
49	10
50	10
51	10
52	10
53	90
54	20
55	150
56	70
57	80
58	40
59	601
60	70
61	490
62	30
63	50
65	30
66	30
67	40
68	10
69	230
70	50
71	70
72	20
73	150
74	60
75	180
76	10
77	80
78	10
79	140
80	20
81	100
82	20
83	290
84	50
85	400
86	50
87	150
88	20
89	10
91	30
93	50
95	160
96	50
97	811
98	180
99	170
100	20
101	150
102	20
103	240
104	20
105	80
107	10
109	80
110	10
111	90
112	30
113	60
114	10
115	20
117	10
119	40
121	110
122	10
123	230
124	40
125	1932
126	290
127	571
128	70
129	30
131	10
135	10
137	10
139	50
140	20
141	100
142	10
143	290
144	40
145	10
149	10
151	330
152	30
153	170
154	50
155	470
156	60
157	20
159	50
161	70
162	10
167	10
169	10
177	170
178	20
179	60
180	10
181	841
182	200
183	9999
184	1481
185	440
186	40
199	170
200	20
201	10
210	10
211	100
212	10
217	70
218	10
239	1161
240	260
241	60
243	90
244	10
267	60
268	10
