Mass Spectrum: 4-Butyldimethylsilyloxy-2-methyloct-5-yne
Formula: C15 H30 O Si
Molecular weight: 254
Origin: Zaikin V.G., TIPS RAS, Moscow, Russia
m/z	RELATIVE INTENSITY
25	10
26	130
27	320
28	10
29	340
31	80
35	10
39	380
40	90
41	881
42	120
43	621
44	100
45	310
46	10
47	350
48	10
49	10
50	60
51	90
52	70
53	190
54	50
55	220
56	110
57	250
58	140
59	4024
60	320
61	1421
62	90
63	80
64	10
65	140
66	70
67	120
68	20
69	280
70	110
71	90
72	50
73	1471
74	180
75	5014
76	360
77	511
78	80
79	380
80	70
81	190
82	40
83	380
84	150
85	310
86	30
87	230
88	20
89	50
91	290
92	30
93	190
94	20
95	150
96	100
97	1181
98	140
99	300
100	20
101	280
102	20
103	60
105	50
106	10
107	130
108	10
109	120
110	80
111	8407
112	931
113	591
114	40
115	731
116	70
117	200
118	10
119	10
121	230
122	50
123	290
124	30
125	531
126	110
127	611
128	70
129	180
130	10
133	10
135	20
137	40
139	270
140	80
141	9999
142	1191
143	1401
144	140
145	80
151	40
153	240
154	50
155	571
156	70
157	20
159	10
167	90
168	10
169	80
177	230
178	30
179	100
180	10
181	90
182	10
183	651
184	90
185	110
186	10
195	10
197	9228
198	1441
199	390
200	30
225	220
226	30
239	100
240	10
