Mass Spectrum: 2-Trifluoromethylbenzoic acid, 2-methyl ester
Formula: C15 H11 F3 O2
Molecular weight: 280
Origin: Zaikin V.G., TIPS RAS, Moscow, Russia
m/z	RELATIVE INTENSITY
26	60
27	120
28	30
38	40
39	280
44	60
50	290
51	350
52	190
53	160
57	60
62	40
63	130
64	30
65	180
69	80
74	100
75	380
76	140
77	801
78	360
79	210
80	30
81	30
89	60
90	60
91	240
94	50
95	601
96	70
99	60
107	310
108	180
118	60
119	70
125	340
126	210
127	40
143	30
144	90
145	3473
146	290
151	140
173	9999
174	721
175	40
280	170
