Mass Spectrum: l-Serine, N,O-bis(capryloyl)-, methyl ester
Formula: C20 H37 N O5
Molecular weight: 371
Origin: Zaikin V.G., TIPS RAS, Moscow, Russia
m/z	RELATIVE INTENSITY
26	190
27	691
28	40
29	1191
30	130
31	80
33	60
36	50
38	50
39	551
40	160
41	2703
42	1071
43	3754
44	681
45	200
50	30
51	40
52	30
53	160
54	180
55	2533
56	691
57	9999
58	470
59	641
60	4595
61	250
65	30
67	521
68	200
69	701
70	1201
71	380
72	100
73	841
74	290
77	40
79	90
80	60
81	220
82	260
83	601
84	1131
85	430
86	120
87	230
88	1091
89	661
90	200
91	40
93	40
95	80
96	190
97	320
98	831
99	160
100	70
101	4084
102	1802
103	230
104	30
107	60
108	40
109	601
110	110
111	551
112	290
113	90
114	210
115	200
116	30
118	801
119	50
120	2082
121	120
122	30
124	160
125	170
126	591
127	7326
128	721
129	80
130	110
131	1041
132	70
138	80
139	40
140	490
141	80
142	100
143	4074
144	6105
145	601
146	140
152	50
154	100
155	50
156	931
157	170
158	80
159	20
161	921
162	4705
163	370
164	50
166	50
167	80
168	7847
169	971
170	280
171	60
172	60
173	30
174	891
175	130
183	591
184	400
185	100
186	3664
187	430
188	230
195	210
196	420
197	130
198	250
199	100
200	60
202	170
203	1962
204	190
205	30
212	110
214	120
215	3914
216	1221
217	180
224	30
226	130
227	881
228	1872
229	290
230	130
231	30
244	1512
245	671
246	1241
247	170
258	40
270	210
271	30
287	1632
288	260
289	30
300	320
301	50
312	250
313	40
314	60
328	70
340	280
341	80
342	80
371	220
372	110
