Mass Spectrum: l-Methionine, N-(2-fluorobenzoyl)-, methyl ester
Formula: C13 H16 F N O3 S
Molecular weight: 285
Origin: Zaikin V.G., TIPS RAS, Moscow, Russia
m/z	RELATIVE INTENSITY
26	30
27	70
28	10
33	30
35	40
39	30
41	110
44	70
45	100
46	40
47	120
48	40
49	30
50	50
51	40
54	40
55	30
56	110
57	60
59	90
61	621
63	30
69	50
74	110
75	611
76	60
77	30
87	60
88	430
94	110
95	1461
96	170
99	30
102	50
114	220
121	40
122	90
123	9999
124	1021
125	70
129	30
140	150
151	551
152	70
162	330
163	30
164	40
177	50
178	490
179	3584
180	380
181	30
192	521
193	90
205	40
206	40
210	50
211	4665
212	511
213	50
224	811
225	100
226	240
227	30
238	140
253	30
285	300
286	60
