Mass Spectrum: Phenylacetic acid, 2-methylphenyl ester
Formula: C15 H14 O2
Molecular weight: 226
Origin: Zaikin V.G., TIPS RAS, Moscow, Russia
m/z	RELATIVE INTENSITY
26	40
27	50
28	30
38	30
39	300
40	30
41	70
44	40
50	100
51	230
52	110
53	90
62	60
63	240
64	80
65	851
66	50
77	460
78	200
79	160
80	40
89	410
90	781
91	7306
92	561
107	420
108	1041
109	80
118	9999
119	821
120	50
136	50
226	70
