Mass Spectrum: Phenylacetic acid, 2-chlorophenyl ester
Formula: C14 H11 Cl O2
Molecular weight: 246
Origin: Zaikin V.G., TIPS RAS, Moscow, Russia
m/z	RELATIVE INTENSITY
26	30
28	10
36	30
38	60
39	270
41	60
50	80
51	130
52	30
61	30
62	90
63	370
64	220
65	811
66	50
73	150
74	40
75	110
89	390
90	551
91	9999
92	691
99	250
100	30
101	80
111	30
118	6726
119	601
120	40
127	70
128	340
129	40
130	110
136	30
181	30
