Mass Spectrum: 1-Cyclohexyldimethylsilyloxy-2-methylbenzene
Formula: C15 H24 O Si
Molecular weight: 248
Origin: Zaikin V.G., TIPS RAS, Moscow, Russia
m/z	RELATIVE INTENSITY
26	50
27	70
28	10
29	40
31	50
39	140
41	200
43	120
45	90
47	40
51	40
53	50
54	70
55	150
58	30
59	701
60	50
61	80
63	30
65	210
67	90
75	320
77	130
78	50
79	110
80	30
81	100
82	40
83	60
85	30
89	70
90	50
91	3213
92	280
95	50
97	40
103	50
105	170
107	30
109	30
121	90
123	30
133	60
135	1041
136	140
137	100
147	100
148	40
149	1181
150	190
151	701
152	90
153	30
161	70
163	240
164	90
165	9999
166	3113
167	651
168	100
233	180
234	30
248	3313
249	691
250	170
