Mass Spectrum: o-Anisic acid, 4-pentadecyl ester
Formula: C23 H38 O3
Molecular weight: 362
Origin: Zaikin V.G., TIPS RAS, Moscow, Russia
m/z	RELATIVE INTENSITY
26	60
27	160
28	10
29	330
39	170
40	30
41	851
42	180
43	1031
44	150
50	50
51	110
53	60
54	120
55	941
56	350
57	661
58	40
63	70
64	90
65	80
67	190
68	110
69	581
70	310
71	290
76	70
77	1091
78	150
79	270
80	30
81	130
82	140
83	420
84	200
85	160
91	40
92	440
93	70
94	40
95	70
96	80
97	360
98	120
99	40
104	30
105	621
106	160
107	100
108	50
109	40
110	40
111	190
112	70
120	170
121	120
122	60
123	1812
124	150
125	80
126	40
133	70
134	260
135	9999
136	931
137	90
138	30
139	30
140	30
151	60
152	4384
153	4755
154	430
155	40
207	90
210	110
227	170
362	80
