Mass Spectrum: l-Proline, N-(3-fluorobenzoyl)-, methyl ester
Formula: C13 H14 F N O3
Molecular weight: 251
Origin: Zaikin V.G., TIPS RAS, Moscow, Russia
m/z	RELATIVE INTENSITY
27	30
28	30
39	50
41	200
42	90
44	60
50	40
51	30
59	30
68	90
69	90
70	30
74	30
75	320
76	30
94	90
95	1912
96	230
122	40
123	9999
124	621
125	30
128	90
163	30
165	30
191	20
192	4615
193	511
194	30
220	30
251	430
252	70
