Mass Spectrum: 2-Thiopheneacetic acid, hex-4-yn-3-yl ester
Formula: C12 H14 O2 S
Molecular weight: 222
Origin: Zaikin V.G., TIPS RAS, Moscow, Russia
m/z	RELATIVE INTENSITY
26	50
27	180
28	30
29	70
38	40
39	420
40	70
41	611
43	30
44	140
45	490
47	40
50	80
51	160
52	140
53	1261
54	70
55	130
57	20
58	60
63	90
65	180
66	170
67	60
69	110
70	80
71	60
77	240
78	40
79	1211
80	210
81	2543
82	160
95	60
96	130
97	9999
98	641
99	430
124	130
125	60
142	50
149	90
163	240
164	40
165	50
180	60
193	50
207	30
222	811
223	100
224	40
