Mass Spectrum: l-Leucine, N-capryloyl-, methyl ester
Formula: C15 H29 N O3
Molecular weight: 271
Origin: Zaikin V.G., TIPS RAS, Moscow, Russia
m/z	RELATIVE INTENSITY
26	30
27	170
28	30
29	240
30	390
39	140
40	40
41	711
42	200
43	851
44	541
53	50
54	40
55	561
56	150
57	1241
58	70
59	220
60	40
67	100
68	60
69	220
70	470
71	60
72	60
73	40
74	30
81	40
82	40
83	100
84	210
85	100
86	9999
87	571
88	380
89	310
90	70
96	50
97	70
98	110
99	200
100	80
101	40
102	300
103	30
109	60
112	180
113	90
114	30
126	90
127	701
128	420
129	120
130	160
131	1031
132	60
140	120
143	30
144	581
145	90
146	230
154	60
155	60
168	80
171	30
172	110
183	190
184	30
186	70
187	671
188	70
196	160
200	110
212	1542
213	230
214	50
215	771
216	90
228	70
240	70
256	90
271	60
272	30
