Mass Spectrum: l-Methionine, N-(4-butylbenzoyl)-, methyl ester
Formula: C17 H25 N O3 S
Molecular weight: 323
Origin: Zaikin V.G., TIPS RAS, Moscow, Russia
m/z	RELATIVE INTENSITY
26	30
27	60
28	10
29	30
39	50
41	130
43	30
44	50
45	50
47	50
51	30
55	80
56	50
59	50
61	180
63	40
65	100
74	60
75	130
76	30
77	140
78	50
79	40
87	30
88	130
89	150
90	430
91	1141
92	140
102	40
103	120
104	100
105	150
114	120
115	80
116	50
117	80
118	501
119	160
131	180
132	150
133	130
134	30
135	70
136	50
145	50
146	90
147	80
159	120
160	70
161	9999
162	1782
163	150
164	30
174	70
178	110
188	60
189	611
190	90
215	30
216	70
217	2783
218	430
219	40
230	300
231	190
232	40
248	70
249	3153
250	501
251	50
262	380
263	60
264	100
276	90
292	30
323	380
324	80
