Mass Spectrum: 2,6-Dimethyl-1-nonen-3-yn-5-ol, TMS derivative
Formula: C14 H26 O Si
Molecular weight: 238
Origin: Zaikin V.G., TIPS RAS, Moscow, Russia
m/z	RELATIVE INTENSITY
27	80
28	20
29	60
39	120
40	30
41	200
42	40
43	210
44	90
45	300
47	110
51	50
52	30
53	70
55	80
59	90
61	80
63	40
65	80
67	30
69	30
71	30
73	4084
74	360
75	971
76	70
77	240
78	90
79	90
83	60
85	30
91	260
92	50
93	80
95	30
97	80
99	30
103	40
105	100
106	60
107	70
109	80
111	30
115	60
117	30
119	60
123	631
124	80
125	60
133	50
137	80
147	30
148	40
149	90
151	70
153	90
157	110
165	40
167	9999
168	1391
169	430
170	30
179	40
181	160
193	30
195	70
196	130
197	40
209	50
223	200
224	30
238	110
