Mass Spectrum: 3-Trifluoromethylbenzoic acid, 2-chlorophenyl ester
Formula: C14 H8 Cl F3 O2
Molecular weight: 300
Origin: Zaikin V.G., TIPS RAS, Moscow, Russia
m/z	RELATIVE INTENSITY
28	10
39	40
50	80
51	30
62	20
63	110
64	50
69	30
73	100
74	50
75	220
76	50
95	270
99	180
101	50
119	30
125	210
126	170
127	40
128	90
130	30
144	70
145	2983
146	250
173	9999
174	781
175	50
265	90
282	30
283	80
300	320
301	50
302	110
