Mass Spectrum: 3-Methyl-2-butenoic acid, but-3-yn-2-yl ester
Formula: C9 H12 O2
Molecular weight: 152
Origin: Zaikin V.G., TIPS RAS, Moscow, Russia
m/z	RELATIVE INTENSITY
26	120
27	991
28	10
29	741
37	30
38	100
39	781
40	170
41	200
42	60
43	200
44	140
45	30
49	30
50	280
51	440
52	400
53	2272
54	370
55	1982
56	160
57	60
58	30
59	130
65	30
66	30
67	100
69	80
77	170
78	30
79	190
80	70
81	70
82	1762
83	9999
84	561
85	721
86	30
91	410
92	60
93	541
94	40
95	30
96	40
99	30
100	3303
101	320
105	70
106	50
107	761
108	70
109	220
111	80
119	30
123	50
137	210
152	210
