Mass Spectrum: 2-Trifluoromethylbenzoic acid, oct-3-en-2-yl ester
Formula: C16 H19 F3 O2
Molecular weight: 300
Origin: Zaikin V.G., TIPS RAS, Moscow, Russia
m/z	RELATIVE INTENSITY
27	130
28	40
29	100
39	140
40	40
41	400
42	50
43	220
44	30
50	40
51	30
53	160
54	100
55	821
56	60
57	30
65	30
66	20
67	310
68	1151
69	771
70	50
71	50
75	60
76	20
77	30
79	60
81	651
82	80
95	250
96	30
110	250
111	180
125	70
126	70
127	110
144	30
145	1041
146	110
151	70
173	9999
174	641
175	30
190	70
202	50
243	30
258	40
300	30
