Mass Spectrum: 4-Bromobutanoic acid, 2-methyl-5-yn-4-yl ester
Formula: C13 H21 Br O2
Molecular weight: 288
Origin: Zaikin V.G., TIPS RAS, Moscow, Russia
m/z	RELATIVE INTENSITY
26	180
27	971
28	10
29	811
37	50
38	150
39	1512
40	360
41	5805
42	1341
43	1872
44	280
45	100
50	140
51	340
52	290
53	841
54	170
55	1552
56	350
57	611
58	50
60	350
62	30
63	140
64	60
65	651
66	460
67	1011
68	430
69	1732
70	240
71	180
72	40
76	40
77	1612
78	460
79	4925
80	1672
81	3013
82	581
83	1141
84	220
85	440
86	50
87	230
91	2282
92	430
93	6355
94	1101
95	701
96	140
97	1722
98	3974
99	270
103	50
105	701
106	110
107	8958
108	881
109	230
110	30
111	1932
112	320
119	30
121	2883
122	2032
123	3313
124	290
125	2192
126	200
138	60
139	981
140	6876
141	781
142	50
148	80
149	9999
150	551
151	9939
152	440
153	90
167	1081
168	120
169	40
181	40
191	70
193	60
201	40
203	90
205	70
217	140
218	60
219	140
220	60
231	250
232	150
233	270
234	140
235	30
245	4815
246	801
247	4735
248	761
249	60
259	120
261	120
273	330
274	40
275	330
276	40
288	90
290	90
