Mass Spectrum: Butanoic acid, pent-2-en-4-ynyl ester
Formula: C9 H12 O2
Molecular weight: 152
Origin: Zaikin V.G., TIPS RAS, Moscow, Russia
m/z	RELATIVE INTENSITY
26	120
27	831
28	20
29	140
36	90
37	60
38	260
39	1662
40	120
41	1091
42	340
43	6856
44	360
45	70
49	30
50	240
51	300
52	200
53	280
54	110
55	170
60	60
61	30
62	140
63	681
64	420
65	2262
66	250
67	30
69	30
70	50
71	9999
72	420
73	50
77	30
79	90
81	440
82	1131
83	60
89	90
91	50
95	60
109	260
123	120
152	180
