Mass Spectrum: 4-Cyanobenzoic acid, heptyl ester
Formula: C15 H19 N O2
Molecular weight: 245
Origin: Zaikin V.G., TIPS RAS, Moscow, Russia
m/z	RELATIVE INTENSITY
26	120
27	661
28	20
29	1061
31	30
37	30
38	50
39	541
40	110
41	2192
42	1331
43	1141
44	100
50	340
51	571
52	140
53	170
54	410
55	2723
56	4945
57	1231
58	40
62	30
63	40
65	40
67	170
68	711
69	2673
70	5214
71	310
74	110
75	941
76	701
77	120
79	30
81	80
82	40
83	601
84	40
96	40
97	250
98	3243
99	230
100	40
101	170
102	5494
103	1021
104	320
105	30
119	30
129	40
130	9999
131	1061
132	80
145	80
147	360
148	4855
149	651
150	60
158	30
160	20
161	110
174	40
188	210
189	340
190	40
202	300
203	180
216	70
217	30
244	20
245	20
