Mass Spectrum: 1-Triisobutylsilyloxypent-2-en-4-yne
Formula: C17 H32 O Si
Molecular weight: 280
Origin: Zaikin V.G., TIPS RAS, Moscow, Russia
m/z	RELATIVE INTENSITY
26	70
27	130
28	50
29	140
36	160
37	30
38	110
39	641
40	110
41	741
42	160
43	310
44	140
45	931
46	50
47	320
50	60
51	60
52	50
53	70
54	30
55	390
56	230
57	440
58	100
59	961
60	160
61	1461
62	120
63	110
64	30
65	2452
66	330
67	731
68	60
69	561
70	100
71	250
72	40
73	230
74	190
75	330
76	40
77	140
78	90
79	210
80	80
81	831
82	100
83	831
84	210
85	981
86	110
87	490
88	60
89	60
91	100
93	130
94	60
95	591
96	130
97	621
98	150
99	771
100	80
101	1031
102	110
103	240
104	40
105	90
107	160
108	50
109	511
110	410
111	8457
112	1191
113	671
114	60
115	120
117	50
119	110
121	310
122	50
123	851
124	370
125	2673
126	521
127	310
128	30
133	30
135	110
137	1842
138	280
139	1071
140	190
141	140
143	280
144	30
147	180
149	511
150	70
151	180
152	40
153	100
157	140
159	100
163	30
165	210
166	50
167	5515
168	2312
169	681
170	110
181	80
193	531
194	90
223	9999
224	2022
225	561
226	60
