Mass Spectrum: l-Alanine, N-(2,6-difluorobenzoyl)-, methyl ester
Formula: C11 H11 F2 N O3
Molecular weight: 243
Origin: Zaikin V.G., TIPS RAS, Moscow, Russia
m/z	RELATIVE INTENSITY
28	60
42	150
43	40
44	40
59	40
62	30
63	310
93	60
94	40
102	40
112	70
113	851
114	120
140	80
141	9999
142	601
143	30
164	40
184	4615
185	410
212	30
243	50
