Mass Spectrum: 3-Trifluoromethylbenzoic acid, 2-methyloct-5-yn-4-yl ester
Formula: C17 H19 F3 O2
Molecular weight: 312
Origin: Zaikin V.G., TIPS RAS, Moscow, Russia
m/z	RELATIVE INTENSITY
27	110
28	40
29	120
39	170
40	40
41	370
42	30
43	270
44	40
50	60
51	70
52	40
53	130
55	200
56	40
57	100
63	30
65	110
66	70
67	120
68	60
69	170
75	80
76	30
77	300
78	80
79	791
80	240
81	300
83	80
91	390
92	70
93	1181
94	220
95	170
96	40
97	40
98	20
105	110
107	1552
108	140
121	60
122	410
123	70
124	40
125	110
126	110
127	40
139	190
144	40
145	1912
146	180
171	160
172	40
173	9999
174	721
175	40
190	100
191	30
227	30
241	100
242	110
255	130
256	120
269	1401
270	280
271	20
283	70
293	150
297	100
312	100
