Mass Spectrum: Heptafluorobutyric acid, 2-bromo-4-fluorophenyl ester
Formula: C10 H3 Br F8 O2
Molecular weight: 386
Origin: Zaikin V.G., TIPS RAS, Moscow, Russia
m/z	RELATIVE INTENSITY
26	80
28	20
31	771
36	70
37	90
38	150
39	60
44	250
45	30
47	30
49	40
50	761
51	150
53	150
55	140
56	681
57	961
61	300
62	440
63	1121
64	60
65	90
68	270
69	7066
70	60
73	80
74	330
75	140
77	290
78	60
79	120
80	330
81	2673
82	3113
83	270
85	40
92	70
93	400
94	2082
95	140
100	1191
101	40
109	470
110	1632
111	410
112	40
113	410
117	100
119	1001
131	160
132	60
135	400
136	40
137	410
138	170
139	30
141	30
143	30
144	30
150	90
159	40
160	70
161	6055
162	370
163	5965
164	280
169	4535
170	110
173	2523
174	170
175	2452
176	150
188	1662
189	9999
190	801
191	9689
192	761
193	50
197	40
217	150
219	150
232	50
239	50
241	50
257	70
260	531
261	30
266	60
268	50
288	260
306	240
307	6906
308	731
309	50
339	50
341	60
358	250
360	250
367	150
369	130
386	6455
387	601
388	6435
389	611
390	30
