Mass Spectrum: 2-Trifluorobenzoic acid, 2-isopropoxyphenyl ester
Formula: C17 H15 F3 O3
Molecular weight: 324
Origin: Zaikin V.G., TIPS RAS, Moscow, Russia
m/z	RELATIVE INTENSITY
27	30
28	10
39	40
41	70
43	70
50	40
51	40
52	80
53	30
63	30
65	30
75	60
80	50
81	160
91	40
95	110
109	130
110	90
121	40
125	80
126	80
144	30
145	1421
146	140
173	9999
174	721
175	40
243	80
282	170
324	400
325	70
