Mass Spectrum: 2,7-Dimethyl-4-tributylsilyloxyoct-7-en-5-yne
Formula: C22 H42 O Si
Molecular weight: 350
Origin: Zaikin V.G., TIPS RAS, Moscow, Russia
m/z	RELATIVE INTENSITY
25	20
26	160
27	350
29	340
31	10
36	10
37	20
38	50
39	350
40	90
41	771
42	110
43	440
44	50
45	330
46	10
47	591
48	20
49	20
50	50
51	80
52	40
53	110
54	20
55	340
56	200
57	240
58	60
59	1131
60	130
61	1221
62	80
63	70
64	20
65	90
66	40
67	90
68	10
69	120
70	10
71	120
72	30
73	380
74	130
75	430
76	70
77	390
78	80
79	210
80	30
81	70
82	20
83	170
84	50
85	470
86	50
87	310
88	60
89	30
90	130
91	430
92	110
93	220
94	50
95	881
96	120
97	300
98	50
99	130
100	10
101	290
102	30
103	711
104	90
105	150
106	20
107	100
108	40
109	941
110	130
111	270
112	40
113	80
114	10
115	110
116	10
117	50
118	10
119	170
120	30
121	180
122	50
123	1181
124	300
125	571
126	70
127	40
129	20
131	10
133	40
134	40
135	120
136	20
137	280
138	90
139	130
140	30
141	40
143	320
144	40
145	10
147	50
148	10
149	200
150	40
151	1602
152	260
153	180
154	30
155	10
159	210
160	20
161	20
163	30
165	70
166	10
167	50
169	20
171	160
172	20
177	20
179	100
180	60
181	1461
182	230
183	60
193	60
194	30
195	40
196	20
199	40
207	671
208	130
209	40
221	10
223	10
227	450
228	80
229	30
235	50
236	20
237	9999
238	1942
239	531
240	60
251	20
279	10
293	2943
294	1502
295	360
296	60
335	110
336	30
349	10
350	80
351	20
