Mass Spectrum: 4-Butylbenzoic acid, 2-tridecyl ester
Formula: C24 H40 O2
Molecular weight: 360
Origin: Zaikin V.G., TIPS RAS, Moscow, Russia
m/z	RELATIVE INTENSITY
26	70
27	180
28	110
29	290
39	190
40	30
41	851
42	210
43	981
44	100
50	40
51	60
53	60
54	130
55	1051
56	591
57	1031
58	70
63	50
65	130
67	220
68	230
69	831
70	641
71	370
76	30
77	220
78	70
79	150
81	160
82	340
83	781
84	470
85	200
89	150
90	420
91	1522
92	541
93	70
95	90
96	240
97	851
98	350
99	50
103	130
104	100
105	280
106	20
107	310
109	40
110	140
111	541
112	260
113	30
115	70
116	30
117	70
118	310
119	150
120	30
123	210
124	70
125	260
126	160
131	200
132	30
133	270
134	40
135	821
136	1291
137	240
138	80
139	200
140	120
149	100
151	30
153	70
154	190
159	60
161	7326
162	991
163	110
176	60
177	50
178	1572
179	9999
180	1271
181	110
182	1181
183	180
199	170
205	100
360	20
