Mass Spectrum: 2-Butyldimethylsilyloxyoct-3-ene
Formula: C14 H30 O Si
Molecular weight: 242
Origin: Zaikin V.G., TIPS RAS, Moscow, Russia
m/z	RELATIVE INTENSITY
26	70
27	150
29	150
31	30
35	10
39	180
40	40
41	501
42	70
43	250
44	80
45	190
46	10
47	240
49	10
50	20
51	30
52	20
53	130
54	100
55	591
56	90
57	110
58	80
59	2292
60	210
61	1742
62	110
63	70
64	10
65	40
66	30
67	270
68	190
69	330
70	50
71	60
72	50
73	1051
74	190
75	9999
76	771
77	420
78	30
79	100
80	10
81	190
82	40
83	40
84	10
85	170
86	40
87	180
88	30
89	90
91	20
93	10
95	100
96	20
97	50
98	20
99	170
100	20
101	200
102	40
103	350
104	30
105	10
109	400
110	110
111	60
112	10
113	240
114	50
115	1712
116	440
117	2232
118	240
119	80
125	20
127	290
128	60
129	1491
130	260
131	140
132	10
133	10
141	280
142	60
143	420
144	70
145	40
155	20
157	611
158	80
159	30
167	30
169	20
171	561
172	180
173	40
183	20
185	5194
186	931
187	571
188	70
189	10
199	731
200	140
201	30
213	110
214	10
227	1391
228	270
229	60
241	40
242	531
243	100
244	20
