Mass Spectrum: l-Alanine, N-(3-fluorobenzoyl)-, methyl ester
Formula: C11 H12 F N O3
Molecular weight: 225
Origin: Zaikin V.G., TIPS RAS, Moscow, Russia
m/z	RELATIVE INTENSITY
27	30
28	40
42	140
43	40
44	70
50	60
51	40
59	50
68	30
69	70
70	40
74	40
75	440
76	50
94	130
95	2132
96	200
102	50
109	80
121	30
122	60
123	9999
124	641
125	40
136	80
164	310
165	50
166	5024
167	440
168	20
194	50
225	180
226	30
