Mass Spectrum: 1-Tripropylsilyloxypent-2-en-4-yne
Formula: C14 H26 O Si
Molecular weight: 238
Origin: Zaikin V.G., TIPS RAS, Moscow, Russia
m/z	RELATIVE INTENSITY
26	110
27	200
28	10
29	70
39	751
40	170
41	430
42	180
43	270
44	190
45	1812
46	60
47	571
50	30
51	40
52	40
53	80
55	260
56	20
57	90
58	50
59	410
60	130
61	821
62	150
63	120
64	40
65	1582
66	280
67	511
68	30
69	771
70	100
71	390
72	80
73	821
74	190
75	90
76	30
77	100
78	50
79	150
80	50
81	320
82	60
83	490
84	160
85	661
86	60
87	480
88	40
89	350
90	30
91	90
93	70
94	30
95	511
96	80
97	1782
98	230
99	250
103	60
105	40
107	80
109	420
110	330
111	9599
112	1111
113	611
114	50
115	551
116	60
121	50
123	781
124	220
125	470
126	110
127	490
128	60
129	50
131	100
133	30
135	90
137	100
139	310
140	40
141	80
151	110
152	40
153	9999
154	2923
155	691
156	100
157	190
165	831
166	130
167	90
169	100
195	5114
196	1451
197	340
198	50
