Mass Spectrum: 2-Chlorobenzoic acid, tridec-2-ynyl ester
Formula: C20 H27 Cl O2
Molecular weight: 334
Origin: Zaikin V.G., TIPS RAS, Moscow, Russia
m/z	RELATIVE INTENSITY
27	70
28	50
29	140
39	90
41	340
42	60
43	330
50	50
51	50
52	90
53	110
54	70
55	290
56	70
57	100
65	60
66	70
67	230
68	50
69	120
70	30
75	130
76	50
77	170
78	40
79	320
80	80
81	170
82	40
83	40
91	120
93	190
94	80
95	140
104	30
105	50
107	70
108	30
109	30
111	360
112	50
113	120
121	60
129	20
135	30
139	9999
140	641
141	2783
142	210
156	60
157	170
158	30
159	50
195	40
