Mass Spectrum: 5-Bromovaleric acid, 1-adamantylmethyl ester
Formula: C16 H25 Br O2
Molecular weight: 328
Origin: Zaikin V.G., TIPS RAS, Moscow, Russia
m/z	RELATIVE INTENSITY
26	30
27	90
28	40
29	100
39	100
41	230
43	40
53	90
54	30
55	571
56	60
57	40
65	50
66	30
67	320
68	30
69	90
70	70
77	200
78	100
79	811
80	240
81	300
82	70
83	30
91	380
92	611
93	871
94	140
95	50
105	230
106	190
107	440
108	50
119	120
120	40
133	120
134	30
135	9999
136	911
137	130
148	3303
149	1241
150	120
163	40
165	40
193	250
194	30
