Mass Spectrum: (Phenylthio)acetic acid, tetradecyl ester
Formula: C22 H36 O2 S
Molecular weight: 364
Origin: Zaikin V.G., TIPS RAS, Moscow, Russia
m/z	RELATIVE INTENSITY
26	90
27	230
28	200
29	501
39	230
40	40
41	1151
42	270
43	1942
44	160
45	721
46	30
47	30
50	50
51	140
53	60
54	120
55	1512
56	450
57	1712
58	70
65	230
66	110
67	210
68	180
69	1041
70	340
71	791
72	40
77	260
78	160
79	140
81	130
82	170
83	601
84	220
85	410
91	90
94	30
95	80
96	80
97	390
98	90
99	30
105	30
108	60
109	701
110	781
111	290
112	80
121	180
122	80
123	6506
124	1441
125	390
126	120
150	50
151	531
152	90
153	30
168	9999
169	1211
170	541
171	50
241	480
242	70
364	8988
365	2082
366	661
367	110
377	40
