Mass Spectrum: l-Alanine, N-(p-anisoyl)-, methyl ester
Formula: C12 H15 N O4
Molecular weight: 237
Origin: Zaikin V.G., TIPS RAS, Moscow, Russia
m/z	RELATIVE INTENSITY
28	10
39	30
42	50
44	40
50	50
51	40
59	30
63	110
64	210
65	30
75	30
76	80
77	611
78	50
79	30
89	40
92	531
93	40
103	30
104	50
107	310
108	30
120	40
121	50
133	20
134	40
135	9999
136	711
137	60
178	1572
179	170
205	30
206	30
220	30
237	460
238	60
