Mass Spectrum: 1-Cyclohexyldimethylsilyloxy-2-isopropoxybenzene
Formula: C17 H28 O2 Si
Molecular weight: 292
Origin: Zaikin V.G., TIPS RAS, Moscow, Russia
m/z	RELATIVE INTENSITY
26	30
27	90
28	40
39	100
41	270
42	50
43	450
45	30
53	30
54	40
55	160
59	410
60	30
61	80
65	30
67	50
75	781
76	60
77	70
79	30
81	100
83	80
91	210
92	40
133	110
135	60
136	410
137	130
149	150
151	1421
152	260
153	110
166	591
167	9999
168	1181
169	380
170	30
209	1121
210	170
211	50
235	130
292	60
