Mass Spectrum: l-Phenylalanine, N-pivaloyl-, methyl ester
Formula: C15 H21 N O3
Molecular weight: 263
Origin: Zaikin V.G., TIPS RAS, Moscow, Russia
m/z	RELATIVE INTENSITY
26	40
27	90
28	30
29	440
33	70
39	210
40	40
41	871
42	160
43	70
44	70
50	40
51	90
52	30
53	30
55	110
56	110
57	6706
58	290
59	150
60	40
63	50
65	280
69	170
70	100
77	230
78	120
83	30
85	2122
86	140
88	1111
89	120
90	80
91	1512
92	480
93	60
102	160
103	370
104	220
105	60
115	30
116	40
117	200
118	240
119	190
120	881
121	310
128	160
130	90
131	1812
132	190
134	40
144	80
146	370
147	90
160	30
161	921
162	9999
163	1171
164	110
172	180
178	320
179	30
180	30
188	110
203	80
204	1041
205	160
206	60
220	200
232	70
263	270
264	60
