Mass Spectrum: 3-Chloropropionic acid, hex-4-yn-3-yl ester
Formula: C9 H13 Cl O2
Molecular weight: 188
Origin: Zaikin V.G., TIPS RAS, Moscow, Russia
m/z	RELATIVE INTENSITY
26	180
27	1351
28	130
29	330
37	60
38	220
39	1261
40	310
41	1602
42	180
43	1131
44	170
45	40
49	70
50	270
51	591
52	561
53	1742
54	190
55	1642
56	200
57	350
61	60
62	150
63	4104
64	160
65	1652
66	390
67	591
68	90
69	2002
70	130
73	160
74	40
77	1532
78	300
79	9999
80	5885
81	2793
82	200
83	2302
84	130
89	30
91	7587
92	260
93	2633
94	90
95	100
96	30
97	831
98	2763
99	310
107	60
109	120
111	70
115	40
117	30
123	1782
124	150
125	1922
126	150
133	70
135	30
137	190
139	40
153	120
159	731
160	90
161	230
173	2843
174	240
175	931
176	70
188	511
189	50
190	160
