Mass Spectrum: l-Alanine, N-(4-butylbenzoyl)-, methyl ester
Formula: C15 H21 N O3
Molecular weight: 263
Origin: Zaikin V.G., TIPS RAS, Moscow, Russia
m/z	RELATIVE INTENSITY
27	30
28	10
39	30
41	60
42	30
44	40
51	30
55	40
63	30
65	80
77	110
78	40
79	30
89	130
90	360
91	721
92	80
102	60
103	110
104	90
105	110
115	60
116	50
117	60
118	380
119	60
131	120
132	60
133	90
134	20
159	80
160	40
161	9999
162	1051
163	70
174	40
202	350
203	50
204	2102
205	310
220	50
231	30
232	50
263	180
264	30
