Mass Spectrum: 5-Bromovaleric acid, 4-tetradecyl ester
Formula: C19 H37 Br O2
Molecular weight: 376
Origin: Zaikin V.G., TIPS RAS, Moscow, Russia
m/z	RELATIVE INTENSITY
26	150
27	470
28	280
29	711
36	40
39	350
40	70
41	1632
42	531
43	2042
44	280
45	40
53	140
54	310
55	4154
56	1361
57	2172
58	120
59	80
66	30
67	390
68	340
69	1632
70	1291
71	1371
72	100
73	190
79	100
80	140
81	340
82	671
83	1872
84	1011
85	881
86	70
91	30
95	180
96	390
97	1562
98	641
99	400
100	100
101	1351
102	70
107	60
109	140
110	280
111	1021
112	470
113	140
119	90
123	30
124	200
125	591
126	410
127	350
128	30
135	1842
136	90
137	1772
138	170
139	240
140	180
141	70
152	80
153	290
154	140
155	40
162	30
163	9999
164	571
165	9539
166	521
167	60
168	300
169	320
170	30
178	180
179	50
180	360
181	751
182	210
183	681
184	30
196	2382
197	440
198	30
213	130
225	340
226	50
235	310
236	30
237	300
304	20
306	20
333	70
335	60
