Mass Spectrum: l-Cysteine, N,S-bis(5-chlorovaleryl)-, methyl ester
Formula: C14 H23 Cl2 N O4 S
Molecular weight: 371
Origin: Zaikin V.G., TIPS RAS, Moscow, Russia
m/z	RELATIVE INTENSITY
26	160
27	631
28	20
29	1041
30	120
31	50
33	80
34	30
35	60
36	450
38	170
39	420
40	80
41	661
42	330
43	591
44	460
45	240
46	120
47	80
48	30
49	130
50	40
51	60
52	30
53	330
54	160
55	7186
56	501
57	280
58	130
59	420
60	200
61	70
62	100
63	410
64	40
65	130
67	70
68	70
69	110
70	150
71	80
72	50
73	80
74	260
75	410
76	1592
77	110
78	80
79	30
81	100
82	100
83	350
84	90
85	80
86	290
87	240
88	2132
89	410
90	60
91	4394
92	210
93	1421
94	70
95	60
96	60
97	70
98	50
99	30
100	300
101	490
102	811
103	80
104	30
106	30
107	120
109	40
110	70
111	60
112	50
114	30
116	50
117	170
118	430
119	5685
120	390
121	1862
122	100
123	50
124	120
125	50
126	50
130	50
132	70
133	100
134	2392
135	541
136	9999
137	621
138	3143
139	240
140	110
141	40
142	30
144	80
146	30
147	30
151	30
152	30
156	30
158	290
159	60
160	180
161	40
162	300
163	30
164	30
166	50
170	430
171	70
172	140
175	310
176	140
177	150
178	430
179	40
180	90
183	140
184	390
185	50
186	50
187	40
188	90
189	30
190	160
191	50
192	60
193	30
194	2863
195	250
196	1081
197	90
198	60
200	100
202	60
204	90
206	110
216	180
217	400
218	1662
219	280
220	911
221	130
222	380
223	40
224	40
234	90
235	30
236	490
237	60
238	160
252	3313
253	3293
254	1992
255	1311
256	390
257	80
258	30
276	60
282	30
312	240
313	30
314	160
316	20
336	120
338	50
340	30
342	30
