Mass Spectrum: l-Methionine, N-(5-chlorovaleryl)-, methyl ester
Formula: C11 H20 Cl N O3 S
Molecular weight: 281
Origin: Zaikin V.G., TIPS RAS, Moscow, Russia
m/z	RELATIVE INTENSITY
26	180
27	751
28	40
29	971
30	180
31	90
33	160
35	210
36	470
38	180
39	490
40	120
41	1061
42	370
43	380
44	701
45	561
46	220
47	551
48	240
49	230
50	80
51	70
52	60
53	380
54	420
55	5234
56	3804
57	2302
58	330
59	631
60	150
61	4094
62	240
63	521
64	30
65	120
67	70
68	120
69	150
70	140
71	200
72	50
73	110
74	721
75	1281
76	80
77	110
79	30
80	30
81	70
82	200
83	631
84	751
85	350
86	230
87	490
88	3253
89	5545
90	591
91	2923
92	160
93	951
94	60
96	60
97	40
98	140
99	230
100	240
101	180
102	2853
103	200
104	4194
105	290
106	210
107	60
110	80
111	270
112	430
113	70
114	1612
115	551
116	1612
117	240
118	120
119	3804
120	310
121	1251
122	90
124	130
125	30
126	100
128	30
129	30
130	70
131	470
132	60
133	50
134	110
135	30
136	370
137	50
138	260
139	440
140	250
141	50
142	130
143	30
144	480
145	120
146	120
147	771
148	220
149	200
150	30
152	30
154	90
156	30
158	160
160	80
161	30
162	2853
163	541
164	410
165	50
166	70
170	100
171	501
172	891
173	140
174	430
175	9879
176	1011
177	3323
178	360
179	30
180	60
184	300
185	30
186	140
187	30
188	2272
189	320
190	731
191	110
198	140
201	240
202	210
203	90
204	70
206	80
207	9999
208	1091
209	3483
210	300
211	30
218	20
220	2332
221	250
222	1411
223	150
224	250
230	40
232	50
233	60
234	681
235	90
236	210
246	120
249	110
250	50
251	40
266	40
282	210
283	460
284	60
