Mass Spectrum: 4-Nitrobenzoic acid, 3-methylbut-2-enyl ester
Formula: C12 H13 N O4
Molecular weight: 235
Origin: Zaikin V.G., TIPS RAS, Moscow, Russia
m/z	RELATIVE INTENSITY
26	70
27	380
28	10
29	410
30	140
37	30
38	90
39	761
40	470
41	3423
42	340
43	180
44	170
50	791
51	260
52	90
53	1502
54	130
55	170
56	40
57	410
62	40
63	140
64	180
65	521
66	150
67	4334
68	9999
69	3584
70	180
73	30
74	260
75	591
76	1662
77	230
78	30
83	80
84	30
85	631
86	30
91	30
92	761
93	110
103	80
104	2232
105	230
109	30
120	901
121	691
122	140
123	50
127	50
128	30
134	1201
135	110
136	30
137	450
138	50
150	8878
151	3133
152	270
153	60
155	50
167	180
168	50
172	60
205	60
206	30
235	130
