Mass Spectrum: 2-Fluorobenzoic acid, 3-methylbut-2-enyl ester
Formula: C12 H13 F O2
Molecular weight: 208
Origin: Zaikin V.G., TIPS RAS, Moscow, Russia
m/z	RELATIVE INTENSITY
26	90
27	470
28	10
29	350
37	30
38	90
39	831
40	450
41	3203
42	300
43	70
44	220
45	20
50	250
51	230
52	80
53	1181
54	120
55	130
56	40
57	130
63	50
65	90
66	80
67	2933
68	6325
69	3453
70	180
74	130
75	1021
76	130
77	60
83	70
84	50
85	821
86	40
93	30
94	180
95	2072
96	320
97	60
109	50
122	30
123	9999
124	721
125	50
140	250
141	430
142	30
149	100
163	30
179	40
207	110
208	160
209	30
