Mass Spectrum: l-Cysteine, N,S-bis(caproyl)-, methyl ester
Formula: C16 H29 N O4 S
Molecular weight: 331
Origin: Zaikin V.G., TIPS RAS, Moscow, Russia
m/z	RELATIVE INTENSITY
26	100
27	420
28	10
29	661
30	90
31	30
33	50
39	250
40	70
41	1071
42	390
43	5134
44	460
45	140
46	70
47	40
53	60
54	50
55	1051
56	130
57	110
58	50
59	280
60	711
61	30
67	40
68	40
69	330
70	531
71	2903
72	190
73	40
74	170
75	230
76	1351
77	70
78	60
81	70
83	50
84	50
85	60
86	330
87	160
88	1461
89	300
90	40
97	80
98	170
99	5585
100	400
101	460
102	741
103	80
107	40
111	60
112	60
113	30
114	40
116	9999
117	701
118	240
119	80
124	50
126	30
128	70
130	80
131	120
133	50
134	1992
135	601
136	511
137	50
138	30
140	130
141	30
142	40
143	50
144	80
145	250
146	30
154	30
155	240
156	140
158	320
159	90
162	130
168	170
169	40
172	100
174	2693
175	280
176	280
177	1652
178	170
179	90
186	240
187	410
188	150
190	350
191	250
192	30
199	70
200	901
201	120
202	130
204	140
214	571
215	90
216	480
217	60
218	70
232	2853
233	5024
234	911
235	310
236	30
272	300
273	50
275	40
300	90
302	30
331	110
332	60
