Mass Spectrum: 4-Bromobenzoic acid, undec-2-enyl ester
Formula: C18 H25 Br O2
Molecular weight: 352
Origin: Zaikin V.G., TIPS RAS, Moscow, Russia
m/z	RELATIVE INTENSITY
26	60
27	210
28	140
29	350
38	30
39	280
40	50
41	951
42	180
43	711
44	70
50	180
51	70
52	30
53	200
54	1391
55	1181
56	240
57	400
65	70
66	80
67	831
68	651
69	621
70	150
71	80
74	70
75	290
76	430
77	180
78	50
79	130
80	140
81	791
82	861
83	370
84	50
85	30
91	40
95	581
96	611
97	240
98	40
104	350
105	140
109	270
110	280
111	50
117	40
123	110
124	581
125	60
152	541
153	70
155	731
156	100
157	711
158	80
169	200
183	9999
184	701
185	9629
186	681
187	40
198	30
200	270
201	160
202	240
203	150
211	30
213	30
226	30
228	30
240	40
242	40
253	120
254	90
255	130
256	90
267	30
268	40
269	30
270	40
282	30
283	70
284	20
295	50
297	50
309	40
311	40
323	50
325	50
