Mass Spectrum: Isonicotinic acid, 3-pentadecyl ester
Formula: C21 H35 N O2
Molecular weight: 333
Origin: Zaikin V.G., TIPS RAS, Moscow, Russia
m/z	RELATIVE INTENSITY
26	120
27	270
28	210
29	541
35	20
36	210
38	100
39	310
40	70
41	1662
42	410
43	1922
44	320
50	190
51	801
52	210
53	160
54	330
55	2072
56	931
57	1592
58	80
65	30
66	50
67	501
68	360
69	1522
70	871
71	651
72	50
73	40
77	130
78	2292
79	661
80	290
81	370
82	410
83	1031
84	511
85	370
91	40
93	200
94	40
95	220
96	260
97	871
98	280
99	70
105	80
106	9108
107	1752
108	120
109	90
110	110
111	430
112	160
113	30
120	220
121	410
122	110
123	470
124	9999
125	1231
126	260
127	30
134	170
135	70
136	40
137	40
138	30
139	50
140	40
141	40
148	70
149	50
150	40
151	30
154	30
162	90
163	50
164	240
165	50
176	60
177	100
178	40
182	30
190	60
191	70
204	60
210	90
218	90
219	30
232	50
233	130
234	30
246	30
247	30
248	30
260	40
262	50
274	50
276	80
289	681
290	210
304	180
305	30
318	40
333	80
