Mass Spectrum: 2-Thiopheneacetic acid, 2,7-dimethyloct-7-en-5-yn-4-yl ester
Formula: C16 H20 O2 S
Molecular weight: 276
Origin: Zaikin V.G., TIPS RAS, Moscow, Russia
m/z	RELATIVE INTENSITY
26	60
27	240
28	60
29	160
38	40
39	440
40	80
41	791
42	60
43	1341
44	270
45	470
47	30
50	110
51	270
52	150
53	661
54	40
55	641
56	50
57	130
58	60
62	40
63	160
64	80
65	310
66	90
67	160
69	380
70	90
71	60
76	30
77	1491
78	230
79	1532
80	130
81	270
89	30
91	1732
92	511
93	2152
94	230
95	170
96	220
97	9999
98	681
99	460
103	80
104	50
105	470
106	90
107	1441
108	170
109	681
110	190
111	30
115	60
117	90
118	20
119	781
120	220
121	30
123	40
124	440
125	110
126	30
133	90
134	220
135	340
136	60
137	100
142	120
143	30
145	70
147	30
151	90
152	611
153	70
161	60
162	501
163	80
164	30
173	310
174	40
175	130
176	40
177	30
178	260
179	150
180	30
187	40
189	70
190	40
191	190
192	80
193	40
205	50
217	30
219	80
220	40
233	1672
234	410
235	120
242	110
276	901
277	160
278	50
