Mass Spectrum: l-Leucine, N-caproyl-, methyl ester
Formula: C13 H25 N O3
Molecular weight: 243
Origin: Zaikin V.G., TIPS RAS, Moscow, Russia
m/z	RELATIVE INTENSITY
26	30
27	190
28	90
29	240
30	450
33	30
39	130
40	30
41	571
42	190
43	1381
44	581
53	40
54	30
55	410
56	110
57	120
59	200
60	30
67	40
68	50
69	220
70	280
71	541
72	60
73	30
74	30
81	30
83	40
84	180
85	70
86	9999
87	541
88	460
89	320
90	30
96	50
97	50
98	120
99	861
100	110
101	30
102	300
112	80
113	80
115	30
116	250
126	40
127	70
128	320
129	110
130	170
131	731
132	40
140	70
144	270
145	60
146	130
154	30
155	490
156	40
158	90
168	160
172	70
184	1692
185	210
187	1241
188	120
200	100
212	60
214	40
228	70
243	40
