Mass Spectrum: Butanoic acid, hex-4-yn-3-yl ester
Formula: C10 H16 O2
Molecular weight: 168
Origin: Zaikin V.G., TIPS RAS, Moscow, Russia
m/z	RELATIVE INTENSITY
26	160
27	1061
28	10
29	380
37	40
38	110
39	1191
40	290
41	2112
42	460
43	4995
44	330
45	70
50	170
51	370
52	380
53	1532
54	160
55	380
56	60
57	170
60	150
62	30
63	100
65	480
66	300
67	330
68	60
69	951
70	250
71	9999
72	440
73	100
77	941
78	200
79	8147
80	3483
81	2743
82	190
83	771
84	50
89	290
96	30
97	521
98	1121
99	390
100	40
107	110
111	200
112	50
125	2793
126	350
135	30
139	1101
140	220
153	2122
154	200
168	631
169	60
