Mass Spectrum: trans-3-Trifluoromethylcinnamic acid, 2,7-dimethyloct-7-en-5-yn-4-yl ester
Formula: C20 H21 F3 O2
Molecular weight: 350
Origin: Zaikin V.G., TIPS RAS, Moscow, Russia
m/z	RELATIVE INTENSITY
26	40
27	110
28	30
29	70
39	170
40	40
41	420
42	30
43	360
44	90
50	80
51	130
52	50
53	100
55	150
57	90
63	70
64	30
65	160
66	50
67	150
68	40
69	90
74	40
75	90
76	60
77	420
78	100
79	300
80	40
81	360
82	20
83	30
85	30
90	30
91	881
92	320
93	330
94	60
95	140
96	60
97	30
101	50
102	250
103	110
104	40
105	240
106	60
107	110
108	30
109	350
110	30
115	30
117	90
119	1592
120	210
121	50
123	70
125	40
131	40
133	120
134	270
135	50
136	110
145	150
146	30
147	50
151	1431
152	260
153	30
159	70
163	40
165	40
167	30
169	120
170	200
171	1431
172	200
173	40
179	30
191	70
197	110
198	60
199	9999
200	1001
201	80
215	240
216	260
217	40
223	40
235	30
236	30
237	40
242	30
245	80
249	50
250	20
251	50
252	30
253	40
254	30
263	40
264	30
265	80
266	130
267	40
279	180
280	40
291	100
292	30
293	50
294	170
295	30
307	2442
308	450
309	50
322	40
331	50
350	120
