Mass Spectrum: 3-Diphenylethenylsilyloxyhex-4-yne
Formula: C20 H22 O Si
Molecular weight: 306
Origin: Zaikin V.G., TIPS RAS, Moscow, Russia
m/z	RELATIVE INTENSITY
26	100
27	90
28	20
29	50
39	130
40	40
41	120
44	50
45	340
50	80
51	160
52	80
53	280
55	30
63	30
65	50
66	30
67	90
74	30
76	50
77	731
78	420
79	230
80	50
81	40
85	30
91	120
93	40
97	30
102	60
103	130
104	120
105	1341
106	200
107	190
111	60
115	130
116	50
117	80
118	80
119	40
121	210
122	130
123	871
124	160
125	60
127	60
128	150
129	480
130	160
131	380
132	100
133	70
137	40
138	30
139	30
141	671
142	170
143	260
144	210
145	581
146	100
147	230
148	90
149	951
150	160
151	90
152	180
153	100
154	70
155	300
156	80
157	110
158	40
160	30
161	470
162	90
163	40
165	70
167	200
168	50
169	110
170	120
171	1672
172	320
173	150
174	160
175	110
176	30
178	50
179	70
180	270
181	1341
182	310
183	2943
184	591
185	190
186	40
187	250
188	60
189	120
191	50
193	40
195	30
197	300
198	60
199	1522
200	330
201	190
202	180
203	50
204	30
205	40
207	270
208	240
209	6435
210	1301
211	360
212	50
213	190
214	30
215	80
217	60
219	60
220	60
221	3373
222	771
223	240
224	40
225	30
226	30
227	60
228	120
229	180
230	40
231	40
233	270
234	90
235	30
237	50
239	30
245	40
247	200
248	200
249	150
250	80
251	50
259	80
260	40
261	30
263	150
264	40
275	30
276	80
277	9999
278	2693
279	791
280	120
291	3614
292	961
293	240
294	30
305	80
306	931
307	260
308	60
