Mass Spectrum: 3-Trifluoromethylbenzoic acid, 3-chloroprop-2-enyl ester
Formula: C11 H8 Cl F3 O2
Molecular weight: 264
Origin: Zaikin V.G., TIPS RAS, Moscow, Russia
m/z	RELATIVE INTENSITY
26	40
27	70
28	10
29	30
36	70
38	40
39	470
44	60
49	170
50	160
51	80
57	40
61	30
62	30
63	30
69	60
73	40
74	130
75	1151
76	130
77	330
91	280
93	90
94	30
95	410
96	40
99	40
115	40
119	50
125	250
126	160
127	90
143	30
144	70
145	3023
146	240
161	30
165	60
171	30
173	9999
174	741
175	40
183	110
184	30
185	110
189	120
190	50
191	60
201	40
202	30
211	40
219	30
229	1652
230	180
245	170
247	50
