Mass Spectrum: trans-3-(Trifluoromethyl)cinnamic acid, undec-10-enyl ester
Formula: C21 H27 F3 O2
Molecular weight: 368
Origin: Zaikin V.G., TIPS RAS, Moscow, Russia
m/z	RELATIVE INTENSITY
26	120
27	260
29	511
39	450
40	90
41	2362
42	430
43	571
53	260
54	2342
55	3293
56	440
57	130
66	280
67	3053
68	3393
69	1992
70	190
71	110
79	180
80	240
81	2883
82	3694
83	971
84	100
85	60
93	100
94	160
95	2392
96	2553
97	470
98	30
102	210
107	60
108	120
109	1351
110	1391
111	190
113	70
121	150
122	70
123	621
124	561
129	40
131	70
135	60
136	30
137	180
138	40
145	80
147	60
150	410
151	1622
152	701
153	100
155	300
156	30
161	40
163	70
169	40
170	70
171	2452
172	771
173	70
175	40
180	60
181	30
185	40
186	120
191	70
197	1241
198	330
199	9999
200	1121
201	100
209	150
210	100
211	150
212	80
213	30
214	30
215	821
216	2422
217	5555
218	661
219	60
223	30
224	60
225	70
226	30
228	30
229	40
230	30
237	40
238	30
239	40
242	50
243	50
254	50
255	30
256	220
257	170
270	20
271	100
308	30
320	30
323	40
326	70
340	50
349	30
368	210
369	40
