Mass Spectrum: l-Methionine, N-(p-anisoyl)-, methyl ester
Formula: C14 H19 N O4 S
Molecular weight: 297
Origin: Zaikin V.G., TIPS RAS, Moscow, Russia
m/z	RELATIVE INTENSITY
26	30
27	50
28	20
39	50
41	70
44	60
45	70
46	30
47	70
48	30
50	50
51	40
56	70
59	60
61	200
63	110
64	200
65	50
74	60
75	170
76	100
77	801
78	70
79	40
88	80
91	30
92	611
93	50
103	30
104	80
105	40
107	390
108	50
114	60
119	30
120	30
121	60
133	50
134	40
135	9999
136	951
137	80
152	120
162	160
163	621
164	70
190	60
191	1231
192	140
204	140
205	90
223	1512
224	180
236	170
238	40
250	30
297	120
