Mass Spectrum: 2,7-Dimethyl-4-tripropylsilyloxyoct-7-en-5-yne
Formula: C19 H36 O Si
Molecular weight: 308
Origin: Zaikin V.G., TIPS RAS, Moscow, Russia
m/z	RELATIVE INTENSITY
28	10
29	40
40	40
41	160
43	190
44	80
45	290
47	541
50	30
51	40
53	60
55	60
56	30
57	50
59	420
60	90
61	1161
62	80
63	70
65	50
69	140
70	40
71	80
73	280
74	70
76	50
78	30
79	150
81	50
83	90
84	30
85	70
87	240
89	961
90	350
92	30
93	150
94	30
95	1351
96	190
97	250
98	40
99	60
101	40
105	70
107	80
108	50
109	1361
110	170
111	270
112	40
113	70
115	521
116	80
121	90
122	30
123	130
124	110
125	741
126	110
127	40
131	521
132	60
134	30
135	240
136	60
137	3493
138	561
139	290
140	40
141	30
151	110
153	100
155	70
157	490
158	60
165	70
166	60
167	2933
168	450
169	130
179	1792
180	350
181	340
182	100
193	30
199	671
200	110
209	150
210	30
221	100
222	40
223	9999
224	1972
225	541
226	60
251	631
252	160
253	40
265	3724
266	1652
267	450
268	80
293	130
294	30
308	70
