Mass Spectrum: o-Anisic acid, 5-tetradecyl ester
Formula: C22 H36 O3
Molecular weight: 348
Origin: Zaikin V.G., TIPS RAS, Moscow, Russia
m/z	RELATIVE INTENSITY
26	40
27	120
28	100
29	260
39	130
41	641
42	140
43	701
44	70
50	30
51	80
53	50
54	100
55	721
56	320
57	521
58	40
63	50
64	70
65	60
67	140
68	90
69	501
70	300
71	210
76	60
77	921
78	120
79	220
81	100
82	110
83	370
84	190
85	120
92	380
93	50
94	30
95	50
96	70
97	300
98	120
104	30
105	501
106	140
107	80
108	50
109	30
110	50
111	160
112	80
120	150
121	110
122	50
123	1502
124	130
125	80
126	50
133	60
134	230
135	9999
136	931
137	90
138	30
139	30
151	50
152	3954
153	4785
154	450
155	50
168	30
196	170
213	220
214	30
221	40
348	120
349	30
