Mass Spectrum: 3-Fluorobenzoic acid, 3,5-difluorophenyl ester
Formula: C13 H7 F3 O2
Molecular weight: 252
Origin: Zaikin V.G., TIPS RAS, Moscow, Russia
m/z	RELATIVE INTENSITY
28	10
31	30
50	170
51	180
57	110
62	40
63	120
68	100
69	180
74	140
75	1051
76	100
81	90
82	70
93	50
94	220
95	4094
96	280
101	410
102	100
113	40
122	40
123	9999
124	681
125	40
129	60
130	230
175	30
195	30
252	180
