Mass Spectrum: 2,6-Dimethyl-5-triisobutylsilyloxynon-1-en-3-yne
Formula: C23 H44 O Si
Molecular weight: 364
Origin: Zaikin V.G., TIPS RAS, Moscow, Russia
m/z	RELATIVE INTENSITY
26	70
27	140
28	50
29	130
37	30
38	110
39	370
40	110
41	701
42	160
43	320
44	160
45	440
47	200
50	50
51	60
52	40
53	90
55	240
56	200
57	120
58	80
59	1201
60	120
61	1712
62	110
63	80
65	80
66	30
67	60
69	170
71	100
73	310
74	90
75	230
76	30
77	340
78	130
79	260
80	60
81	70
83	170
84	120
85	511
86	70
87	370
88	40
89	40
91	360
92	70
93	160
94	50
95	521
96	90
97	160
98	110
99	160
101	340
102	40
103	591
104	80
105	220
106	70
107	140
108	50
109	1181
110	150
111	511
112	70
113	80
115	70
117	90
119	160
121	90
122	30
123	841
124	531
125	921
126	130
127	100
129	140
133	70
135	170
136	30
137	210
138	160
139	400
140	80
141	60
143	390
144	50
145	40
147	90
148	40
149	571
150	90
151	1311
152	250
153	280
154	50
155	30
159	220
160	20
163	50
165	340
166	60
167	470
168	80
169	30
173	40
177	40
179	130
180	100
181	3794
182	601
183	190
185	250
186	30
193	90
194	30
195	2843
196	490
197	140
207	130
208	40
209	200
210	130
211	30
237	1882
238	370
239	100
241	90
242	30
251	9999
252	2212
253	591
254	60
293	150
294	30
307	410
308	631
309	150
310	30
