Mass Spectrum: Butanoic acid, 2-methyloct-5-yn-4-yl ester
Formula: C13 H22 O2
Molecular weight: 210
Origin: Zaikin V.G., TIPS RAS, Moscow, Russia
m/z	RELATIVE INTENSITY
26	120
27	961
28	240
29	611
37	30
38	70
39	901
40	190
41	2132
42	260
43	5805
44	330
45	80
50	90
51	230
52	170
53	561
54	100
55	1041
56	180
57	400
60	190
63	80
64	30
65	390
66	290
67	661
68	240
69	1061
70	240
71	9999
72	430
73	90
77	1001
78	250
79	2973
80	781
81	1912
82	160
83	641
84	90
85	250
89	160
91	1391
92	230
93	3083
94	490
95	310
96	60
97	821
98	1522
99	100
105	400
106	50
107	4174
108	380
109	60
111	911
112	140
113	70
121	200
122	701
123	370
124	80
125	1111
126	90
139	470
140	2202
141	240
153	380
154	140
167	3694
168	551
169	40
181	90
195	230
210	90
