Mass Spectrum: o-Anisic acid, 3-tetradecyl ester
Formula: C22 H36 O3
Molecular weight: 348
Origin: Zaikin V.G., TIPS RAS, Moscow, Russia
m/z	RELATIVE INTENSITY
26	50
27	120
28	100
29	260
39	120
41	621
42	140
43	751
44	60
50	30
51	80
53	50
54	80
55	701
56	300
57	521
63	50
64	70
65	50
67	130
68	90
69	470
70	290
71	210
72	30
76	60
77	881
78	120
79	210
81	90
82	100
83	330
84	170
85	120
92	340
93	50
94	30
95	50
96	60
97	290
98	100
105	571
106	150
107	100
108	50
110	30
111	140
112	50
120	150
121	110
122	60
123	1802
124	140
125	60
126	30
133	70
134	270
135	9999
136	891
137	90
138	30
151	60
152	4695
153	4855
154	430
155	40
193	50
196	90
213	130
348	130
