Mass Spectrum: l-Methionine, N-(4-fluorobenzoyl)-, methyl ester
Formula: C13 H16 F N O3 S
Molecular weight: 285
Origin: Zaikin V.G., TIPS RAS, Moscow, Russia
m/z	RELATIVE INTENSITY
26	20
27	60
28	30
35	30
39	30
41	100
44	80
45	90
46	40
47	110
48	40
49	30
50	50
51	30
54	30
55	30
56	100
57	50
59	80
61	410
69	50
74	110
75	571
76	50
87	50
88	420
94	110
95	1992
96	190
102	30
114	200
121	40
122	70
123	9999
124	971
125	60
138	30
140	120
151	601
152	70
162	521
163	40
164	40
177	40
178	270
179	2753
180	290
192	360
193	120
205	40
206	40
210	30
211	3804
212	420
213	40
224	701
225	80
226	210
238	170
253	40
285	430
286	70
