Mass Spectrum: 4-Chlorobenzoic acid, 3-chloroprop-2-enyl ester
Formula: C10 H8 Cl2 O2
Molecular weight: 230
Origin: Zaikin V.G., TIPS RAS, Moscow, Russia
m/z	RELATIVE INTENSITY
26	60
27	120
28	10
29	60
36	110
38	100
39	450
40	50
41	220
44	60
49	160
50	340
51	170
53	50
61	60
62	30
63	30
65	40
67	70
68	200
69	120
73	70
74	230
75	1892
76	300
77	400
85	110
87	30
91	150
93	40
104	80
105	30
110	40
111	1802
112	190
113	591
114	60
115	180
116	70
139	9999
140	691
141	2933
142	230
149	70
151	120
153	30
156	70
159	40
167	70
185	30
195	1832
196	180
197	601
198	60
201	30
230	50
232	30
