Mass Spectrum: Acetoxyacetic acid, pent-2-en-4-ynyl ester
Formula: C9 H10 O4
Molecular weight: 182
Origin: Zaikin V.G., TIPS RAS, Moscow, Russia
m/z	RELATIVE INTENSITY
26	70
27	160
28	70
29	190
30	90
31	70
37	60
38	220
39	1512
40	70
42	611
43	9999
44	390
45	60
49	30
50	260
51	300
52	240
53	210
54	40
61	50
62	150
63	511
64	200
65	3604
66	370
73	2132
74	90
78	50
79	90
81	711
82	360
94	230
95	320
101	3864
102	170
109	270
122	50
123	40
124	1491
125	100
182	30
