Mass Spectrum: 3-Trifluoromethylbenzoic acid, tridec-2-ynyl ester
Formula: C21 H27 F3 O2
Molecular weight: 368
Origin: Zaikin V.G., TIPS RAS, Moscow, Russia
m/z	RELATIVE INTENSITY
26	40
27	170
28	130
29	320
39	200
40	50
41	691
42	140
43	711
44	30
50	70
51	100
52	190
53	190
54	150
55	611
56	160
57	230
65	120
66	140
67	450
68	110
69	270
70	80
71	70
75	60
76	30
77	240
78	80
79	681
80	200
81	390
82	140
83	140
84	30
85	30
91	260
92	50
93	470
94	290
95	420
96	120
97	80
99	30
105	60
107	210
108	230
109	130
110	60
111	160
113	40
121	290
122	80
123	40
124	70
125	80
126	90
127	60
135	200
136	70
137	50
145	1031
146	100
149	80
151	70
152	50
155	70
171	30
173	9999
174	691
175	40
177	70
178	50
188	30
190	80
191	50
195	50
201	50
241	120
242	60
