Mass Spectrum: 2-Chlorobenzoic acid, hex-4-yn-3-yl ester
Formula: C13 H13 Cl O2
Molecular weight: 236
Origin: Zaikin V.G., TIPS RAS, Moscow, Russia
m/z	RELATIVE INTENSITY
26	30
27	150
28	20
29	70
38	30
39	280
40	70
41	420
43	40
44	50
50	200
51	200
52	110
53	551
54	40
55	70
63	40
65	160
66	100
67	80
69	110
74	80
75	571
76	190
77	330
78	70
79	1932
80	851
81	661
82	40
85	60
96	50
97	460
98	30
104	60
110	30
111	1091
112	140
113	380
114	40
115	30
139	9999
140	681
141	2983
142	240
156	100
157	230
158	50
159	80
163	50
165	30
173	380
174	40
179	30
190	40
201	210
207	190
208	270
209	90
210	90
221	631
222	80
223	210
236	120
238	40
