Mass Spectrum: 1-Chloro-2-dimethyl(dodecyl)silyloxybenzene
Formula: C20 H35 Cl O Si
Molecular weight: 354
Origin: Zaikin V.G., TIPS RAS, Moscow, Russia
m/z	RELATIVE INTENSITY
28	20
29	50
41	100
43	120
55	50
57	40
59	200
63	40
65	30
79	70
85	20
91	260
92	40
93	901
94	70
95	340
99	40
121	40
135	190
137	30
147	30
148	40
149	991
150	150
151	160
155	60
169	40
171	450
172	60
173	150
185	9999
186	1131
187	3093
188	390
189	120
339	300
340	80
341	110
354	280
355	70
356	110
