Mass Spectrum: 1-Chloro-2-trihexylsilyloxybenzene
Formula: C24 H43 Cl O Si
Molecular weight: 410
Origin: Zaikin V.G., TIPS RAS, Moscow, Russia
m/z	RELATIVE INTENSITY
28	20
41	70
43	60
55	50
59	40
63	70
65	40
77	80
79	60
83	50
85	80
91	80
93	90
95	30
105	30
107	50
113	70
115	40
119	80
121	981
122	110
123	70
135	40
147	70
148	30
149	90
155	230
156	60
157	1692
158	220
159	581
160	60
161	40
169	50
170	30
171	70
175	40
177	20
183	90
184	30
185	40
197	50
199	40
211	90
213	40
239	130
240	30
241	2092
242	380
243	751
244	130
245	30
325	9999
326	2242
327	3403
328	781
329	180
410	40
