Mass Spectrum: l-Valine, N-(4-fluorobenzoyl)-, methyl ester
Formula: C13 H16 F N O3
Molecular weight: 253
Origin: Zaikin V.G., TIPS RAS, Moscow, Russia
m/z	RELATIVE INTENSITY
27	50
28	30
39	40
41	70
43	60
44	50
50	40
55	30
56	50
59	30
69	40
70	50
75	260
76	30
82	20
83	70
94	90
95	1532
96	140
114	80
115	60
122	60
123	9999
124	671
125	40
139	40
140	1361
141	110
151	90
179	310
180	40
193	30
194	2613
195	310
206	40
211	210
222	30
253	40
