Mass Spectrum: p-Anisic acid, oct-3-en-2-yl ester
Formula: C16 H22 O3
Molecular weight: 262
Origin: Zaikin V.G., TIPS RAS, Moscow, Russia
m/z	RELATIVE INTENSITY
27	50
28	20
29	50
39	100
41	260
43	40
50	30
51	30
53	90
54	120
55	901
56	50
57	30
63	60
64	120
65	70
66	30
67	240
68	561
69	871
70	50
71	50
76	50
77	501
78	60
79	90
81	470
82	60
92	370
93	50
95	130
104	30
107	270
108	80
109	50
110	300
111	90
121	50
127	180
135	9999
136	861
137	80
152	1281
153	330
154	30
161	50
177	70
205	30
219	210
220	30
262	130
