Mass Spectrum: 1-(Dimethyldodecylsilyloxy)hexadecane
Formula: C30 H64 O Si
Molecular weight: 468
Origin: Zaikin V.G., TIPS RAS, Moscow, Russia
m/z	RELATIVE INTENSITY
26	30
27	70
28	30
29	80
39	60
41	220
42	80
43	340
54	30
55	290
56	120
57	400
59	210
61	190
67	70
68	40
69	340
70	90
71	230
73	30
75	1081
76	80
77	60
81	60
82	40
83	470
84	60
85	150
87	50
89	460
90	30
95	50
97	440
98	40
99	80
101	150
111	210
113	50
115	130
125	70
127	30
129	70
143	40
157	30
171	30
185	30
199	40
213	50
227	90
229	30
241	30
283	90
285	60
299	9999
300	2272
301	601
302	80
453	1461
454	551
455	150
