Mass Spectrum: 4-Cyclohexyldimethylsilyloxy-2,7-dimethyloct--7-en-5-yne
Formula: C18 H32 O Si
Molecular weight: 292
Origin: Zaikin V.G., TIPS RAS, Moscow, Russia
m/z	RELATIVE INTENSITY
26	80
27	190
28	40
29	120
31	50
36	90
38	30
39	350
40	80
41	741
42	100
43	541
44	80
45	180
47	260
50	70
51	140
52	90
53	210
54	190
55	410
56	80
57	100
58	80
59	2543
60	220
61	781
62	60
63	80
64	30
65	170
66	70
67	320
68	30
69	260
71	60
73	260
74	80
75	7116
76	551
77	841
78	220
79	420
80	100
81	821
82	150
83	230
84	30
85	180
87	50
89	70
91	681
92	210
93	300
94	40
95	130
96	50
97	290
98	60
99	180
101	440
102	50
103	100
104	30
105	170
106	30
107	200
108	60
109	901
110	120
111	240
112	50
113	180
115	120
117	80
119	250
120	40
121	80
122	90
123	9999
124	1301
125	611
126	60
127	80
129	140
131	30
133	350
134	100
135	1231
136	140
137	310
138	80
139	400
140	60
141	240
142	30
143	1742
144	210
145	120
147	40
149	160
150	30
151	360
152	90
153	6586
154	991
155	310
161	30
163	90
165	260
166	60
167	1461
168	270
169	90
175	40
177	30
179	230
180	40
181	30
191	200
192	40
193	130
194	30
195	511
196	90
197	20
199	40
209	8397
210	3153
211	731
212	120
215	30
235	991
236	220
237	50
249	50
251	40
277	250
278	60
292	60
