Mass Spectrum: 4-Cyanobenzoic acid, hexyl ester
Formula: C14 H17 N O2
Molecular weight: 231
Origin: Zaikin V.G., TIPS RAS, Moscow, Russia
m/z	RELATIVE INTENSITY
26	60
27	380
28	10
29	460
38	30
39	340
40	70
41	1121
42	1131
43	1101
44	130
50	250
51	450
52	100
53	90
54	170
55	1642
56	4074
57	310
63	30
65	30
67	120
68	50
69	1722
70	120
71	30
74	100
75	821
76	601
77	100
82	50
83	250
84	3253
85	240
99	30
100	40
101	160
102	5004
103	901
104	310
105	30
129	40
130	9999
131	1031
132	80
145	70
147	360
148	5014
149	591
150	40
160	30
161	150
174	50
188	340
189	571
190	60
202	180
203	150
216	30
230	60
231	30
