Mass Spectrum: 2-(Dichloromethyl)dimethylsilyloxybut-3-yne
Formula: C7 H12 Cl2 O Si
Molecular weight: 210
Origin: Zaikin V.G., TIPS RAS, Moscow, Russia
m/z	RELATIVE INTENSITY
25	10
26	80
27	350
28	20
29	70
31	10
35	30
36	280
37	20
38	120
39	160
40	20
41	50
42	40
43	711
44	110
45	651
46	30
47	400
48	40
49	50
50	130
51	200
52	150
53	400
54	50
55	140
56	20
57	20
58	50
59	270
60	80
61	80
62	10
63	460
64	30
65	360
66	60
67	120
68	20
69	60
71	10
73	20
74	30
75	2102
76	150
77	90
78	150
79	180
80	150
81	120
82	70
83	7947
84	761
85	410
86	20
87	30
88	10
89	10
91	10
92	10
93	360
94	30
95	641
96	50
97	190
98	60
99	180
100	40
101	1221
102	110
103	260
104	20
105	110
106	40
107	30
108	20
109	20
111	180
112	20
113	1572
114	90
115	1201
116	90
117	310
118	20
119	40
121	40
123	210
124	10
125	230
126	20
127	9999
128	1111
129	380
130	20
131	40
133	20
145	10
147	50
149	10
159	20
195	200
196	10
197	130
198	10
199	20
