Mass Spectrum: 6-Bromohexanoic acid, oct-3-en-2-yl ester
Formula: C14 H25 Br O2
Molecular weight: 304
Origin: Zaikin V.G., TIPS RAS, Moscow, Russia
m/z	RELATIVE INTENSITY
27	60
29	50
39	170
41	921
42	180
43	380
45	60
53	330
54	310
55	1582
56	120
58	90
59	40
60	90
65	80
66	60
67	1011
68	3263
69	6796
70	480
71	511
72	110
73	140
79	300
80	230
81	2513
82	521
85	290
86	551
87	50
95	881
96	30
97	651
98	70
99	140
107	200
109	551
110	1281
111	1441
112	160
113	400
114	190
115	160
123	30
127	2312
128	7717
129	781
134	30
135	80
149	621
150	60
151	551
155	541
156	60
169	120
170	300
177	9999
178	751
179	9659
180	701
183	70
189	30
191	70
195	90
197	50
205	110
206	280
207	210
208	350
209	60
219	140
221	150
223	30
225	110
247	250
248	30
249	240
250	40
261	180
263	190
264	50
304	50
306	60
