Mass Spectrum: 2,2-Dimethylpropanoic acid, 3-chloroprop-2-enyl ester
Formula: C8 H13 Cl O2
Molecular weight: 176
Origin: Zaikin V.G., TIPS RAS, Moscow, Russia
m/z	RELATIVE INTENSITY
26	90
27	230
28	10
29	581
39	1081
40	270
41	2492
42	300
43	260
44	490
45	90
49	290
50	110
51	150
52	190
53	340
54	60
55	390
56	390
57	9999
58	561
59	100
61	50
62	40
67	561
68	961
69	2903
70	330
71	340
72	380
73	60
74	40
75	2773
76	120
77	1111
78	80
79	360
81	290
83	50
85	1672
86	180
87	50
88	170
89	30
91	160
93	40
96	80
103	180
105	60
113	30
133	50
141	3904
142	400
176	120
178	30
