Mass Spectrum: 4-Bromobenzoic acid, 3,5-difluorophenyl ester
Formula: C13 H7 Br F2 O2
Molecular weight: 312
Origin: Zaikin V.G., TIPS RAS, Moscow, Russia
m/z	RELATIVE INTENSITY
28	20
36	40
38	30
40	30
44	130
50	531
51	160
57	60
63	90
73	50
74	320
75	1101
76	1171
77	140
80	50
81	70
82	110
101	440
102	100
104	300
105	90
113	40
129	110
130	240
131	60
151	40
154	50
155	2442
156	250
157	2412
158	190
175	30
177	80
183	9999
184	861
185	9849
186	801
187	40
200	30
202	30
312	120
314	110
