Mass Spectrum: 4-Fluorobenzoic acid, 3,5-difluorophenyl ester
Formula: C13 H7 F3 O2
Molecular weight: 252
Origin: Zaikin V.G., TIPS RAS, Moscow, Russia
m/z	RELATIVE INTENSITY
28	10
44	20
50	140
51	140
57	80
62	30
63	80
68	70
69	140
74	100
75	781
76	70
81	50
82	40
93	40
94	170
95	2753
96	210
101	280
102	60
113	30
122	30
123	9999
124	641
125	40
129	50
130	140
252	80
