Mass Spectrum: o-Anisic acid, nonyl ester
Formula: C17 H26 O3
Molecular weight: 278
Origin: Zaikin V.G., TIPS RAS, Moscow, Russia
m/z	RELATIVE INTENSITY
26	30
27	90
28	60
29	160
39	100
41	410
42	110
43	410
44	30
50	30
51	90
53	30
54	30
55	340
56	180
57	160
63	60
64	90
65	60
67	50
68	40
69	160
70	100
71	80
76	80
77	1071
78	130
79	200
81	30
83	60
84	40
85	40
92	450
93	60
94	30
97	30
104	30
105	711
106	210
107	130
108	60
119	30
120	180
121	200
122	100
123	2292
124	180
133	701
134	420
135	9999
136	791
137	70
151	240
152	2973
153	3694
154	320
155	30
180	40
221	30
278	701
279	140
