Mass Spectrum: 4-Cyanobenzoic acid, 3-chloroprop-2-enyl ester
Formula: C11 H8 Cl N O2
Molecular weight: 221
Origin: Zaikin V.G., TIPS RAS, Moscow, Russia
m/z	RELATIVE INTENSITY
26	70
27	160
28	10
29	40
37	30
38	120
39	691
40	30
44	80
49	240
50	290
51	420
52	80
55	30
61	50
62	50
63	40
73	60
74	190
75	1862
76	511
77	450
89	30
91	390
93	120
99	30
100	30
101	70
102	2633
103	511
104	80
115	40
130	9999
131	971
132	60
140	110
141	50
142	150
147	130
148	70
158	50
159	40
168	30
186	1431
187	160
