Mass Spectrum: 3-Phenylpropionic acid, but-3-yn-2-yl ester
Formula: C13 H14 O2
Molecular weight: 202
Origin: Zaikin V.G., TIPS RAS, Moscow, Russia
m/z	RELATIVE INTENSITY
25	20
26	160
27	771
28	10
29	20
37	20
38	60
39	340
40	50
41	80
42	70
43	370
44	180
45	30
49	40
50	350
51	901
52	410
53	1351
54	70
55	140
56	10
62	30
63	180
64	40
65	561
66	40
67	30
69	40
70	10
73	10
74	60
75	60
76	90
77	1451
78	721
79	1632
80	100
89	140
90	60
91	4114
92	420
93	20
95	10
98	20
101	10
102	130
103	961
104	2352
105	3223
106	290
107	9999
108	711
109	40
115	70
116	20
117	20
121	10
123	10
127	30
128	120
129	80
130	10
131	130
132	80
133	771
134	100
135	10
141	130
142	1552
143	731
144	60
145	20
147	30
148	30
149	2613
150	611
151	50
152	10
155	10
156	50
157	50
159	10
160	10
187	10
202	240
203	30
