Mass Spectrum: Isonicotinic acid, 4-tetradecyl ester
Formula: C20 H33 N O2
Molecular weight: 319
Origin: Zaikin V.G., TIPS RAS, Moscow, Russia
m/z	RELATIVE INTENSITY
26	80
27	260
28	190
29	480
36	70
39	260
40	60
41	1491
42	380
43	1722
44	180
50	160
51	781
52	170
53	130
54	280
55	1842
56	921
57	1331
58	60
66	40
67	380
68	280
69	1331
70	881
71	621
72	40
77	100
78	2312
79	521
80	170
81	260
82	360
83	1061
84	571
85	320
93	160
95	130
96	220
97	891
98	320
99	50
105	60
106	9999
107	1361
108	100
109	50
110	110
111	430
112	190
113	30
120	170
121	240
122	80
123	300
124	6235
125	751
126	130
127	30
134	60
135	70
137	30
139	60
140	50
148	50
149	60
150	100
151	30
153	40
162	40
164	60
168	60
176	40
178	200
179	40
190	30
196	140
204	30
205	60
246	90
248	60
275	531
276	230
277	30
290	30
319	60
