Mass Spectrum: Cyclobutanecarboxylic acid, 3-chloroprop-2-enyl ester
Formula: C8 H11 Cl O2
Molecular weight: 174
Origin: Zaikin V.G., TIPS RAS, Moscow, Russia
m/z	RELATIVE INTENSITY
26	230
27	971
28	30
29	921
35	40
36	360
38	210
39	1411
40	160
41	140
43	160
44	310
49	420
50	60
51	270
52	90
53	531
54	200
55	9999
56	541
57	110
61	80
62	50
65	50
66	50
67	180
68	30
71	50
73	180
74	50
75	3033
76	120
77	991
78	40
79	130
81	160
82	140
83	7136
84	450
89	50
91	450
93	160
97	70
99	30
101	110
104	60
111	280
139	3423
140	290
174	50
