Mass Spectrum: l-Methionine, N-(2,6-difluorobenzoyl)-, methyl ester
Formula: C13 H15 F2 N O3 S
Molecular weight: 303
Origin: Zaikin V.G., TIPS RAS, Moscow, Russia
m/z	RELATIVE INTENSITY
27	70
28	20
33	30
35	50
39	30
41	120
44	90
45	110
46	50
47	130
48	40
49	30
54	60
55	40
56	110
57	80
59	100
60	20
61	1051
62	70
63	370
68	30
74	100
75	310
86	40
87	90
88	751
89	30
93	60
94	60
99	50
102	30
112	90
113	1141
114	430
115	30
138	60
139	40
140	130
141	9999
142	1411
143	90
156	30
158	180
162	390
163	30
169	711
170	80
182	40
195	30
196	581
197	3764
198	400
199	30
210	701
211	130
223	60
224	60
228	50
229	5044
230	581
231	60
242	681
243	80
244	280
245	30
256	160
271	40
303	410
304	70
