Mass Spectrum: Nicotinic acid, decyl ester
Formula: C16 H25 N O2
Molecular weight: 263
Origin: Zaikin V.G., TIPS RAS, Moscow, Russia
m/z	RELATIVE INTENSITY
26	210
27	741
28	20
29	1421
36	110
38	90
39	681
40	150
41	3393
42	1061
43	2873
44	280
49	30
50	420
51	1872
52	420
53	340
54	470
55	3103
56	1652
57	1211
58	40
65	50
66	50
67	470
68	410
69	1471
70	1161
71	250
73	40
76	60
77	320
78	4615
79	3964
80	641
81	160
82	180
83	691
84	340
85	90
93	460
94	50
95	50
96	50
97	280
98	100
105	501
106	6055
107	4805
108	340
109	40
110	30
111	80
112	70
120	180
121	240
122	50
123	551
124	9999
125	711
126	50
134	60
135	110
137	410
138	30
147	50
148	30
149	80
150	190
151	561
152	50
162	50
163	70
164	601
165	460
166	40
176	50
177	30
178	811
179	210
191	40
192	691
193	90
206	751
207	80
208	60
218	30
219	70
220	591
221	170
234	400
235	60
248	250
249	30
262	130
263	70
