Mass Spectrum: 4-Cyanobenzoic acid, dodecyl ester
Formula: C20 H29 N O2
Molecular weight: 315
Origin: Zaikin V.G., TIPS RAS, Moscow, Russia
m/z	RELATIVE INTENSITY
26	80
27	210
28	10
29	430
35	30
38	50
39	290
40	50
41	1632
42	501
43	1802
44	410
50	170
51	280
52	70
53	130
54	420
55	2623
56	2032
57	1712
58	60
65	40
66	40
67	631
68	951
69	2863
70	2432
71	761
73	50
74	60
75	511
76	410
77	130
78	30
79	110
81	370
82	1301
83	3173
84	1932
85	581
91	50
95	160
96	601
97	2843
98	1341
99	120
101	120
102	4344
103	1031
104	250
105	40
109	50
110	280
111	1712
112	821
113	80
117	40
119	40
123	30
124	110
125	701
126	400
127	40
129	40
130	9999
131	1401
132	110
133	70
138	50
139	210
140	1221
141	130
144	30
145	160
146	40
147	480
148	6716
149	1742
150	180
151	50
158	80
159	80
161	90
168	1522
169	180
174	30
175	50
176	80
185	80
188	220
189	420
190	60
191	60
193	30
199	30
202	901
203	440
204	40
215	30
216	250
217	130
230	110
231	50
243	30
244	150
245	50
258	150
259	50
272	160
273	120
286	150
287	300
288	40
300	50
314	80
315	370
316	90
