Mass Spectrum: o-Anisic acid, cyclobutyl ester
Formula: C12 H14 O3
Molecular weight: 206
Origin: Zaikin V.G., TIPS RAS, Moscow, Russia
m/z	RELATIVE INTENSITY
27	70
28	20
29	50
39	60
50	40
51	100
53	30
55	120
63	90
64	120
65	30
76	70
77	931
78	90
79	80
92	430
93	30
105	120
120	110
121	40
123	30
135	9999
136	771
137	60
152	30
178	30
206	190
