Mass Spectrum: Acetoxyacetic acid, but-3-yn-2-yl ester
Formula: C8 H10 O4
Molecular weight: 170
Origin: Zaikin V.G., TIPS RAS, Moscow, Russia
m/z	RELATIVE INTENSITY
26	120
27	801
28	70
29	190
30	80
31	80
38	90
39	110
41	100
42	511
43	9999
44	420
45	90
49	30
50	260
51	430
52	430
53	4354
54	220
55	70
60	30
67	40
69	200
70	60
73	1331
74	110
79	30
97	110
101	2112
102	80
112	170
