Mass Spectrum: trans-3-Trifluoromethylcinnamic acid, oct-3-en-2-yl ester
Formula: C18 H21 F3 O2
Molecular weight: 326
Origin: Zaikin V.G., TIPS RAS, Moscow, Russia
m/z	RELATIVE INTENSITY
27	90
28	30
29	90
39	150
40	40
41	460
42	50
43	280
44	30
50	40
51	40
53	180
54	150
55	1291
56	80
57	50
65	40
66	30
67	430
68	1011
69	1271
70	80
71	220
75	60
76	40
77	50
79	110
81	721
82	80
83	30
85	120
95	210
101	50
102	220
103	30
109	30
110	240
111	200
120	50
125	40
127	751
128	60
145	110
147	30
151	1131
152	140
159	60
167	150
169	100
170	150
171	1061
172	190
173	30
197	190
198	60
199	9999
200	1011
201	70
215	190
216	220
217	70
225	120
227	30
228	40
241	100
255	120
268	60
269	120
270	40
281	210
282	30
283	170
284	30
307	260
308	50
326	50
