Mass Spectrum: 4-Bromobenzoic acid, pent-2-en-4-ynyl ester
Formula: C12 H9 Br O2
Molecular weight: 264
Origin: Zaikin V.G., TIPS RAS, Moscow, Russia
m/z	RELATIVE INTENSITY
28	40
39	100
50	170
51	60
63	120
64	70
65	350
74	160
75	430
76	511
77	90
81	30
104	180
105	40
115	50
128	60
129	50
131	30
139	40
140	40
141	110
155	1542
156	150
157	1602
158	130
183	9999
184	861
185	9699
186	831
187	40
200	190
202	210
264	320
265	40
266	320
267	50
