Mass Spectrum: 2,2-Dimethylpropanoic acid, 2,6-dimethylnon-1-en-3-yn-5-yl ester
Formula: C16 H26 O2
Molecular weight: 250
Origin: Zaikin V.G., TIPS RAS, Moscow, Russia
m/z	RELATIVE INTENSITY
26	50
27	190
28	160
29	400
39	450
40	140
41	1532
42	210
43	420
44	330
50	90
51	190
52	140
53	260
54	30
55	511
56	200
57	9999
58	490
59	30
63	110
64	40
65	360
66	140
67	270
68	40
69	561
70	170
71	110
76	20
77	991
78	300
79	861
80	100
81	420
82	280
83	230
84	30
85	1722
86	100
91	1852
92	480
93	1221
94	180
95	1772
96	320
97	80
102	50
103	190
104	100
105	1191
106	1061
107	1331
108	190
109	1451
110	100
111	120
115	50
117	110
118	30
119	931
120	280
121	240
122	30
123	501
124	991
125	100
131	40
133	1131
134	140
135	40
136	60
137	300
138	50
147	50
148	1061
149	290
150	40
151	490
152	230
165	380
166	541
167	70
179	70
180	60
193	220
194	150
207	1632
208	250
221	30
235	330
236	50
250	110
