Mass Spectrum: 4-Nitrobenzoic acid, phenyl ester
Formula: C13 H9 N O4
Molecular weight: 243
Origin: Zaikin V.G., TIPS RAS, Moscow, Russia
m/z	RELATIVE INTENSITY
26	30
28	30
30	90
38	60
39	310
44	30
50	460
51	140
53	30
62	30
63	160
64	180
65	370
66	80
74	150
75	400
76	1331
77	200
92	791
93	110
94	200
103	40
104	2162
105	210
115	40
120	541
121	70
122	60
134	140
139	40
150	9999
151	691
152	80
167	40
243	1211
244	180
