Mass Spectrum: l-Proline, N-caproyl-, methyl ester
Formula: C12 H21 N O3
Molecular weight: 227
Origin: Zaikin V.G., TIPS RAS, Moscow, Russia
m/z	RELATIVE INTENSITY
27	130
28	50
29	130
39	90
40	30
41	390
42	170
43	581
44	50
53	30
55	240
56	40
59	50
68	210
69	180
70	9999
71	541
72	30
83	80
85	30
88	40
96	30
97	40
98	30
99	140
102	30
107	90
108	40
111	30
112	380
113	30
124	30
128	260
129	50
130	90
138	30
139	40
168	981
169	100
171	941
172	80
184	60
195	60
196	40
198	30
227	170
228	30
