Mass Spectrum: Isonicotinic acid, nonyl ester
Formula: C15 H23 N O2
Molecular weight: 249
Origin: Zaikin V.G., TIPS RAS, Moscow, Russia
m/z	RELATIVE INTENSITY
26	70
27	270
28	210
29	521
39	230
40	60
41	1281
42	611
43	1441
44	100
50	190
51	921
52	160
53	110
54	250
55	1802
56	1952
57	641
67	230
68	400
69	1542
70	1481
71	260
77	90
78	2442
79	851
80	190
81	80
82	250
83	971
84	791
85	120
93	180
95	30
96	100
97	741
98	641
99	40
105	60
106	5294
107	2172
108	180
120	110
121	110
122	50
123	1111
124	9999
125	871
126	230
134	50
135	20
137	721
138	50
148	30
149	40
150	350
151	250
162	100
163	50
164	1011
165	250
176	30
177	80
178	290
179	100
192	150
193	30
205	420
206	320
220	260
221	90
234	50
248	440
249	220
250	80
