Mass Spectrum: 4-Cyanobenzoic acid, tetradecyl ester
Formula: C22 H33 N O2
Molecular weight: 343
Origin: Zaikin V.G., TIPS RAS, Moscow, Russia
m/z	RELATIVE INTENSITY
27	130
28	130
29	340
37	20
38	30
39	200
40	50
41	1532
42	460
43	2052
44	70
50	120
51	180
52	40
53	140
54	430
55	2733
56	1672
57	2162
58	50
65	20
66	40
67	661
68	1011
69	3163
70	2112
71	1141
72	40
74	50
75	350
76	310
77	110
79	80
80	30
81	480
82	1441
83	3914
84	1802
85	741
91	60
93	40
95	270
96	631
97	3483
98	1221
99	150
101	90
102	3914
103	991
104	270
105	50
109	110
110	360
111	1922
112	911
113	90
117	40
119	40
123	70
124	200
125	1001
126	601
127	70
129	30
130	9999
131	1532
132	150
133	60
135	30
138	120
139	320
140	400
141	40
144	130
145	230
146	60
147	470
148	7697
149	1872
150	340
151	90
152	40
153	140
154	180
158	140
159	370
160	30
161	80
166	40
167	60
168	901
169	100
172	60
173	90
174	60
175	70
176	410
177	110
178	70
185	60
186	30
188	220
189	420
190	100
191	40
193	50
196	1061
197	120
202	861
203	420
204	90
205	50
215	50
216	240
217	160
218	50
230	180
231	70
243	30
244	210
245	80
256	60
257	40
258	170
259	90
270	30
271	50
272	210
273	220
274	50
286	360
287	661
288	120
298	30
299	30
300	641
301	1021
302	200
314	801
315	921
316	130
328	240
329	40
342	260
343	881
344	170
