Mass Spectrum: 3-Methyl-2-butenoic acid, 3-chloroprop-2-enyl ester
Formula: C8 H11 Cl O2
Molecular weight: 174
Origin: Zaikin V.G., TIPS RAS, Moscow, Russia
m/z	RELATIVE INTENSITY
26	170
27	831
29	1171
30	20
36	170
37	70
38	230
39	1952
40	210
41	210
42	40
43	250
44	110
49	360
50	70
51	280
52	60
53	541
54	210
55	2893
56	310
57	50
59	30
61	60
62	50
67	120
69	50
71	50
73	40
75	3463
76	110
77	1151
78	30
79	120
81	80
82	541
83	9999
84	561
85	60
88	30
89	40
90	30
91	100
93	631
94	50
95	100
97	40
99	160
111	110
121	30
123	30
125	30
129	200
131	60
139	2743
140	220
