Mass Spectrum: Cyclopropanecarboxylic acid, 3-chloroprop-2-enyl ester
Formula: C7 H9 Cl O2
Molecular weight: 160
Origin: Zaikin V.G., TIPS RAS, Moscow, Russia
m/z	RELATIVE INTENSITY
26	110
27	210
28	30
29	90
35	30
36	240
37	50
38	220
39	1642
40	260
41	2122
42	140
43	70
44	220
45	30
49	320
51	100
52	30
53	40
54	30
55	230
61	70
62	40
63	30
68	90
69	9999
70	501
71	30
73	50
74	40
75	2022
76	80
77	671
78	30
79	100
83	40
87	30
88	250
89	60
90	90
91	390
93	110
97	30
125	2563
126	200
