Mass Spectrum: 1-Dimethylisopropylsilyloxytridec-2-yne
Formula: C18 H36 O Si
Molecular weight: 296
Origin: Zaikin V.G., TIPS RAS, Moscow, Russia
m/z	RELATIVE INTENSITY
26	60
27	160
28	80
29	200
39	210
40	60
41	591
42	130
43	611
44	50
45	130
47	140
51	40
52	80
53	150
54	70
55	390
56	80
57	320
58	60
59	1822
60	160
61	290
65	80
66	50
67	420
68	70
69	250
70	50
71	70
73	1391
74	130
75	9999
76	751
77	531
78	70
79	561
80	100
81	430
82	70
83	270
84	40
85	350
86	30
87	140
89	1141
90	100
91	260
92	50
93	661
94	120
95	460
96	240
97	330
98	80
99	420
100	50
101	951
102	90
103	280
104	30
105	90
107	501
108	60
109	501
110	80
111	350
112	80
113	380
114	40
115	300
116	30
117	40
119	80
121	410
122	50
123	240
124	40
125	501
126	140
127	1351
128	170
129	210
133	40
135	200
136	20
137	220
138	40
139	631
140	90
141	571
142	70
143	140
149	110
151	160
152	30
153	210
154	40
155	360
156	40
157	100
161	30
163	310
164	40
165	50
167	120
169	110
171	420
172	60
173	50
177	831
178	140
179	60
181	90
183	40
185	1992
186	300
187	90
195	70
197	40
213	50
223	2242
224	440
225	160
235	260
236	50
237	40
239	100
253	3113
254	651
255	170
281	40
