Mass Spectrum: 2-Chlorobenzoic acid, 5-pentadecyl ester
Formula: C22 H35 Cl O2
Molecular weight: 366
Origin: Zaikin V.G., TIPS RAS, Moscow, Russia
m/z	RELATIVE INTENSITY
26	70
27	170
28	150
29	370
36	90
38	30
39	180
40	30
41	961
42	240
43	1111
44	90
50	110
51	80
53	70
54	220
55	1301
56	711
57	1141
58	80
65	40
66	30
67	300
68	230
69	1081
70	771
71	561
72	30
74	50
75	360
76	200
77	200
78	40
79	60
81	240
82	400
83	1121
84	591
85	410
91	30
95	140
96	320
97	1171
98	450
99	90
104	170
105	150
109	60
110	250
111	1972
112	511
113	480
114	40
121	50
123	30
124	170
125	480
126	260
127	40
133	30
138	90
139	9999
140	971
141	3283
142	240
152	70
153	150
154	250
156	360
157	3363
158	370
159	1111
160	80
167	70
168	80
169	30
181	50
182	220
183	30
210	1832
211	310
225	20
227	290
228	40
366	20
