Mass Spectrum: l-Cysteine, N,S-bis(2,6-difluorobenzoyl)-, methyl ester
Formula: C18 H13 F4 N O4 S
Molecular weight: 415
Origin: Zaikin V.G., TIPS RAS, Moscow, Russia
m/z	RELATIVE INTENSITY
28	10
44	30
45	30
63	210
93	30
94	30
112	40
113	721
114	140
135	60
140	50
141	9999
142	631
143	30
157	30
158	40
182	100
198	30
210	40
228	40
241	60
242	541
243	60
256	60
258	140
274	1912
275	250
276	100
298	480
299	70
356	280
357	50
