Mass Spectrum: Cyclopropanecarboxylic acid, 2-methyloct-5-yn-4-yl ester
Formula: C13 H20 O2
Molecular weight: 208
Origin: Zaikin V.G., TIPS RAS, Moscow, Russia
m/z	RELATIVE INTENSITY
26	60
27	290
28	100
29	250
38	50
39	731
40	170
41	2002
42	130
43	531
44	90
50	50
51	120
52	90
53	280
54	40
55	420
56	70
57	130
63	50
65	210
66	150
67	280
68	190
69	9999
70	420
71	40
77	521
78	130
79	1471
80	380
81	691
82	60
83	130
85	50
87	110
91	721
92	130
93	1632
94	270
95	140
96	40
97	80
98	30
105	200
106	30
107	2112
108	190
109	60
111	60
121	80
122	370
123	150
124	50
125	60
137	120
138	90
139	130
140	170
151	300
152	150
165	1522
166	270
167	30
179	150
180	60
193	170
208	40
