Mass Spectrum: 3-Methyl-2-butenoic acid, undec-2-enyl ester
Formula: C16 H28 O2
Molecular weight: 252
Origin: Zaikin V.G., TIPS RAS, Moscow, Russia
m/z	RELATIVE INTENSITY
27	120
28	100
29	250
39	230
40	40
41	470
42	80
43	330
44	50
53	150
54	490
55	1171
56	150
57	210
67	360
68	220
69	430
70	80
71	60
79	60
80	30
81	310
82	360
83	9999
84	531
85	80
95	310
96	160
97	240
98	30
100	400
101	300
109	130
110	70
111	70
123	40
124	110
125	40
139	80
140	30
152	80
153	180
154	80
167	40
181	100
195	70
209	80
223	50
252	300
253	50
