Mass Spectrum: 4-Bromobenzoic acid, 2-methylphenyl ester
Formula: C14 H11 Br O2
Molecular weight: 290
Origin: Zaikin V.G., TIPS RAS, Moscow, Russia
m/z	RELATIVE INTENSITY
26	50
27	90
28	20
38	50
39	200
44	60
50	611
51	300
52	170
53	130
63	90
64	30
65	140
73	30
74	250
75	881
76	1201
77	861
78	360
79	240
80	110
81	30
82	70
89	60
90	60
91	100
104	360
105	90
107	330
108	220
129	30
131	30
154	30
155	1822
156	180
157	1792
158	140
183	9999
184	691
185	9799
186	671
187	30
290	581
291	80
292	571
293	70
