Mass Spectrum: trans-3-(Trifluoromethyl)cinnamic acid, hexyl ester
Formula: C16 H19 F3 O2
Molecular weight: 300
Origin: Zaikin V.G., TIPS RAS, Moscow, Russia
m/z	RELATIVE INTENSITY
26	70
27	310
29	410
39	180
40	30
41	871
42	711
43	1081
53	40
54	80
55	1141
56	2312
57	120
67	70
69	871
70	30
82	80
83	370
84	1311
85	70
95	50
100	30
101	60
102	501
103	60
120	80
125	40
126	40
131	100
141	100
145	250
146	40
147	320
151	2703
152	370
153	30
168	40
169	160
170	300
171	2462
172	751
173	80
175	60
180	50
186	30
188	110
197	951
198	350
199	9999
200	1121
201	90
215	2002
216	6275
217	5224
218	661
219	50
228	30
240	30
243	30
257	440
258	70
271	30
281	961
282	160
283	30
300	891
301	170
