Mass Spectrum: 2-Bromobenzoic acid, phenyl ester
Formula: C13 H9 Br O2
Molecular weight: 276
Origin: Zaikin V.G., TIPS RAS, Moscow, Russia
m/z	RELATIVE INTENSITY
27	60
28	10
38	90
39	490
40	40
44	40
49	30
50	631
51	270
62	40
63	160
64	90
65	501
66	100
74	250
75	1031
76	1281
77	330
79	30
80	80
81	30
82	80
93	90
94	290
104	280
105	40
115	110
129	40
131	40
139	120
140	30
141	50
152	40
154	40
155	1852
156	180
157	1822
158	140
168	70
183	9999
184	731
185	9919
186	691
187	40
196	50
276	270
277	40
278	270
279	30
