Mass Spectrum: Cyclopropanecarboxyllic acid, tridec-2-ynyl ester
Formula: C17 H28 O2
Molecular weight: 264
Origin: Zaikin V.G., TIPS RAS, Moscow, Russia
m/z	RELATIVE INTENSITY
26	60
27	190
28	120
29	300
39	380
40	100
41	1351
42	160
43	581
44	50
45	30
51	60
52	140
53	170
54	120
55	501
56	120
57	150
65	80
66	100
67	310
68	100
69	9999
70	360
71	50
77	140
78	50
79	390
80	100
81	240
82	60
83	60
84	30
87	100
91	140
93	200
94	90
95	190
96	30
97	60
105	20
107	60
108	40
109	50
110	40
111	40
121	40
123	30
124	30
137	100
138	50
