Mass Spectrum: (Phenylthio)acetic acid, tridecyl ester
Formula: C21 H34 O2 S
Molecular weight: 350
Origin: Zaikin V.G., TIPS RAS, Moscow, Russia
m/z	RELATIVE INTENSITY
26	100
27	200
28	170
29	440
39	260
40	40
41	1241
42	290
43	2082
44	170
45	861
46	40
47	40
50	60
51	160
52	30
53	70
54	130
55	1592
56	480
57	1872
58	80
63	30
65	290
66	120
67	220
68	180
69	1101
70	360
71	871
72	40
77	320
78	180
79	170
81	120
82	170
83	591
84	230
85	420
91	110
94	30
95	80
96	70
97	380
98	90
99	30
105	30
108	80
109	851
110	881
111	290
112	80
121	210
122	100
123	7637
124	1612
125	450
126	130
150	50
151	521
152	90
153	30
168	9859
169	1151
170	521
171	50
227	370
228	50
350	9999
351	2242
352	731
353	120
