Mass Spectrum: 3-Chloropropionic acid, pent-2-en-4-ynyl ester
Formula: C8 H9 Cl O2
Molecular weight: 172
Origin: Zaikin V.G., TIPS RAS, Moscow, Russia
m/z	RELATIVE INTENSITY
26	180
27	1211
28	20
37	110
38	250
39	1502
44	110
49	140
50	420
51	300
52	180
53	190
54	470
55	1091
56	70
61	160
62	400
63	8658
64	1161
65	3954
73	200
81	3213
82	6025
83	280
85	120
91	9999
92	290
93	2963
99	70
109	731
143	30
171	50
172	160
173	70
174	40
