Mass Spectrum: 5-Bromovaleric acid, nonyl ester
Formula: C14 H27 Br O2
Molecular weight: 306
Origin: Zaikin V.G., TIPS RAS, Moscow, Russia
m/z	RELATIVE INTENSITY
25	30
26	280
27	1151
28	30
29	1902
30	80
31	70
36	40
38	50
39	871
40	240
41	3914
42	1902
43	5364
44	360
45	140
50	40
51	80
52	40
53	430
54	781
55	9999
56	6295
57	3574
58	170
59	460
60	50
65	30
66	40
67	621
68	1221
69	4084
70	5194
71	2863
72	150
73	881
74	70
77	40
78	30
79	170
80	260
81	360
82	1612
83	4805
84	4154
85	1782
86	110
87	90
93	40
95	150
96	571
97	4004
98	3343
99	350
100	260
101	7476
102	440
103	50
105	40
106	110
107	220
108	50
109	210
111	190
115	30
123	30
124	60
125	40
126	4515
127	511
129	30
135	2402
136	120
137	2342
138	100
139	70
141	90
143	110
157	290
162	90
163	3443
164	290
165	3313
166	180
171	380
172	30
180	651
181	5434
182	911
183	5224
184	300
191	20
193	30
197	40
207	80
209	80
220	30
221	80
223	70
227	280
228	30
236	100
238	90
