Mass Spectrum: 1-Cyclohexyldimethylsilyloxytridec-2-yne
Formula: C21 H40 O Si
Molecular weight: 336
Origin: Zaikin V.G., TIPS RAS, Moscow, Russia
m/z	RELATIVE INTENSITY
26	100
27	190
28	100
29	250
39	240
40	60
41	681
42	130
43	631
44	30
45	110
47	100
50	30
51	50
52	80
53	180
54	190
55	561
56	120
57	360
58	40
59	2262
60	170
61	480
62	20
65	70
66	50
67	581
68	70
69	230
70	40
71	80
73	330
74	50
75	9999
76	711
77	501
78	80
79	531
80	120
81	801
82	160
83	270
84	50
85	280
87	100
89	1101
90	100
91	210
92	40
93	501
94	90
95	410
96	180
97	320
98	70
99	330
100	30
101	631
102	50
103	60
105	70
107	360
108	50
109	390
110	50
111	290
112	70
113	420
114	50
115	280
119	60
121	280
122	30
123	180
125	340
126	110
127	911
128	110
129	150
133	30
135	140
137	160
138	30
139	440
140	70
141	460
142	50
143	160
149	90
151	130
152	20
153	150
155	240
156	30
157	60
163	190
165	50
167	90
169	80
171	300
172	30
173	40
177	611
178	100
179	50
181	70
185	1291
186	190
187	50
195	90
197	30
223	861
224	160
225	50
235	130
239	240
240	40
253	1291
254	260
255	60
