Mass Spectrum: 3-Trifluoromethylbenzoic acid, 2-methylphenyl ester
Formula: C15 H11 F3 O2
Molecular weight: 280
Origin: Zaikin V.G., TIPS RAS, Moscow, Russia
m/z	RELATIVE INTENSITY
28	10
39	50
44	30
50	70
51	80
52	40
53	30
63	30
65	40
74	30
75	110
76	40
77	220
78	100
79	50
91	30
95	220
107	100
108	50
125	190
126	170
127	20
144	70
145	2953
146	260
173	9999
174	821
175	50
261	360
262	60
280	1201
