Mass Spectrum: (Phenylthio)acetic acid, hexyl ester
Formula: C14 H20 O2 S
Molecular weight: 252
Origin: Zaikin V.G., TIPS RAS, Moscow, Russia
m/z	RELATIVE INTENSITY
26	70
27	290
28	160
29	420
39	340
40	40
41	921
42	410
43	3253
44	240
45	1582
46	80
47	70
50	100
51	350
52	40
53	50
54	30
55	541
56	270
57	541
58	30
63	50
65	470
66	130
67	40
69	310
71	40
74	30
76	40
77	651
78	300
79	290
82	40
83	170
84	100
85	110
91	200
94	40
97	40
105	40
108	140
109	1131
110	931
111	120
112	40
121	320
122	120
123	9999
124	1572
125	541
126	100
129	250
150	30
151	240
152	30
168	5755
169	651
170	310
252	6516
253	1081
254	390
255	50
