Mass Spectrum: l-Tyrosine, N,O-bis(caproyl)-, methyl ester
Formula: C22 H33 N O5
Molecular weight: 391
Origin: Zaikin V.G., TIPS RAS, Moscow, Russia
m/z	RELATIVE INTENSITY
26	30
27	90
28	50
29	130
39	60
41	210
42	70
43	1031
44	90
55	250
59	90
69	70
70	30
71	511
72	40
77	50
78	40
88	270
89	60
90	30
91	60
98	40
99	781
100	50
106	50
107	2202
108	280
116	1061
117	80
118	40
119	60
120	70
131	30
133	30
134	70
135	270
136	270
137	60
147	280
148	30
155	40
158	30
162	30
177	100
178	9999
179	951
180	110
187	60
194	40
195	40
205	30
206	40
214	330
215	40
232	40
233	30
234	370
235	60
248	60
276	861
277	150
278	30
292	30
293	70
294	50
332	40
360	30
391	30
392	30
