Mass Spectrum: 5-Diisopropylsilyloxy-2,6-dimethylnon-1-en-3-yne
Formula: C17 H32 O Si
Molecular weight: 280
Origin: Zaikin V.G., TIPS RAS, Moscow, Russia
m/z	RELATIVE INTENSITY
26	100
27	230
28	60
29	150
38	50
39	350
40	100
41	721
42	190
43	551
44	110
45	511
46	30
47	140
50	40
51	100
52	80
53	180
55	390
56	40
57	80
58	30
59	1301
60	120
61	1982
62	130
63	130
64	20
65	170
66	60
67	120
69	160
70	30
71	130
72	40
73	581
74	60
75	741
76	70
77	691
78	190
79	430
80	60
81	90
83	250
84	40
85	170
87	370
88	40
89	310
90	30
91	711
92	120
93	300
94	50
95	370
96	80
97	250
98	90
99	230
101	300
102	30
103	320
104	60
105	350
106	140
107	360
108	70
109	2052
110	260
111	601
112	80
113	200
115	200
116	30
117	80
119	180
120	40
121	180
122	30
123	741
124	190
125	2342
126	320
127	250
128	30
129	180
130	20
131	100
133	130
135	190
136	30
137	1522
138	230
139	941
140	120
141	120
143	190
147	250
148	60
149	1131
150	150
151	1512
152	240
153	731
154	100
155	80
161	40
163	90
165	440
166	130
167	2352
168	360
169	190
171	300
172	40
175	50
177	160
178	30
179	2943
180	501
181	370
182	40
191	50
193	270
194	60
195	661
196	160
197	40
207	250
208	60
209	9999
210	1802
211	511
212	50
219	70
235	320
236	60
237	3273
238	731
239	190
265	30
280	190
281	40
