Mass Spectrum: Hexanoic acid, tridec-2-ynyl ester
Formula: C19 H34 O2
Molecular weight: 294
Origin: Zaikin V.G., TIPS RAS, Moscow, Russia
m/z	RELATIVE INTENSITY
26	140
27	581
28	350
29	891
38	40
39	501
40	140
41	1732
42	390
43	4484
44	220
45	40
50	50
51	130
52	340
53	460
54	330
55	1512
56	330
57	440
58	50
59	40
60	120
65	220
66	270
67	961
68	250
69	851
70	440
71	4665
72	280
73	140
77	390
78	140
79	1171
80	370
81	911
82	300
83	380
84	200
85	90
86	30
87	40
89	30
91	410
92	80
93	711
94	360
95	861
96	250
97	671
98	240
99	9999
100	691
101	60
105	90
106	30
107	290
108	170
109	250
110	120
111	1522
112	210
113	90
114	130
115	80
117	230
119	30
121	270
122	80
123	80
124	110
125	290
126	60
127	80
128	70
135	170
136	90
137	50
138	120
139	130
140	30
141	40
149	90
150	30
151	90
152	210
153	100
154	60
167	531
168	210
169	40
177	70
178	70
179	30
181	120
195	190
196	180
197	50
209	30
223	30
237	30
251	70
265	30
