Mass Spectrum: 3-Fluorobenzoic acid, 2-methylphenyl ester
Formula: C14 H11 F O2
Molecular weight: 230
Origin: Zaikin V.G., TIPS RAS, Moscow, Russia
m/z	RELATIVE INTENSITY
27	30
28	30
39	80
50	80
51	120
52	60
53	50
63	40
65	50
69	50
74	50
75	370
76	50
77	280
78	130
79	80
91	30
94	100
95	2282
96	180
107	140
108	100
123	9999
124	621
125	30
230	1201
231	180
