Mass Spectrum: 4-Nitrobenzoic acid, but-3-yn-2-yl ester
Formula: C11 H9 N O4
Molecular weight: 219
Origin: Zaikin V.G., TIPS RAS, Moscow, Russia
m/z	RELATIVE INTENSITY
26	40
27	260
28	20
30	60
38	40
39	100
41	90
43	50
44	100
50	581
51	310
52	711
53	1411
54	60
63	90
64	110
65	390
66	30
69	420
74	200
75	440
76	941
77	130
78	30
91	30
92	480
93	90
103	120
104	1291
105	140
109	20
115	30
120	571
121	370
122	90
123	30
127	50
128	70
134	160
137	50
144	80
145	140
150	9999
151	871
152	90
167	100
168	120
173	30
174	240
176	30
189	30
190	40
191	40
219	1311
220	170
