Mass Spectrum: 3-Fluorobenzoic acid, 2-isopropoxyphenyl ester
Formula: C16 H15 F O3
Molecular weight: 274
Origin: Zaikin V.G., TIPS RAS, Moscow, Russia
m/z	RELATIVE INTENSITY
27	60
28	10
39	60
41	120
42	30
43	110
50	50
51	50
52	110
53	40
63	30
64	40
69	30
75	200
76	30
80	80
81	180
94	80
95	1632
96	150
109	160
110	160
121	50
122	30
123	9999
124	701
125	40
232	661
233	90
274	661
275	110
