Mass Spectrum: 3-Phenylpropionic acid, 2-isopropoxyphenyl ester
Formula: C18 H20 O3
Molecular weight: 284
Origin: Zaikin V.G., TIPS RAS, Moscow, Russia
m/z	RELATIVE INTENSITY
26	70
27	210
28	10
38	30
39	190
40	30
41	240
42	60
43	290
44	20
50	80
51	210
52	200
53	100
55	60
63	100
64	100
65	270
76	30
77	470
78	250
79	300
80	120
81	330
82	40
89	50
90	30
91	3093
92	280
93	50
102	50
103	390
104	541
105	2693
106	240
109	390
110	9999
111	611
112	50
121	80
131	170
132	160
133	430
134	40
135	40
150	50
152	4785
153	460
154	30
284	260
285	40
