Mass Spectrum: 3-Bromobenzoic acid, but-3-yn-2-yl ester
Formula: C11 H9 Br O2
Molecular weight: 252
Origin: Zaikin V.G., TIPS RAS, Moscow, Russia
m/z	RELATIVE INTENSITY
26	100
27	551
28	10
37	30
38	100
39	90
41	50
43	60
44	90
49	60
50	941
51	490
52	671
53	2042
54	90
63	30
65	90
69	300
73	40
74	340
75	1171
76	1381
77	330
78	60
79	40
80	100
81	40
82	100
103	30
104	180
105	80
117	40
127	140
128	300
129	170
131	40
145	270
155	1672
156	180
157	1642
158	150
159	40
173	330
174	40
183	9999
184	731
185	9639
186	691
187	30
193	30
195	30
200	460
201	150
202	470
203	140
211	30
224	40
225	20
226	40
252	1271
253	140
254	1231
255	140
