Mass Spectrum: l-Phenylalanine, N-capryloyl-, methyl ester
Formula: C18 H27 N O3
Molecular weight: 305
Origin: Zaikin V.G., TIPS RAS, Moscow, Russia
m/z	RELATIVE INTENSITY
26	30
27	120
28	90
29	220
33	40
39	100
41	501
42	130
43	581
44	100
51	40
53	30
55	420
56	70
57	1872
58	80
59	220
60	60
65	120
67	80
69	80
70	40
71	30
72	40
73	30
77	110
78	50
81	30
83	70
84	60
85	30
88	1481
89	100
90	50
91	841
92	180
93	40
98	40
101	70
102	90
103	240
104	130
105	30
109	110
117	150
118	170
119	250
120	2503
121	320
127	1692
128	180
130	150
131	1191
132	140
134	30
144	110
146	70
147	30
161	681
162	9999
163	1001
164	90
174	30
178	120
180	140
186	430
187	50
221	110
234	30
246	200
247	30
274	50
305	110
306	30
