Mass Spectrum: p-Anisic acid, 2,6-dimethylnon-1-en-3-yn-5-yl ester
Formula: C19 H24 O3
Molecular weight: 300
Origin: Zaikin V.G., TIPS RAS, Moscow, Russia
m/z	RELATIVE INTENSITY
27	50
29	50
39	80
41	190
43	90
51	30
53	50
55	80
63	30
64	50
65	80
67	40
69	70
76	20
77	501
78	80
79	150
82	30
91	320
92	280
93	140
95	30
103	30
104	50
105	220
106	200
107	270
108	40
117	30
119	270
120	70
121	50
123	160
133	340
134	40
135	9999
136	931
137	80
148	350
149	40
164	30
165	50
185	40
199	20
230	80
257	150
258	30
