Mass Spectrum: 1-Dimethyloctylsilyloxyundec-2-ene
Formula: C21 H44 O Si
Molecular weight: 340
Origin: Zaikin V.G., TIPS RAS, Moscow, Russia
m/z	RELATIVE INTENSITY
26	120
27	250
28	130
29	330
39	270
40	60
41	851
42	250
43	721
44	50
45	110
47	100
53	100
54	290
55	711
56	230
57	250
58	60
59	2232
60	170
61	1281
62	70
63	40
65	30
66	30
67	460
68	160
69	410
70	140
71	90
72	40
73	340
74	110
75	9999
76	691
77	360
78	30
79	90
80	40
81	390
82	200
83	210
84	50
85	240
86	30
87	330
88	60
89	611
90	40
91	40
93	30
95	460
96	140
97	160
98	30
99	611
100	70
101	1532
102	150
103	170
109	210
110	60
111	130
113	551
114	90
115	3263
116	320
117	140
123	30
124	40
125	40
127	250
128	60
129	1381
130	160
131	60
141	150
143	591
144	70
145	30
151	721
152	150
153	30
155	230
156	30
157	110
169	100
171	450
172	60
173	400
174	50
183	30
185	90
189	30
197	180
199	330
200	50
213	801
214	130
215	30
227	5084
228	901
229	300
230	30
241	70
283	30
325	200
326	40
340	60
