Mass Spectrum: 2-Trifluoromethylbenzoic acid, 2-chlorophenyl ester
Formula: C14 H8 Cl F3 O2
Molecular weight: 300
Origin: Zaikin V.G., TIPS RAS, Moscow, Russia
m/z	RELATIVE INTENSITY
28	10
39	40
50	70
51	30
63	100
64	60
69	20
73	90
74	40
75	180
76	40
95	230
99	170
101	50
119	30
125	170
126	100
127	40
128	110
130	30
144	50
145	2312
146	200
151	30
173	9999
174	731
175	40
300	120
302	40
