Mass Spectrum: 4-Fluorobenzoic acid, but-3-yn-2-yl ester
Formula: C11 H9 F O2
Molecular weight: 192
Origin: Zaikin V.G., TIPS RAS, Moscow, Russia
m/z	RELATIVE INTENSITY
26	40
27	220
28	30
39	40
40	50
44	110
50	220
51	240
52	320
53	791
54	30
68	50
69	180
70	30
74	90
75	641
76	60
94	130
95	1842
96	210
97	80
123	9999
124	761
125	50
133	150
140	230
141	150
146	60
147	200
149	40
164	70
192	721
193	80
