Mass Spectrum: 3-Fluorobenzoic acid, 2-chlorophenyl ester
Formula: C13 H8 Cl F O2
Molecular weight: 250
Origin: Zaikin V.G., TIPS RAS, Moscow, Russia
m/z	RELATIVE INTENSITY
28	10
38	30
39	60
50	90
51	50
62	40
63	170
64	110
65	30
68	40
69	80
73	150
74	80
75	571
76	60
92	40
94	130
95	2763
96	200
99	180
101	60
123	9999
124	641
125	30
127	30
128	180
130	60
157	40
186	30
215	100
250	390
251	50
252	130
