Mass Spectrum: (Phenylthio)acetic acid, 2,6-dimethylnon-1-en-3-yn-5-yl ester
Formula: C19 H24 O2 S
Molecular weight: 316
Origin: Zaikin V.G., TIPS RAS, Moscow, Russia
m/z	RELATIVE INTENSITY
26	80
27	240
28	110
29	280
38	40
39	430
40	130
41	881
42	90
43	831
44	250
45	1301
46	60
47	60
50	140
51	400
52	120
53	270
54	20
55	711
56	40
57	240
62	30
63	120
64	40
65	551
66	250
67	250
69	1091
70	70
71	80
74	40
75	30
76	50
77	1481
78	410
79	1251
80	130
81	370
82	90
83	110
84	50
89	50
91	1451
92	260
93	1942
94	220
95	380
96	40
97	40
99	70
103	100
104	50
105	721
106	310
107	2312
108	270
109	821
110	571
111	130
112	30
115	60
117	80
119	400
120	150
121	741
122	250
123	9999
124	1181
125	521
126	50
131	40
133	230
134	90
135	60
136	70
137	140
147	60
148	591
149	480
150	100
151	120
153	60
163	40
165	90
166	380
167	50
168	240
169	100
187	70
193	30
195	180
196	30
201	70
202	90
207	1381
208	200
229	100
230	130
231	30
243	30
257	230
258	40
273	50
316	941
317	210
318	60
