Mass Spectrum: Glycine, N-(2,6-difluorobenzoyl)-, methyl ester
Formula: C10 H9 F2 N O3
Molecular weight: 229
Origin: Zaikin V.G., TIPS RAS, Moscow, Russia
m/z	RELATIVE INTENSITY
28	20
44	70
56	40
57	40
59	30
62	50
63	420
68	40
74	30
75	30
88	50
93	90
94	70
112	100
113	1141
114	140
140	80
141	9999
142	771
143	40
153	30
170	2843
171	270
184	60
197	561
198	150
229	571
230	70
