Mass Spectrum: 1-(Dimethyldodecylsilyloxy)tetradecane
Formula: C28 H60 O Si
Molecular weight: 440
Origin: Zaikin V.G., TIPS RAS, Moscow, Russia
m/z	RELATIVE INTENSITY
26	40
27	90
28	40
29	110
39	80
41	270
42	100
43	410
54	40
55	340
56	140
57	420
59	280
61	230
67	70
68	40
69	380
70	90
71	180
73	40
75	1231
76	90
77	60
81	50
82	40
83	440
84	50
85	90
87	60
89	490
90	30
95	40
97	380
98	40
99	80
101	170
111	170
113	50
115	140
125	50
129	70
143	40
157	30
171	40
185	50
199	60
213	40
227	30
229	30
255	80
257	70
271	9999
272	1992
273	521
274	60
299	40
425	1632
426	551
427	140
