Mass Spectrum: 3-Methyl-2-butenoic acid, pent-2-en-4-ynyl ester
Formula: C10 H12 O2
Molecular weight: 164
Origin: Zaikin V.G., TIPS RAS, Moscow, Russia
m/z	RELATIVE INTENSITY
26	60
27	320
28	10
29	470
37	30
38	110
39	1011
40	140
41	180
42	80
43	80
44	130
45	40
50	120
51	160
52	100
53	280
54	100
55	1742
56	120
59	30
60	541
61	30
62	60
63	220
64	90
65	1371
66	90
67	50
68	50
69	50
73	160
77	60
79	90
81	40
82	180
83	9999
84	541
85	50
87	40
91	100
93	40
96	30
103	40
105	50
117	40
119	80
121	40
136	40
149	100
164	90
