Mass Spectrum: m-Toluic acid, 5-pentadecyl ester
Formula: C23 H38 O2
Molecular weight: 346
Origin: Zaikin V.G., TIPS RAS, Moscow, Russia
m/z	RELATIVE INTENSITY
26	100
27	250
28	190
29	490
38	30
39	310
40	50
41	1241
42	280
43	1291
44	170
50	40
51	70
52	30
53	90
54	230
55	1441
56	731
57	1111
58	80
63	80
64	30
65	571
66	50
67	330
68	230
69	1081
70	751
71	501
77	100
79	80
81	240
82	380
83	1041
84	531
85	310
89	160
90	190
91	2723
92	320
93	310
94	30
95	130
96	270
97	1011
98	360
99	70
105	60
109	50
110	170
111	581
112	250
113	40
118	80
119	9999
120	911
121	60
123	30
124	130
125	330
126	170
134	110
135	90
136	621
137	3293
138	330
139	140
140	110
152	40
153	100
154	60
167	40
168	40
181	30
182	120
210	1011
211	140
227	110
