Mass Spectrum: l-Alanine, N-(2-trifluoromethylbenzoyl)-, methyl ester
Formula: C12 H12 F3 N O3
Molecular weight: 275
Origin: Zaikin V.G., TIPS RAS, Moscow, Russia
m/z	RELATIVE INTENSITY
26	10
27	20
29	10
31	10
39	10
41	10
42	120
43	40
44	60
50	40
51	20
55	20
57	20
59	40
69	20
70	20
74	20
75	110
76	40
77	20
87	20
94	10
95	190
96	20
99	20
100	10
102	60
105	10
107	10
119	20
125	150
126	140
127	30
130	40
143	20
144	60
145	1792
146	200
147	10
150	20
152	30
154	50
171	10
172	30
173	9999
174	721
175	40
182	10
196	90
197	10
202	110
203	10
214	20
216	3694
217	380
218	20
229	10
244	30
261	20
275	30
