Mass Spectrum: 3-Trifluoromethylbenzoic acid, undec-2-enyl ester
Formula: C19 H25 F3 O2
Molecular weight: 342
Origin: Zaikin V.G., TIPS RAS, Moscow, Russia
m/z	RELATIVE INTENSITY
26	100
27	430
28	290
29	721
38	30
39	541
40	100
41	1872
42	380
43	1381
44	150
50	120
51	80
52	40
53	400
54	2452
55	2252
56	631
57	841
58	30
65	90
66	160
67	1592
68	1351
69	1061
70	410
71	190
74	40
75	140
76	60
77	90
79	220
80	150
81	1391
82	1451
83	601
84	130
85	50
93	40
94	50
95	1121
96	1051
97	350
98	80
109	440
110	521
111	80
123	140
124	661
125	200
126	140
127	90
144	40
145	1932
146	180
151	30
152	430
153	40
154	30
155	80
169	150
171	120
172	50
173	9999
174	731
175	40
188	30
190	120
191	70
201	50
230	30
243	30
244	50
