Mass Spectrum: 4-Fluorobenzoic acid, phenyl ester
Formula: C13 H9 F O2
Molecular weight: 216
Origin: Zaikin V.G., TIPS RAS, Moscow, Russia
m/z	RELATIVE INTENSITY
28	10
38	30
39	190
50	100
51	120
63	70
64	20
65	200
66	50
68	30
69	80
74	70
75	521
76	50
77	60
93	60
94	280
95	2533
96	190
122	30
123	9999
124	681
125	40
133	30
216	571
217	80
