Mass Spectrum: 3-Methyl-2-butenoic acid, tridec-2-ynyl ester
Formula: C18 H30 O2
Molecular weight: 278
Origin: Zaikin V.G., TIPS RAS, Moscow, Russia
m/z	RELATIVE INTENSITY
27	90
28	70
29	190
39	140
40	30
41	300
42	50
43	250
44	20
51	30
52	70
53	140
54	70
55	571
56	70
57	80
65	50
66	50
67	210
68	30
69	110
70	30
77	90
79	230
80	50
81	180
82	170
83	9999
84	450
85	40
91	100
93	130
94	50
95	160
100	60
101	150
107	80
109	40
121	30
151	90
152	30
