Mass Spectrum: Phenylacetic acid, 2-bromo-4-fluorophenyl ester
Formula: C14 H10 Br F O2
Molecular weight: 308
Origin: Zaikin V.G., TIPS RAS, Moscow, Russia
m/z	RELATIVE INTENSITY
26	30
28	30
38	40
39	260
41	70
44	50
50	100
51	150
52	40
56	40
57	80
61	40
62	100
63	350
64	100
65	871
66	50
74	30
75	30
77	30
80	30
81	150
82	280
83	100
89	521
90	661
91	9999
92	731
93	30
94	60
110	70
111	30
118	5454
119	721
120	50
136	140
161	180
163	180
173	50
189	70
190	220
191	80
192	210
199	40
