Mass Spectrum: Trichloroacetic acid, 3-chloroprop-2-enyl ester
Formula: C5 H4 Cl4 O2
Molecular weight: 236
Origin: Zaikin V.G., TIPS RAS, Moscow, Russia
m/z	RELATIVE INTENSITY
26	190
27	400
28	70
29	170
35	160
36	771
37	140
38	430
39	1912
40	130
41	160
44	320
47	400
48	80
49	1231
50	40
51	360
52	30
53	30
55	30
60	40
61	220
62	140
63	440
64	40
65	120
67	40
68	60
69	110
73	120
74	160
75	9999
76	390
77	3333
78	110
79	60
82	811
83	350
84	521
85	270
86	80
87	40
89	100
91	1041
92	30
93	310
109	240
110	681
111	170
112	420
113	30
114	60
117	1331
119	1301
121	490
123	90
137	40
139	30
143	40
145	70
146	140
147	40
148	140
150	40
173	40
175	50
177	30
201	240
203	250
205	70
236	120
238	160
240	70
