Mass Spectrum: l-Alanine, N-(2,3,4-trifluorobenzoyl)-, methyl ester
Formula: C11 H10 F3 N O3
Molecular weight: 261
Origin: Zaikin V.G., TIPS RAS, Moscow, Russia
m/z	RELATIVE INTENSITY
28	10
42	140
43	40
44	50
59	40
62	40
80	20
81	501
82	30
102	30
112	70
130	70
131	1231
132	120
140	30
158	40
159	9999
160	691
161	40
182	40
188	150
201	20
202	4665
203	450
204	30
230	40
261	30
