Mass Spectrum: 1-Tributylsilyloxyundec-2-ene
Formula: C23 H48 O Si
Molecular weight: 368
Origin: Zaikin V.G., TIPS RAS, Moscow, Russia
m/z	RELATIVE INTENSITY
25	20
26	180
27	350
28	140
29	370
37	10
38	30
39	310
40	70
41	921
42	150
43	561
44	40
45	310
46	10
47	531
48	20
49	20
50	20
51	30
52	10
53	100
54	240
55	701
56	210
57	250
58	30
59	871
60	110
61	2142
62	130
63	80
64	10
65	30
66	20
67	280
68	80
69	220
70	50
71	150
72	30
73	400
74	150
75	731
76	50
77	50
78	30
79	60
80	10
81	170
82	40
83	160
84	30
85	531
86	70
87	621
88	100
89	40
91	10
92	10
93	20
95	180
96	20
97	120
98	30
99	561
100	70
101	1081
102	120
103	3564
104	350
105	140
107	10
109	70
110	10
111	80
112	20
113	300
114	50
115	290
116	30
117	170
118	10
123	20
125	50
126	10
127	260
128	50
129	190
130	20
131	20
137	10
139	40
141	370
142	50
143	831
144	100
145	30
151	50
152	20
153	30
155	350
156	60
157	611
158	80
159	981
160	130
161	40
167	10
169	120
170	20
171	190
172	20
173	70
181	10
183	70
184	10
185	70
197	170
198	20
199	1081
200	190
201	50
211	50
212	10
213	50
225	100
226	20
227	40
253	90
254	10
255	9999
256	2162
257	571
258	70
283	10
311	3153
312	871
313	220
314	30
368	30
