Mass Spectrum: 2-Trifluoromethylbenzoic acid, pent-2-en-4-ynyl ester
Formula: C13 H9 F3 O2
Molecular weight: 254
Origin: Zaikin V.G., TIPS RAS, Moscow, Russia
m/z	RELATIVE INTENSITY
27	30
28	20
38	50
39	370
44	30
50	120
51	90
52	40
53	30
62	40
63	190
64	120
65	671
66	40
69	30
74	30
75	140
76	40
81	30
95	230
96	30
119	20
125	150
126	240
127	40
144	30
145	1892
146	180
151	90
154	531
155	40
173	9999
174	701
175	40
190	30
254	80
