Mass Spectrum: p-Anisic acid, 3-chloroprop-2-enyl ester
Formula: C11 H11 Cl O3
Molecular weight: 226
Origin: Zaikin V.G., TIPS RAS, Moscow, Russia
m/z	RELATIVE INTENSITY
27	30
38	60
39	220
49	80
50	60
51	50
62	30
63	160
64	280
65	30
75	581
76	90
77	681
78	70
91	50
92	571
93	40
104	40
107	360
108	120
115	40
121	30
135	9999
136	791
137	60
145	80
147	120
163	100
181	60
191	1732
192	220
197	110
199	30
226	380
227	40
228	120
