Mass Spectrum: l-Alanine, N-(3-trifluoromethylbenzoyl)-, methyl ester
Formula: C12 H12 F3 N O3
Molecular weight: 275
Origin: Zaikin V.G., TIPS RAS, Moscow, Russia
m/z	RELATIVE INTENSITY
26	10
27	20
29	10
31	10
36	10
39	10
41	10
42	150
43	60
44	70
50	60
51	30
55	20
57	20
59	40
63	10
69	20
70	20
74	20
75	130
76	40
77	30
81	10
87	10
94	10
95	230
96	20
99	20
100	10
102	50
107	10
119	30
125	170
126	170
127	40
143	30
144	60
145	2452
146	200
154	30
155	30
159	10
171	20
172	50
173	9999
174	761
175	40
186	10
200	10
214	60
215	20
216	4304
217	470
218	30
243	10
244	40
256	300
257	40
275	50
276	10
