Mass Spectrum: l-Phenylalanine, N-(4-butylbenzoyl)-, methyl ester
Formula: C21 H25 N O3
Molecular weight: 339
Origin: Zaikin V.G., TIPS RAS, Moscow, Russia
m/z	RELATIVE INTENSITY
27	30
28	10
39	40
41	60
44	30
51	30
55	50
63	30
65	120
77	120
78	50
79	30
89	120
90	350
91	1251
92	210
102	30
103	150
104	100
105	120
106	50
115	50
116	40
117	90
118	390
119	90
131	470
132	70
133	80
134	210
135	180
136	30
148	30
159	70
160	30
161	9999
162	4535
163	430
164	30
177	851
178	230
232	30
280	200
308	30
339	120
340	30
