Mass Spectrum: 3-Chloropropionic acid, 2-methyloct-5-yn-4-yl ester
Formula: C12 H19 Cl O2
Molecular weight: 230
Origin: Zaikin V.G., TIPS RAS, Moscow, Russia
m/z	RELATIVE INTENSITY
25	30
26	200
27	2042
29	1011
37	30
38	180
39	1451
40	320
41	2923
42	280
43	2112
44	260
45	60
49	40
50	100
51	430
52	180
53	1081
54	210
55	3514
56	521
57	1071
58	40
59	40
61	50
62	120
63	5384
64	200
65	2132
66	571
67	1091
68	430
69	2543
70	250
71	220
73	300
74	30
77	2052
78	490
79	5535
80	1421
81	2853
82	290
83	2943
84	430
85	601
86	40
89	50
90	30
91	9999
92	571
93	6105
94	991
95	541
96	110
97	2022
98	4675
99	300
103	50
105	801
106	120
107	8297
108	731
109	270
110	30
111	1922
112	270
119	40
121	340
122	1301
123	601
124	130
125	2282
126	180
137	971
138	90
139	671
140	3604
141	330
145	120
147	50
151	150
159	210
160	50
161	60
167	370
168	30
173	310
174	110
175	110
176	30
187	5865
188	691
189	1992
190	220
201	70
215	210
217	60
230	50
