Mass Spectrum: Pentafluorobenzoic acid, 2,6-dimethylnon-1-en-3-yn-5-yl ester
Formula: C18 H17 F5 O2
Molecular weight: 360
Origin: Zaikin V.G., TIPS RAS, Moscow, Russia
m/z	RELATIVE INTENSITY
39	60
41	130
43	290
44	50
51	40
53	50
55	90
63	30
65	90
66	60
67	60
69	140
71	130
77	240
78	280
79	160
81	50
82	70
83	30
91	440
92	100
93	180
94	40
95	190
96	40
99	80
103	50
104	30
105	280
106	370
107	150
109	60
115	30
117	200
118	30
119	330
120	100
121	40
123	531
124	80
133	490
134	60
136	100
137	100
147	30
148	340
149	60
165	90
167	701
168	330
176	30
177	30
195	9999
196	771
197	40
212	80
232	20
247	110
248	60
250	120
261	130
262	90
275	60
289	100
290	110
303	250
304	40
317	661
318	581
319	90
331	50
345	90
360	80
