Mass Spectrum: Nicotinic acid, tridecyl ester
Formula: C19 H31 N O2
Molecular weight: 305
Origin: Zaikin V.G., TIPS RAS, Moscow, Russia
m/z	RELATIVE INTENSITY
26	50
27	120
28	90
29	230
36	130
38	30
39	170
40	30
41	931
42	240
43	981
44	170
50	100
51	440
52	120
53	100
54	210
55	1181
56	450
57	601
66	30
67	280
68	210
69	781
70	370
71	210
73	30
77	140
78	1852
79	1982
80	390
81	140
82	150
83	511
84	180
85	90
93	300
94	30
95	60
96	60
97	290
98	90
105	240
106	3453
107	4034
108	320
109	40
110	40
111	100
112	40
119	40
120	150
121	190
122	40
123	310
124	9999
125	771
126	70
134	50
135	90
137	290
148	30
149	80
150	130
151	601
152	50
162	70
163	80
164	490
165	541
166	50
176	40
177	60
178	991
179	280
191	30
192	971
193	150
204	30
205	50
206	1031
207	330
208	60
218	50
219	40
220	871
221	210
233	80
234	991
235	210
248	1261
249	230
260	80
261	150
262	1582
263	300
264	30
276	1321
277	250
290	440
291	80
304	340
305	320
306	70
