Mass Spectrum: 3-Trifluoromethylbenzoic acid, 3,5-difluorophenyl ester
Formula: C14 H7 F5 O2
Molecular weight: 302
Origin: Zaikin V.G., TIPS RAS, Moscow, Russia
m/z	RELATIVE INTENSITY
28	50
50	140
51	110
57	90
63	80
69	50
74	60
75	330
76	80
81	60
82	30
94	30
95	370
96	30
99	50
101	280
102	50
113	30
119	50
125	270
126	200
129	50
130	120
143	30
144	90
145	3614
146	280
172	30
173	9999
174	721
175	50
283	340
284	50
302	120
