Mass Spectrum: 2,6-Dimethyl-5-[(diphenylmethyl)silyloxy]non-1-en-3-yne
Formula: C24 H30 O Si
Molecular weight: 362
Origin: Zaikin V.G., TIPS RAS, Moscow, Russia
m/z	RELATIVE INTENSITY
26	40
27	70
28	20
29	60
39	110
40	30
41	160
42	60
43	220
45	90
50	50
51	70
52	30
53	90
55	60
63	30
65	70
66	30
71	30
77	290
78	150
79	70
91	270
92	50
93	160
94	40
95	30
103	40
105	521
106	90
107	40
115	70
117	30
119	310
120	60
121	150
123	30
128	40
129	70
131	40
133	30
135	40
137	1311
138	170
139	70
141	60
142	30
143	40
145	80
152	80
153	70
154	60
155	2873
156	420
157	40
159	30
165	250
166	50
167	410
168	70
169	100
171	40
179	30
180	120
181	450
182	110
183	240
184	70
185	1642
186	310
187	110
193	80
195	611
196	140
197	9999
198	1802
199	891
200	130
201	40
211	40
212	30
213	601
214	130
215	90
221	50
224	30
225	50
226	30
227	50
229	40
231	50
241	60
242	80
245	30
247	801
248	190
249	50
261	240
262	90
263	40
275	200
276	60
277	60
289	140
290	70
291	8017
292	2042
293	531
294	80
319	130
320	60
321	30
347	70
361	40
362	440
363	130
364	30
