Mass Spectrum: 4-Fluorobenzoic acid, undec-2-enyl ester
Formula: C18 H25 F O2
Molecular weight: 292
Origin: Zaikin V.G., TIPS RAS, Moscow, Russia
m/z	RELATIVE INTENSITY
27	90
28	60
29	160
39	120
41	440
42	70
43	320
44	30
53	90
54	621
55	531
56	110
57	180
66	30
67	390
68	280
69	270
70	70
71	30
75	120
79	60
80	30
81	350
82	330
83	150
94	40
95	841
96	280
97	110
109	120
110	110
123	9999
124	691
125	50
140	80
141	130
151	40
152	200
166	40
169	60
180	40
193	110
194	90
221	60
235	40
249	40
263	30
