Mass Spectrum: 4-Chlorobenzoic acid, 2,7-dimethyloct-7-en-5-yn-4-yl ester
Formula: C17 H19 Cl O2
Molecular weight: 290
Origin: Zaikin V.G., TIPS RAS, Moscow, Russia
m/z	RELATIVE INTENSITY
26	70
27	290
28	60
29	170
36	100
37	30
38	90
39	420
40	110
41	871
42	80
43	701
44	100
50	290
51	340
52	130
53	240
55	280
56	40
57	110
62	30
63	130
64	80
65	370
66	110
67	250
68	80
69	110
73	20
74	120
75	591
76	270
77	861
78	210
79	541
80	80
81	521
82	40
83	50
85	50
89	40
90	40
91	1542
92	601
93	521
94	90
95	110
96	90
103	110
104	200
105	390
106	80
107	130
108	30
109	350
110	50
111	1622
112	200
113	541
114	60
115	60
117	150
118	30
119	2382
120	230
121	30
123	70
133	140
134	350
135	50
136	110
137	30
139	9999
140	671
141	2953
142	210
151	140
156	220
157	30
158	70
183	40
185	40
210	40
234	30
247	861
248	120
249	290
250	30
