Mass Spectrum: l-Alanine, N-(4-fluorobenzoyl)-, methyl ester
Formula: C11 H12 F N O3
Molecular weight: 225
Origin: Zaikin V.G., TIPS RAS, Moscow, Russia
m/z	RELATIVE INTENSITY
27	30
28	80
42	130
43	40
44	80
50	70
51	40
59	40
68	30
69	70
70	40
74	50
75	470
76	50
94	140
95	1932
96	180
102	60
109	120
121	40
122	70
123	9999
124	681
125	40
136	70
164	370
165	50
166	4024
167	390
194	50
225	160
