Mass Spectrum: l-Methionine, N-(3-fluorobenzoyl)-, methyl ester
Formula: C13 H16 F N O3 S
Molecular weight: 285
Origin: Zaikin V.G., TIPS RAS, Moscow, Russia
m/z	RELATIVE INTENSITY
26	30
27	90
28	10
29	40
33	40
35	50
39	40
40	40
41	130
42	30
44	120
45	120
46	50
47	140
48	60
49	40
50	60
51	40
54	50
55	40
56	130
57	150
59	110
60	30
61	851
62	40
63	50
68	30
69	70
70	30
74	130
75	741
76	70
77	30
86	30
87	70
88	761
89	40
94	140
95	2773
96	280
99	40
102	40
114	300
121	50
122	90
123	9999
124	961
125	60
128	40
131	30
140	160
150	50
151	871
152	100
162	531
163	40
164	60
166	30
177	70
178	480
179	3754
180	410
181	30
192	561
193	140
194	60
205	70
206	60
210	50
211	5014
212	561
213	50
224	951
225	120
226	300
227	30
238	230
239	30
244	40
253	60
254	30
285	571
286	100
287	30
288	60
