Mass Spectrum: 2-Chlorobenzoic acid, pent-2-en-4-ynyl ester
Formula: C12 H9 Cl O2
Molecular weight: 220
Origin: Zaikin V.G., TIPS RAS, Moscow, Russia
m/z	RELATIVE INTENSITY
27	40
28	20
38	70
39	450
44	50
50	250
51	180
52	50
53	30
61	30
62	50
63	220
64	110
65	651
66	40
74	100
75	641
76	190
77	100
85	70
104	40
110	30
111	1271
112	130
113	430
114	40
115	50
139	9999
140	731
141	3023
142	230
156	90
157	40
158	30
175	30
185	40
220	160
222	50
