Mass Spectrum: Cyclobutanecarboxylic acid, pent-2-en-4-ynyl ester
Formula: C10 H12 O2
Molecular weight: 164
Origin: Zaikin V.G., TIPS RAS, Moscow, Russia
m/z	RELATIVE INTENSITY
26	170
27	781
28	10
29	721
37	40
38	190
39	1481
40	80
41	80
43	50
44	230
49	30
50	200
51	270
52	170
53	490
54	150
55	9999
56	470
62	90
63	420
64	230
65	1582
66	120
73	60
77	40
79	120
80	30
81	220
82	90
83	5244
84	280
91	90
107	80
108	30
109	110
136	90
164	150
