Mass Spectrum: Glycine, N-(2-thienylcarbonyl)-, methyl ester
Formula: C8 H9 N O3 S
Molecular weight: 199
Origin: Zaikin V.G., TIPS RAS, Moscow, Russia
m/z	RELATIVE INTENSITY
28	10
29	30
38	50
39	921
40	30
44	70
45	120
50	30
53	50
56	100
57	180
58	80
59	60
81	60
82	120
83	470
84	100
85	30
110	30
111	9999
112	541
113	390
140	1932
141	140
142	90
167	410
168	90
199	911
200	80
201	40
