Mass Spectrum: p-Anisic acid, tridec-2-ynyl ester
Formula: C21 H30 O3
Molecular weight: 330
Origin: Zaikin V.G., TIPS RAS, Moscow, Russia
m/z	RELATIVE INTENSITY
27	80
28	50
29	140
39	110
41	300
42	40
43	260
50	30
51	40
52	60
53	100
54	40
55	200
56	40
57	60
63	60
64	90
65	80
66	40
67	130
69	60
76	30
77	360
78	60
79	190
80	30
81	90
91	80
92	240
93	100
94	40
95	60
105	30
107	150
108	50
109	50
121	70
135	9999
136	721
137	60
152	270
153	130
203	50
