Mass Spectrum: 5-Bromovaleric acid, 3-pentadecyl ester
Formula: C20 H39 Br O2
Molecular weight: 390
Origin: Zaikin V.G., TIPS RAS, Moscow, Russia
m/z	RELATIVE INTENSITY
26	210
27	641
28	10
29	1231
31	40
36	100
38	40
39	501
40	110
41	2553
42	681
43	2863
44	320
45	50
50	40
51	50
52	30
53	260
54	480
55	6265
56	1852
57	3203
58	180
59	210
65	40
66	60
67	671
68	531
69	2362
70	1642
71	1722
72	140
73	240
77	50
79	190
80	230
81	571
82	991
83	2482
84	1141
85	1341
86	70
91	80
93	40
95	340
96	661
97	2312
98	751
99	480
100	160
101	1732
102	100
103	30
107	80
109	240
110	380
111	1441
112	581
113	370
119	90
123	70
124	240
125	801
126	410
127	150
135	2322
136	120
137	2232
138	240
139	330
140	300
141	130
152	140
153	220
154	280
155	80
162	30
163	9999
164	601
165	9779
166	611
167	150
168	120
169	40
178	170
179	50
180	440
181	1762
182	701
183	1421
184	70
193	70
195	30
197	320
198	40
210	2462
211	470
212	40
221	330
223	310
227	160
253	430
254	70
361	60
363	60
