Mass Spectrum: trans-3-Trifluoromethylcinnamic acid, hex-4-yn-3-yl ester
Formula: C16 H15 F3 O2
Molecular weight: 296
Origin: Zaikin V.G., TIPS RAS, Moscow, Russia
m/z	RELATIVE INTENSITY
26	60
27	170
28	40
29	100
38	30
39	310
40	70
41	501
43	70
44	70
50	110
51	160
52	110
53	591
54	40
55	90
57	70
63	60
65	160
66	100
67	80
69	260
74	50
75	130
76	90
77	290
78	60
79	2262
80	781
81	691
82	50
95	100
96	40
97	380
98	30
99	30
101	90
102	390
103	50
109	30
119	40
120	100
125	70
126	30
137	60
141	70
145	200
146	30
147	40
151	1672
152	200
159	50
169	230
170	240
171	1441
172	240
173	30
183	100
197	150
198	60
199	9999
200	931
201	60
209	120
210	140
211	50
215	190
216	200
217	70
223	100
224	40
225	50
226	120
237	80
238	40
239	70
240	30
251	40
253	60
267	90
268	330
269	40
277	210
278	30
281	190
296	100
