Mass Spectrum: l-Valine, N-(2-thienylcarbonyl)-, methyl ester
Formula: C11 H15 N O3 S
Molecular weight: 241
Origin: Zaikin V.G., TIPS RAS, Moscow, Russia
m/z	RELATIVE INTENSITY
27	50
28	10
29	20
39	561
40	20
41	90
43	70
44	50
45	60
55	50
56	40
57	60
58	50
59	60
70	40
82	60
83	360
84	70
85	30
110	50
111	9999
112	601
113	400
114	30
127	470
128	1241
129	100
130	80
139	100
167	300
168	30
181	30
182	2703
183	300
184	130
194	40
198	40
199	150
241	180
242	30
