Mass Spectrum: 2-Thiopheneacetic acid, 2-methyloct-5-yn-4-yl ester
Formula: C15 H20 O2 S
Molecular weight: 264
Origin: Zaikin V.G., TIPS RAS, Moscow, Russia
m/z	RELATIVE INTENSITY
26	30
27	130
28	40
29	100
38	30
39	320
40	50
41	611
42	50
43	811
44	210
45	420
47	30
50	70
51	140
52	110
53	671
54	50
55	681
56	60
57	260
58	60
63	90
65	250
66	100
67	831
68	60
69	440
70	90
71	60
77	390
78	90
79	981
80	160
81	3974
82	300
83	60
91	350
92	60
93	360
94	90
95	571
96	190
97	9999
98	871
99	470
100	30
105	90
107	340
108	110
111	50
121	90
122	300
123	1141
124	631
125	120
126	30
135	60
139	140
140	1191
141	120
142	130
143	30
149	50
163	40
167	130
177	320
178	50
179	50
191	100
193	40
205	30
207	80
221	390
222	170
223	30
235	40
264	160
