Mass Spectrum: Octanoic acid, 2,7-dimethyloct-7-en-5-yn-4-yl ester
Formula: C18 H30 O2
Molecular weight: 278
Origin: Zaikin V.G., TIPS RAS, Moscow, Russia
m/z	RELATIVE INTENSITY
26	100
27	460
28	230
29	581
38	40
39	470
40	130
41	1692
42	340
43	2162
44	170
45	30
50	70
51	180
52	100
53	260
54	50
55	1031
56	210
57	5134
58	230
59	60
60	190
63	90
64	60
65	320
66	150
67	551
68	140
69	360
70	110
71	90
73	140
74	30
77	941
78	230
79	811
80	180
81	871
82	160
83	290
84	140
85	110
89	40
90	30
91	1782
92	771
93	1111
94	200
95	951
96	360
97	250
98	120
101	50
103	110
104	70
105	571
106	140
107	511
108	220
109	3043
110	1562
111	170
115	70
117	170
118	40
119	3874
120	440
121	130
123	320
124	60
125	70
127	1882
128	170
133	280
134	541
135	240
136	140
137	711
138	130
150	40
151	591
152	1532
153	210
163	60
179	240
180	60
193	140
194	40
207	90
209	40
221	130
222	100
235	9999
236	1572
237	160
263	70
278	501
279	100
