Mass Spectrum: Isonicotinic acid, pentyl ester
Formula: C11 H15 N O2
Molecular weight: 193
Origin: Zaikin V.G., TIPS RAS, Moscow, Russia
m/z	RELATIVE INTENSITY
26	60
27	400
28	230
29	571
30	20
39	240
40	50
41	1021
42	2082
43	911
44	70
50	40
51	1431
53	40
54	40
55	1832
56	110
57	70
67	30
69	420
70	3504
71	220
77	80
78	3784
79	721
80	150
96	40
106	8728
107	691
108	60
115	30
121	130
122	30
123	2352
124	9999
125	701
126	60
136	60
137	1461
138	110
148	40
150	480
151	420
152	30
164	2773
165	501
166	40
178	50
192	1461
193	611
194	130
