Mass Spectrum: o-Anisic acid, undecyl ester
Formula: C19 H30 O3
Molecular weight: 306
Origin: Zaikin V.G., TIPS RAS, Moscow, Russia
m/z	RELATIVE INTENSITY
26	30
27	100
28	80
29	200
39	110
41	490
42	130
43	551
44	30
50	30
51	80
53	40
54	60
55	501
56	200
57	310
63	50
64	80
65	60
67	90
68	60
69	260
70	140
71	100
76	70
77	1001
78	130
79	200
81	40
82	40
83	120
84	60
85	40
92	410
93	60
94	30
97	60
104	30
105	661
106	190
107	120
108	60
119	20
120	180
121	210
122	90
123	2222
124	180
133	691
134	420
135	9999
136	771
137	70
151	280
152	3403
153	4555
154	390
155	40
180	40
221	40
306	561
307	120
