Mass Spectrum: l-Proline, N-(4-butylbenzoyl)-, methyl ester
Formula: C17 H23 N O3
Molecular weight: 289
Origin: Zaikin V.G., TIPS RAS, Moscow, Russia
m/z	RELATIVE INTENSITY
27	30
28	10
39	40
41	100
42	30
44	40
55	40
65	70
68	40
69	30
77	90
78	30
89	110
90	340
91	751
92	80
103	90
104	70
105	90
115	50
117	30
118	350
119	40
128	110
131	120
132	30
133	60
146	40
159	100
160	30
161	9999
162	981
163	70
230	2122
231	350
232	30
246	30
257	30
258	30
289	350
290	70
