Mass Spectrum: Glycine, N-(4-fluorobenzoyl)-, methyl ester
Formula: C10 H10 F N O3
Molecular weight: 211
Origin: Zaikin V.G., TIPS RAS, Moscow, Russia
m/z	RELATIVE INTENSITY
28	10
29	30
44	50
50	80
51	60
56	30
57	40
59	40
68	40
69	90
74	60
75	541
76	60
93	30
94	150
95	2102
96	180
122	60
123	9999
124	641
125	40
151	20
152	2002
153	170
179	511
180	150
211	711
212	90
