Mass Spectrum: l-Methionine, N-(4-bromobenzoyl)-, methyl ester
Formula: C13 H16 Br N O3 S
Molecular weight: 345
Origin: Zaikin V.G., TIPS RAS, Moscow, Russia
m/z	RELATIVE INTENSITY
26	50
27	90
28	20
29	50
35	30
36	110
38	30
39	70
40	80
41	190
42	50
43	80
44	400
45	140
46	50
47	140
48	60
49	40
50	310
51	120
52	40
54	60
55	80
56	190
57	130
59	130
60	40
61	571
62	30
63	50
69	50
70	30
71	110
73	60
74	270
75	1071
76	1071
77	290
78	50
79	120
80	140
81	60
82	140
83	30
85	110
86	40
87	90
88	721
89	60
91	60
96	30
97	30
99	80
100	30
102	130
103	180
104	791
105	260
107	50
114	430
115	50
117	50
120	30
121	20
131	80
132	490
133	120
139	40
145	30
146	60
154	40
155	2362
156	240
157	2372
158	200
159	40
160	240
161	60
162	1411
163	130
164	80
173	50
177	30
181	80
182	80
183	9999
184	1221
185	9989
186	1111
187	70
191	30
192	70
193	60
198	30
199	30
200	200
201	40
202	150
210	50
211	511
212	100
213	490
214	60
225	30
226	40
237	40
238	460
239	3984
240	901
241	3844
242	440
243	30
251	30
252	541
253	230
254	571
255	200
256	40
265	80
266	70
267	100
268	80
270	60
271	5234
272	711
273	5144
274	611
275	60
283	30
284	1001
285	140
286	1241
287	160
288	290
289	30
298	230
299	50
300	230
301	30
313	50
314	30
315	60
345	541
346	90
347	541
348	90
349	20
