Mass Spectrum: 2-Fluorobenzoic acid, 3,5-difluorophenyl ester
Formula: C13 H7 F3 O2
Molecular weight: 252
Origin: Zaikin V.G., TIPS RAS, Moscow, Russia
m/z	RELATIVE INTENSITY
28	40
50	100
51	110
57	60
63	70
68	60
69	120
74	80
75	701
76	60
81	50
82	30
93	30
94	150
95	1892
96	160
101	240
102	50
113	30
122	40
123	9999
124	651
125	40
129	40
130	150
252	70
