Mass Spectrum: 1-(Dimethyldodecylsilyloxy)hexane
Formula: C20 H44 O Si
Molecular weight: 328
Origin: Zaikin V.G., TIPS RAS, Moscow, Russia
m/z	RELATIVE INTENSITY
26	40
27	100
28	50
29	130
39	70
41	300
42	120
43	440
45	50
47	30
55	370
56	150
57	170
58	40
59	470
60	40
61	350
67	30
69	90
70	60
71	50
73	50
75	1902
76	140
77	90
83	551
84	70
85	80
87	100
88	30
89	711
90	60
97	30
99	110
101	170
113	50
115	140
129	30
143	80
145	581
146	70
159	9999
160	1301
161	410
162	30
173	30
313	1161
314	320
315	80
