Mass Spectrum: 1-Triisobutylsilyloxyundec-2-ene
Formula: C23 H48 O Si
Molecular weight: 368
Origin: Zaikin V.G., TIPS RAS, Moscow, Russia
m/z	RELATIVE INTENSITY
26	80
27	200
28	90
29	230
38	40
39	340
40	90
41	901
42	210
43	460
45	280
47	260
50	20
51	30
53	80
54	200
55	521
56	250
57	380
58	40
59	761
60	120
61	3253
62	200
63	120
67	250
68	60
69	250
70	50
71	140
73	140
74	160
75	350
76	20
77	40
79	60
81	160
82	40
83	230
84	30
85	470
86	80
87	741
88	80
89	50
95	160
97	250
98	30
99	501
100	90
101	1812
102	200
103	2352
104	220
105	90
109	60
111	110
113	410
114	60
115	761
116	90
117	270
123	30
125	50
127	320
128	90
129	250
130	30
139	30
141	430
142	70
143	420
144	50
151	60
153	50
155	320
156	70
157	470
158	60
159	701
160	90
161	30
169	90
171	80
173	40
181	30
183	40
197	190
198	30
199	4204
200	731
201	200
211	40
213	170
214	30
253	50
255	9999
256	2082
257	581
258	70
311	1081
312	330
313	160
314	30
