Mass Spectrum: 4-(Trifluoromethyl)benzoic acid, 3-chloroprop-2-enyl ester
Formula: C11 H8 Cl F3 O2
Molecular weight: 264
Origin: Zaikin V.G., TIPS RAS, Moscow, Russia
m/z	RELATIVE INTENSITY
28	10
29	30
36	80
39	120
40	60
44	130
49	40
50	70
51	30
69	30
73	50
74	70
75	571
76	70
77	180
91	150
93	50
95	280
96	50
99	30
115	30
119	50
125	240
126	150
127	80
143	50
144	70
145	2913
146	280
161	80
163	30
165	60
171	40
173	9999
174	961
175	60
183	130
184	30
185	140
190	50
191	50
201	60
202	60
211	80
215	50
219	30
229	2412
230	310
235	30
245	330
246	50
247	110
264	30
