Mass Spectrum: 3-Phenylpropionic acid, 2,6-dimethylnon-1-en-3-yn-5-yl ester
Formula: C20 H26 O2
Molecular weight: 298
Origin: Zaikin V.G., TIPS RAS, Moscow, Russia
m/z	RELATIVE INTENSITY
25	20
26	150
27	420
29	310
37	30
38	60
39	541
40	140
41	981
42	140
43	771
44	150
45	10
49	20
50	170
51	430
52	180
53	300
54	30
55	480
56	30
57	120
61	10
62	50
63	190
64	70
65	641
66	190
67	250
68	20
69	490
70	80
71	170
73	10
74	50
75	40
76	70
77	1562
78	691
79	1141
80	130
81	330
82	300
83	340
84	30
85	10
87	10
89	110
90	80
91	8858
92	1001
93	821
94	170
95	811
96	220
97	80
98	30
99	20
101	10
102	100
103	751
104	1101
105	9999
106	1542
107	1081
108	150
109	1281
110	160
111	180
112	10
115	90
116	30
117	160
118	40
119	1091
120	320
121	210
122	60
123	1011
124	4034
125	380
126	30
128	20
129	30
131	270
132	210
133	3393
134	380
135	70
136	521
137	691
138	100
139	10
141	20
142	10
143	10
145	10
147	70
148	1682
149	490
150	280
151	581
152	170
153	40
154	10
155	50
156	10
157	10
160	10
161	10
162	40
163	20
164	10
165	651
166	1702
167	270
168	80
169	40
171	10
173	10
175	70
176	10
179	10
181	30
182	20
183	20
185	10
186	10
187	10
189	10
193	100
194	160
195	70
196	20
197	10
199	60
200	20
201	10
213	10
215	20
223	10
227	200
228	90
229	10
237	10
239	10
241	10
255	1762
256	370
257	40
269	80
270	10
283	270
284	50
298	430
299	90
300	10
