Mass Spectrum: 4-Chlorobenzoic acid, tridec-2-ynyl ester
Formula: C20 H27 Cl O2
Molecular weight: 334
Origin: Zaikin V.G., TIPS RAS, Moscow, Russia
m/z	RELATIVE INTENSITY
26	40
27	140
28	90
29	240
36	30
39	160
40	40
41	531
42	90
43	490
44	20
50	90
51	90
52	130
53	160
54	90
55	400
56	100
57	130
65	90
66	90
67	280
68	50
69	150
70	40
71	30
74	40
75	190
76	70
77	210
78	60
79	390
80	90
81	200
82	40
83	50
91	160
92	30
93	210
94	100
95	150
96	30
104	80
105	70
107	70
108	50
109	40
111	511
112	70
113	180
121	70
135	50
139	9999
140	651
141	2863
142	210
156	70
157	70
195	30
207	110
208	60
209	40
210	30
