Mass Spectrum: 4-Nitrobenzoic acid, 2-isopropoxyphenyl ester
Formula: C16 H15 N O5
Molecular weight: 301
Origin: Zaikin V.G., TIPS RAS, Moscow, Russia
m/z	RELATIVE INTENSITY
27	70
28	10
30	30
39	80
41	120
43	160
44	30
50	150
51	70
52	120
53	50
63	60
64	90
65	100
74	50
75	150
76	551
77	70
80	90
81	250
92	400
93	50
103	30
104	1201
105	120
109	240
110	190
120	400
121	120
122	30
134	260
135	60
150	9999
151	801
152	90
167	60
259	921
260	150
301	601
302	110
