Mass Spectrum: 3-(Dichloromethyl)dimethylsilyloxyhex-4-yne
Formula: C9 H16 Cl2 O Si
Molecular weight: 238
Origin: Zaikin V.G., TIPS RAS, Moscow, Russia
m/z	RELATIVE INTENSITY
26	40
27	90
29	80
35	40
36	280
37	10
38	100
39	190
40	40
41	210
42	20
43	180
44	110
45	210
46	10
47	180
48	10
49	20
50	50
51	110
52	90
53	360
54	20
55	90
56	10
57	120
58	40
59	100
60	30
61	60
62	10
63	300
64	30
65	270
66	60
67	170
68	10
69	390
70	50
71	20
73	10
74	30
75	2482
76	210
77	360
78	260
79	581
80	190
81	200
82	50
83	170
84	20
85	90
87	20
89	10
91	50
92	10
93	531
94	40
95	470
96	70
97	6646
98	841
99	460
100	70
101	70
102	10
103	40
105	70
106	50
107	40
108	40
109	40
110	10
111	70
112	10
113	2442
114	160
115	3954
116	380
117	951
118	80
119	270
120	20
121	20
123	10
125	130
126	60
127	80
128	30
129	40
130	20
131	30
133	10
135	10
137	350
138	30
139	671
140	50
141	50
143	20
145	20
151	10
153	40
154	10
155	9999
156	1451
157	490
158	40
159	30
161	30
165	10
167	10
173	20
175	30
177	10
181	10
183	10
191	10
193	10
209	2543
210	350
211	1692
212	220
213	320
214	30
223	20
225	10
237	20
239	10
