Mass Spectrum: (Phenylthio)acetic acid, 4-hexadecyl ester
Formula: C24 H40 O2 S
Molecular weight: 392
Origin: Zaikin V.G., TIPS RAS, Moscow, Russia
m/z	RELATIVE INTENSITY
26	70
27	180
28	140
29	370
39	240
40	50
41	1201
42	310
43	2523
44	220
45	641
46	30
47	30
50	60
51	140
52	30
53	70
54	140
55	1942
56	621
57	4885
58	220
63	20
65	240
66	130
67	260
68	150
69	1592
70	541
71	3794
72	220
77	300
78	210
79	170
81	170
82	180
83	1001
84	370
85	2883
86	230
91	150
94	30
95	130
96	120
97	751
98	180
99	791
100	60
105	50
108	80
109	891
110	1612
111	541
112	180
113	450
114	30
115	30
121	310
122	160
123	7116
124	3834
125	651
126	320
127	260
139	40
140	30
141	170
150	60
151	831
152	90
153	40
154	20
155	120
168	9999
169	1972
170	621
171	100
183	30
197	50
224	130
225	30
241	60
333	50
392	6105
393	1632
394	501
395	90
