Mass Spectrum: 2-Trihexylsilyloxybut-3-yne
Formula: C22 H44 O Si
Molecular weight: 352
Origin: Zaikin V.G., TIPS RAS, Moscow, Russia
m/z	RELATIVE INTENSITY
28	10
41	40
43	60
45	60
47	40
55	90
56	30
57	30
59	50
61	60
69	50
71	60
73	130
75	60
81	60
83	280
84	30
85	170
87	50
89	40
95	90
97	470
98	80
99	420
100	50
101	110
109	250
110	30
111	771
112	150
113	190
114	30
115	60
125	80
127	160
129	70
137	250
138	30
139	521
140	80
141	150
153	120
155	230
156	30
157	60
167	30
181	60
182	30
183	9999
184	1592
185	460
186	40
199	30
223	150
224	30
253	50
267	1051
268	240
269	60
