Mass Spectrum: 2-Chlorobenzoic acid, 2,7-dimethyloct-7-en-5-yn-4-yl ester
Formula: C17 H19 Cl O2
Molecular weight: 290
Origin: Zaikin V.G., TIPS RAS, Moscow, Russia
m/z	RELATIVE INTENSITY
26	40
27	180
28	40
29	100
38	30
39	260
40	60
41	551
42	40
43	460
44	60
50	150
51	210
52	80
53	150
55	170
56	30
57	60
63	80
64	50
65	220
66	70
67	160
68	50
69	70
74	60
75	370
76	170
77	651
78	150
79	390
80	50
81	350
82	30
85	30
89	30
91	1111
92	420
93	380
94	70
95	80
96	40
103	70
104	110
105	290
106	60
107	130
108	30
109	200
110	70
111	1061
112	140
113	360
114	40
115	50
117	100
119	1732
120	180
123	60
133	110
134	320
135	50
136	70
137	20
139	9999
140	691
141	2923
142	230
151	180
152	30
156	110
157	30
158	30
168	30
199	30
203	30
205	30
206	30
208	40
219	60
221	40
227	30
234	80
247	2853
248	430
249	931
250	140
290	80
