Mass Spectrum: 2-Bromobenzoic acid, 2,7-dimethyloct-7-en--5-yn-4-yl ester
Formula: C17 H19 Br O2
Molecular weight: 334
Origin: Zaikin V.G., TIPS RAS, Moscow, Russia
m/z	RELATIVE INTENSITY
26	60
27	220
28	50
29	140
38	50
39	370
40	90
41	791
42	60
43	681
44	110
50	350
51	300
52	130
53	220
55	280
56	50
57	100
62	30
63	130
64	90
65	380
66	120
67	240
68	70
69	110
74	120
75	480
76	731
77	1071
78	260
79	681
80	200
81	601
82	160
83	30
89	50
90	40
91	1842
92	771
93	701
94	120
95	140
96	60
103	130
104	330
105	561
106	110
107	220
108	60
109	330
110	40
115	100
117	160
118	30
119	2873
120	320
121	50
123	120
133	200
134	611
135	100
136	130
137	50
139	60
141	60
142	30
151	380
152	60
153	40
154	30
155	1111
156	130
157	1071
158	110
167	30
168	110
169	40
171	80
183	9999
184	751
185	9949
186	711
187	30
199	70
200	190
201	40
202	180
203	30
212	20
227	50
249	40
250	30
251	30
252	50
255	50
263	50
265	70
267	30
277	30
278	100
279	40
280	90
291	3313
292	511
293	3263
294	480
295	40
334	100
336	90
