Mass Spectrum: 5-Chlorovaleric acid, 3-pentadecyl ester
Formula: C20 H39 Cl O2
Molecular weight: 346
Origin: Zaikin V.G., TIPS RAS, Moscow, Russia
m/z	RELATIVE INTENSITY
26	140
27	450
28	350
29	891
31	30
36	140
38	40
39	330
40	70
41	1672
42	480
43	2032
44	180
45	40
51	30
53	160
54	320
55	3794
56	1181
57	2152
58	160
59	110
60	40
63	90
65	40
66	30
67	430
68	350
69	1522
70	1081
71	1141
72	110
73	160
77	30
79	60
81	290
82	521
83	1542
84	731
85	751
86	40
87	30
91	1852
92	90
93	601
94	30
95	200
96	400
97	1461
98	501
99	190
100	410
101	210
109	90
110	230
111	891
112	370
113	130
118	40
119	9999
120	521
121	3183
122	170
123	40
124	130
125	460
126	250
127	80
133	50
134	210
135	110
136	260
137	1261
138	150
139	430
140	160
141	100
149	60
152	70
153	100
154	140
155	40
166	30
167	70
168	60
177	270
178	30
179	90
180	30
181	100
182	180
197	200
210	811
211	150
227	60
317	30
