Mass Spectrum: 4-Fluorobenzoic acid, 2-methylphenyl ester
Formula: C14 H11 F O2
Molecular weight: 230
Origin: Zaikin V.G., TIPS RAS, Moscow, Russia
m/z	RELATIVE INTENSITY
26	70
27	140
28	10
36	40
38	50
39	320
44	120
50	320
51	440
52	220
53	180
62	40
63	140
64	30
65	150
68	70
69	160
74	130
75	1031
76	120
77	681
78	290
79	180
80	20
89	50
90	40
91	70
94	210
95	3473
96	290
107	190
108	120
122	30
123	9999
124	691
125	30
140	30
230	240
231	30
