Mass Spectrum: Nicotinic acid, dodecyl ester
Formula: C18 H29 N O2
Molecular weight: 291
Origin: Zaikin V.G., TIPS RAS, Moscow, Russia
m/z	RELATIVE INTENSITY
25	30
26	250
27	701
28	20
29	1321
35	30
36	280
38	140
39	611
40	140
41	3063
42	781
43	2783
44	420
45	30
49	30
50	310
51	1251
52	320
53	270
54	490
55	2703
56	1131
57	1241
58	40
65	60
66	50
67	531
68	390
69	1361
70	731
71	350
73	30
76	50
77	280
78	3163
79	3173
80	571
81	220
82	230
83	681
84	290
85	130
91	60
93	410
94	40
95	80
96	90
97	370
98	140
105	380
106	4535
107	4535
108	320
109	50
110	70
111	110
112	40
119	70
120	150
121	200
122	40
123	460
124	9999
125	731
126	50
134	60
135	100
137	300
148	30
149	70
150	130
151	531
152	40
162	40
163	80
164	440
165	450
166	40
176	30
178	811
179	210
191	30
192	761
193	110
206	721
207	350
219	50
220	611
221	130
234	681
235	120
246	40
247	80
248	861
249	140
262	841
263	140
276	290
277	40
290	180
291	150
