Mass Spectrum: l-Phenylalanine, N-(p-anisoyl)-, methyl ester
Formula: C18 H19 N O4
Molecular weight: 313
Origin: Zaikin V.G., TIPS RAS, Moscow, Russia
m/z	RELATIVE INTENSITY
28	10
39	40
44	30
50	30
51	40
63	70
64	130
65	90
76	60
77	591
78	60
79	30
91	280
92	470
93	40
103	70
104	70
107	300
108	40
118	30
119	40
120	30
121	50
131	140
134	40
135	9999
136	711
137	60
151	4084
152	400
153	30
161	40
162	130
222	30
254	140
282	30
313	110
