Mass Spectrum: o-Anisic acid, 2-adamantyl ester
Formula: C18 H22 O3
Molecular weight: 286
Origin: Zaikin V.G., TIPS RAS, Moscow, Russia
m/z	RELATIVE INTENSITY
28	20
44	50
50	50
51	130
63	90
64	130
76	60
77	1011
78	130
79	70
92	440
93	30
105	150
106	60
120	100
121	60
123	30
135	9999
136	721
137	60
152	110
211	50
225	40
286	721
287	120
