Mass Spectrum: 1-Diphenylmethylsilyloxy-3-methylbut-2-ene
Formula: C18 H22 O Si
Molecular weight: 282
Origin: Zaikin V.G., TIPS RAS, Moscow, Russia
m/z	RELATIVE INTENSITY
26	30
27	30
28	140
39	80
41	210
43	40
44	160
45	200
50	50
51	100
52	40
53	140
55	30
59	30
61	40
65	50
67	100
68	70
69	90
76	30
77	541
78	270
79	90
85	40
91	360
92	60
93	180
95	40
102	30
103	80
104	40
105	741
106	80
107	30
111	80
113	140
115	80
117	50
119	390
120	150
121	470
122	70
123	90
126	200
127	70
128	60
129	180
130	40
131	340
132	50
133	230
134	40
135	160
136	30
137	6235
138	831
139	290
143	40
144	130
145	160
146	150
147	100
149	140
150	150
151	140
152	270
153	110
154	80
155	210
156	20
159	30
161	170
162	50
163	90
165	460
166	80
167	100
169	50
171	50
173	40
175	30
179	60
180	290
181	991
182	210
183	330
184	50
187	30
188	40
189	3123
190	551
191	220
192	30
193	170
194	30
195	821
196	190
197	9999
198	2002
199	8868
200	1622
201	440
202	40
204	2713
205	501
206	130
210	40
211	70
213	90
214	120
217	40
223	60
225	60
226	30
227	60
237	20
239	280
240	70
251	60
267	2573
268	621
269	170
282	551
283	130
284	30
