Mass Spectrum: 4-(Dichloromethyl)dimethylsilyloxy-2-methyloct-5-yne
Formula: C12 H22 Cl2 O Si
Molecular weight: 280
Origin: Zaikin V.G., TIPS RAS, Moscow, Russia
m/z	RELATIVE INTENSITY
25	10
26	80
27	320
29	270
31	10
35	30
36	270
37	20
38	120
39	420
40	90
41	971
42	100
43	871
44	70
45	250
46	10
47	280
48	30
49	30
50	60
51	130
52	90
53	310
54	50
55	410
56	70
57	180
58	40
59	220
60	50
61	100
62	20
63	310
64	40
65	420
66	110
67	360
68	40
69	340
70	60
71	30
72	10
73	50
74	50
75	5474
76	420
77	721
78	360
79	941
80	250
81	470
82	90
83	841
84	110
85	140
86	10
87	20
89	10
91	390
92	50
93	1051
94	80
95	801
96	100
97	400
98	90
99	160
100	40
101	511
102	40
103	110
104	10
105	230
106	90
107	210
108	60
109	170
110	90
111	9839
112	1111
113	4264
114	280
115	2533
116	160
117	521
118	30
119	40
121	240
122	50
123	340
124	40
125	220
126	80
127	120
128	20
129	70
130	10
131	501
132	50
133	180
134	10
135	20
137	50
138	10
139	250
140	40
141	3504
142	460
143	1562
144	200
145	80
146	10
147	20
149	10
151	50
152	10
153	140
154	50
155	811
156	100
157	30
159	110
160	10
161	60
163	20
165	10
167	90
168	10
169	20
171	20
173	60
174	10
175	50
177	20
179	30
181	100
182	10
183	10
185	30
187	60
188	10
189	60
190	10
191	20
195	50
197	9999
198	1662
199	450
200	40
201	10
203	30
205	10
210	10
211	30
217	20
223	5805
224	791
225	3904
226	531
227	761
228	90
229	30
251	140
252	10
253	90
254	10
265	10
267	10
279	20
