Mass Spectrum: 3-Fluorobenzoic acid, 2-bromo-4-fluorophenyl ester
Formula: C13 H7 Br F2 O2
Molecular weight: 312
Origin: Zaikin V.G., TIPS RAS, Moscow, Russia
m/z	RELATIVE INTENSITY
28	20
44	50
50	160
51	90
56	40
57	90
62	40
63	80
68	90
69	170
74	140
75	891
76	90
81	140
82	170
83	50
93	40
94	230
95	3143
96	260
110	50
122	30
123	9999
124	651
125	40
140	30
161	140
163	130
175	40
189	40
190	100
191	40
192	80
204	50
218	30
312	80
314	80
