Mass Spectrum: 4-Nitrobenzoic acid, 2,6-dimethylnon-1-en-3-yn-5-yl ester
Formula: C18 H21 N O4
Molecular weight: 315
Origin: Zaikin V.G., TIPS RAS, Moscow, Russia
m/z	RELATIVE INTENSITY
27	40
28	10
29	30
36	90
39	110
41	210
43	260
44	190
50	110
51	80
52	40
53	80
55	130
63	70
64	50
65	230
66	60
67	90
69	190
71	110
74	50
75	140
76	420
77	430
78	200
79	240
80	30
81	90
82	90
83	50
91	651
92	541
93	290
94	50
95	250
96	30
103	110
104	1261
105	541
106	470
107	210
108	30
109	90
115	60
117	80
119	591
120	1271
121	230
122	50
123	260
124	50
127	60
128	30
133	801
134	440
135	70
136	310
137	220
147	40
148	541
149	90
150	9999
151	1241
152	130
155	60
165	270
166	30
167	90
172	70
198	40
203	30
216	60
217	40
228	40
232	30
244	130
245	180
258	110
272	1231
273	350
274	40
286	70
300	180
301	30
315	90
