Mass Spectrum: 5-Bromovaleric acid, 4-tridecyl ester
Formula: C18 H35 Br O2
Molecular weight: 362
Origin: Zaikin V.G., TIPS RAS, Moscow, Russia
m/z	RELATIVE INTENSITY
26	170
27	591
28	390
29	981
31	30
38	30
39	430
40	90
41	2032
42	651
43	2322
44	200
45	60
51	30
53	200
54	380
55	5234
56	1662
57	2482
58	150
59	100
66	40
67	450
68	420
69	1912
70	1602
71	1572
72	110
73	220
77	30
79	120
80	140
81	390
82	751
83	2142
84	1141
85	941
86	80
87	30
91	380
93	120
95	180
96	420
97	1522
98	721
99	440
100	160
101	1361
102	70
107	70
109	140
110	360
111	1101
112	601
113	170
119	2092
120	120
121	671
122	30
123	30
124	160
125	631
126	300
127	370
128	40
129	20
134	50
135	1962
136	130
137	1962
138	220
139	440
140	210
141	60
143	80
152	30
153	110
154	350
155	370
156	40
157	30
162	30
163	9999
164	581
165	9739
166	521
171	70
178	180
179	50
180	380
181	661
182	2843
183	1051
184	30
196	150
197	30
199	130
205	30
207	30
209	30
211	340
212	40
235	320
237	320
290	20
319	80
321	80
