Mass Spectrum: 2-Furoic acid, oct-3-en-2-yl ester
Formula: C13 H18 O3
Molecular weight: 222
Origin: Zaikin V.G., TIPS RAS, Moscow, Russia
m/z	RELATIVE INTENSITY
26	100
27	420
28	20
29	390
37	50
38	150
39	1211
40	180
41	1481
42	160
43	691
44	170
50	30
51	100
52	50
53	541
54	741
55	3634
56	220
57	150
65	140
66	130
67	1221
68	3183
69	3223
70	180
71	270
77	120
78	30
79	310
80	80
81	2482
82	420
83	70
84	50
85	180
91	50
93	50
94	30
95	9999
96	531
97	100
108	130
109	230
110	1331
111	370
112	741
113	511
121	80
122	40
123	340
124	120
127	1151
128	90
137	480
138	90
139	30
151	651
152	90
161	170
164	60
165	410
166	100
179	581
180	110
194	100
222	50
