Mass Spectrum: 1-(Dimethyldodecylsilyloxy)pentane
Formula: C19 H42 O Si
Molecular weight: 314
Origin: Zaikin V.G., TIPS RAS, Moscow, Russia
m/z	RELATIVE INTENSITY
26	30
27	80
28	40
29	110
39	60
41	260
42	110
43	340
45	50
47	30
55	170
56	100
57	140
58	40
59	440
60	40
61	350
69	440
70	100
71	60
73	40
75	1752
76	130
77	70
83	30
85	60
87	80
88	30
89	651
90	50
97	30
99	100
101	140
113	40
115	70
129	90
131	791
132	90
133	30
145	9999
146	1151
147	380
159	30
299	1301
300	340
301	80
