Mass Spectrum: 1,3-Difluoro-5-dodecyldimethylsilyloxybenzene
Formula: C20 H34 F2 O Si
Molecular weight: 356
Origin: Zaikin V.G., TIPS RAS, Moscow, Russia
m/z	RELATIVE INTENSITY
28	10
29	40
39	30
41	100
43	120
53	60
55	60
57	90
59	220
63	100
69	30
71	40
73	30
75	30
77	240
79	30
81	290
85	40
91	30
97	40
99	140
109	50
111	40
113	120
127	150
141	60
157	150
171	90
173	1021
174	130
175	40
185	70
186	40
187	9999
188	1471
189	410
190	40
199	60
201	60
211	150
213	140
215	70
227	80
229	30
241	40
341	821
342	210
343	50
356	2032
357	541
358	130
