Mass Spectrum: l-Serine, N,O-bis(2-chlorobenzoyl)-, methyl ester
Formula: C18 H15 Cl2 N O5
Molecular weight: 395
Origin: Zaikin V.G., TIPS RAS, Moscow, Russia
m/z	RELATIVE INTENSITY
26	30
27	30
28	10
29	30
36	130
38	40
39	40
41	80
43	30
44	180
50	210
51	130
55	50
57	50
59	30
69	40
71	30
73	40
74	120
75	701
76	270
77	200
78	30
81	40
83	30
85	70
91	40
95	40
97	40
102	30
104	110
105	150
110	50
111	1812
112	230
113	591
114	70
125	70
132	40
133	30
137	50
138	50
139	9999
140	801
141	3153
142	250
146	30
152	60
156	210
157	50
158	70
169	30
176	50
180	2042
181	230
182	691
183	70
191	40
204	110
210	30
226	30
239	751
240	110
241	250
242	30
256	531
257	60
258	180
294	370
295	50
296	250
297	30
298	40
336	230
337	40
338	150
