Mass Spectrum: 3-Methyl-2-butenoic acid, oct-3-en-2-yl ester
Formula: C13 H22 O2
Molecular weight: 210
Origin: Zaikin V.G., TIPS RAS, Moscow, Russia
m/z	RELATIVE INTENSITY
26	40
27	250
28	130
29	340
39	420
40	140
41	641
42	70
43	310
44	120
50	30
51	50
52	40
53	330
54	230
55	2332
56	150
57	70
65	50
66	40
67	470
68	1031
69	1792
70	100
71	280
77	50
79	120
81	681
82	200
83	9999
84	521
85	60
95	180
100	90
101	320
109	30
110	140
111	260
112	40
127	330
128	30
153	30
167	100
210	40
