Mass Spectrum: 4-Bromobenzoic acid, 2,7-dimethyloct-7-en-5-yn-4-yl ester
Formula: C17 H19 Br O2
Molecular weight: 334
Origin: Zaikin V.G., TIPS RAS, Moscow, Russia
m/z	RELATIVE INTENSITY
26	50
27	170
28	40
29	100
38	90
39	360
40	120
41	721
42	60
43	531
44	210
49	30
50	440
51	340
52	150
53	210
55	270
56	50
57	110
62	30
63	160
64	90
65	460
66	120
67	270
68	80
69	110
73	70
74	220
75	641
76	901
77	1141
78	270
79	741
80	250
81	711
82	200
83	60
85	30
89	60
90	40
91	2202
92	851
93	681
94	130
95	160
96	120
103	170
104	511
105	651
106	150
107	200
108	40
109	531
110	50
115	110
116	30
117	230
118	40
119	3624
120	390
121	50
122	30
123	130
126	30
127	110
128	50
133	240
134	601
135	100
136	200
137	50
147	30
151	320
152	40
153	30
154	30
155	1642
156	180
157	1562
158	140
168	60
171	30
172	110
183	9999
184	781
185	9819
186	751
187	40
200	380
201	30
202	360
203	30
212	50
213	30
249	40
250	40
251	50
252	70
254	40
263	30
265	60
267	40
277	50
278	130
279	60
280	120
291	3223
292	470
293	3113
294	470
295	40
334	80
336	80
