Mass Spectrum: 4-Fluorobenzoic acid, 2-isopropoxyphenyl ester
Formula: C16 H15 F O3
Molecular weight: 274
Origin: Zaikin V.G., TIPS RAS, Moscow, Russia
m/z	RELATIVE INTENSITY
27	50
28	20
39	60
41	100
43	90
50	40
51	50
52	90
53	40
63	30
64	30
69	20
75	200
80	60
81	150
94	70
95	1301
96	120
105	40
109	130
110	130
121	50
122	30
123	9999
124	601
125	30
232	180
274	320
275	50
