Mass Spectrum: Isonicotinic acid, undecyl ester
Formula: C17 H27 N O2
Molecular weight: 277
Origin: Zaikin V.G., TIPS RAS, Moscow, Russia
m/z	RELATIVE INTENSITY
26	80
27	290
28	240
29	601
39	260
40	60
41	1471
42	531
43	1622
44	100
50	160
51	821
52	160
53	130
54	300
55	1832
56	1141
57	871
58	30
67	340
68	360
69	1341
70	951
71	290
77	80
78	1962
79	981
80	300
81	120
82	230
83	811
84	501
85	110
92	40
93	440
94	40
95	40
96	80
97	511
98	190
105	50
106	4024
107	2312
108	180
111	130
112	50
120	300
121	100
122	40
123	601
124	9999
125	841
126	210
137	250
148	40
149	110
150	150
151	130
154	30
162	90
163	50
164	430
165	120
176	90
177	40
178	190
179	50
190	90
191	50
192	130
204	30
205	100
206	210
207	30
220	310
221	70
233	511
234	430
235	80
248	260
249	50
262	170
263	20
276	190
277	230
278	90
