Mass Spectrum: 3-Trifluoromethylbenzoic acid, oct-3-en-2-yl ester
Formula: C16 H19 F3 O2
Molecular weight: 300
Origin: Zaikin V.G., TIPS RAS, Moscow, Russia
m/z	RELATIVE INTENSITY
27	100
28	30
29	90
39	130
40	30
41	370
42	60
43	150
44	40
50	40
51	30
53	160
54	110
55	671
56	50
57	30
65	40
66	40
67	380
68	1331
69	521
70	40
71	110
75	60
77	40
79	80
81	791
82	180
85	50
95	290
96	40
110	420
111	130
125	80
126	80
127	641
128	50
144	30
145	1481
146	130
171	270
172	50
173	9999
174	701
175	40
190	110
191	40
201	70
202	170
215	40
216	30
243	100
244	50
257	50
258	40
281	30
300	30
