Mass Spectrum: l-Serine, N,O-bis(5-chlorovaleyl), methyl ester
Formula: C14 H23 Cl2 N O5
Molecular weight: 355
Origin: Zaikin V.G., TIPS RAS, Moscow, Russia
m/z	RELATIVE INTENSITY
26	190
27	761
28	50
29	1081
30	100
31	90
33	80
35	90
36	591
38	230
39	551
40	120
41	1091
42	781
43	701
44	691
45	250
49	150
50	70
51	80
52	50
53	430
54	390
55	7947
56	691
57	380
58	160
59	521
60	3203
61	90
62	120
63	430
64	50
65	140
67	100
68	170
69	210
70	240
71	200
72	50
73	561
74	170
75	100
77	60
79	40
80	30
81	130
82	250
83	661
84	230
85	130
86	320
87	180
88	1842
89	1001
90	130
91	5474
92	270
93	1752
94	110
95	60
96	160
97	120
98	90
99	40
100	290
101	3113
102	1021
103	130
105	30
107	100
108	30
109	30
110	100
111	90
112	80
114	120
115	50
117	90
118	811
119	7376
120	1431
121	2503
122	170
123	140
124	420
125	110
126	80
127	30
128	70
131	30
132	220
133	50
134	90
135	40
136	2022
137	150
138	681
139	130
140	80
141	40
142	470
143	130
144	140
146	290
147	90
148	30
149	30
151	100
152	70
154	40
155	40
156	380
157	90
158	50
159	50
160	9999
161	921
162	3383
163	290
170	611
171	80
172	170
174	170
175	1642
176	210
177	551
178	4955
179	440
180	1622
181	140
182	30
183	501
184	2963
185	330
186	40
187	350
188	380
189	210
190	70
191	190
192	40
193	70
200	30
201	40
202	1602
203	160
204	80
206	170
207	4074
208	480
209	871
210	120
211	30
218	40
219	961
220	811
221	450
222	260
223	40
236	861
237	250
238	831
239	130
240	190
244	50
254	190
256	150
260	180
262	70
284	50
292	50
296	420
297	50
298	280
299	30
300	40
306	30
320	2432
321	410
322	851
323	130
324	100
326	60
355	50
357	30
