Mass Spectrum: 4-Bromobenzoic acid, 2-bromo-4-fluorophenyl ester
Formula: C13 H7 Br2 F O2
Molecular weight: 372
Origin: Zaikin V.G., TIPS RAS, Moscow, Russia
m/z	RELATIVE INTENSITY
26	30
28	10
31	30
38	40
44	40
50	611
51	90
56	50
57	110
62	40
63	110
73	30
74	280
75	931
76	1181
77	120
79	50
80	120
81	270
82	430
83	90
94	60
104	290
105	70
110	90
111	40
113	30
129	30
131	40
135	40
137	30
154	30
155	1742
156	180
157	1812
158	160
161	270
163	260
183	9999
184	701
185	9619
186	751
187	60
189	90
190	210
191	100
192	220
266	30
292	30
294	30
372	90
374	180
376	90
