Mass Spectrum: 6-Bromohexanoic acid, 3-chloroprop-2-enyl ester
Formula: C9 H14 Br Cl O2
Molecular weight: 268
Origin: Zaikin V.G., TIPS RAS, Moscow, Russia
m/z	RELATIVE INTENSITY
26	180
27	871
29	420
31	30
37	40
38	160
39	1772
40	190
41	3323
42	501
43	811
44	70
45	100
48	110
49	501
51	150
53	210
54	110
55	1101
56	140
57	190
60	160
61	90
62	100
63	50
64	20
65	40
67	581
68	140
69	9999
70	821
71	2242
72	90
73	130
74	110
75	5655
76	250
77	1822
78	70
79	130
80	270
81	150
82	230
83	70
85	70
88	30
89	100
90	40
91	671
92	40
93	470
95	300
96	30
97	330
98	200
99	490
106	30
107	581
108	40
109	501
111	50
113	1542
114	180
115	30
121	70
123	50
133	50
134	380
135	120
136	120
137	40
147	70
148	50
149	521
150	70
151	460
153	70
173	30
175	30
176	30
177	7797
178	521
179	7436
180	480
189	40
195	20
233	2122
234	200
235	2102
236	190
268	40
270	50
