Mass Spectrum: Acetoxyacetic acid, 3-methylbut-2-enyl ester
Formula: C9 H14 O4
Molecular weight: 186
Origin: Zaikin V.G., TIPS RAS, Moscow, Russia
m/z	RELATIVE INTENSITY
26	70
27	561
28	240
29	621
30	100
31	80
38	110
39	1321
40	531
41	6035
42	671
43	8768
44	581
45	90
50	120
51	210
52	160
53	1672
54	230
55	430
56	260
57	180
60	50
61	60
63	40
65	150
66	120
67	3393
68	5264
69	9999
70	641
71	490
73	2422
74	120
81	30
82	230
83	1662
84	1141
85	5214
86	370
91	80
97	50
98	2873
99	180
101	1431
102	40
111	681
112	30
115	270
119	40
125	90
126	3914
127	290
143	150
