Mass Spectrum: (Phenylthio)acetic acid, 3-tridecyl ester
Formula: C21 H34 O2 S
Molecular weight: 350
Origin: Zaikin V.G., TIPS RAS, Moscow, Russia
m/z	RELATIVE INTENSITY
26	90
27	250
28	250
29	641
36	40
38	30
39	380
40	60
41	1752
42	400
43	3143
44	350
45	1101
46	60
47	50
50	110
51	280
52	50
53	110
54	140
55	2202
56	691
57	5254
58	290
59	50
63	50
65	380
66	190
67	270
68	140
69	1552
70	501
71	3814
72	260
73	50
74	40
76	40
77	511
78	270
79	260
81	150
82	180
83	711
84	340
85	2613
86	170
91	190
94	40
95	130
96	90
97	470
98	130
99	541
100	30
105	50
108	120
109	1181
110	1872
111	450
112	160
113	320
121	380
122	180
123	9258
124	3964
125	741
126	250
127	210
141	90
150	60
151	871
152	100
153	40
154	30
168	9999
169	1822
170	611
171	80
180	30
182	130
183	30
199	40
209	30
227	50
277	150
278	60
291	40
350	7777
351	1862
352	591
353	100
364	80
