Mass Spectrum: 2,2-Dimethylpropanoic acid, hex-4-yn-3-yl ester
Formula: C11 H18 O2
Molecular weight: 182
Origin: Zaikin V.G., TIPS RAS, Moscow, Russia
m/z	RELATIVE INTENSITY
26	70
27	390
28	400
29	1011
30	30
39	851
40	240
41	2643
42	240
43	290
44	240
50	120
51	240
52	250
53	1021
54	90
55	300
56	210
57	9999
58	470
59	80
63	60
65	290
66	240
67	190
68	20
69	501
70	90
77	490
78	110
79	3423
80	1351
81	2893
82	200
83	400
85	1542
86	100
87	80
97	160
98	531
99	90
103	130
111	100
124	30
125	280
126	941
127	70
153	80
154	80
167	741
168	70
182	591
183	60
