Mass Spectrum: 2-Bromobenzoic acid, oct-3-en-2-yl ester
Formula: C15 H19 Br O2
Molecular weight: 310
Origin: Zaikin V.G., TIPS RAS, Moscow, Russia
m/z	RELATIVE INTENSITY
26	60
27	200
28	60
29	170
37	40
38	100
39	380
40	130
41	941
42	120
43	420
44	210
49	40
50	571
51	220
52	60
53	400
54	390
55	2583
56	170
57	110
63	40
65	200
66	80
67	911
68	2412
69	2753
70	170
71	240
73	50
74	240
75	781
76	1011
77	450
78	80
79	320
80	240
81	1682
82	390
83	50
91	80
93	50
95	460
96	100
97	30
104	310
105	180
109	50
110	581
111	531
112	40
115	30
116	30
121	30
126	30
127	2142
128	190
129	60
130	110
131	30
139	60
143	50
144	30
155	1371
156	200
157	1341
158	140
183	9999
184	781
185	9579
186	711
187	40
200	691
201	300
202	701
203	300
212	50
214	40
254	30
267	60
269	50
310	30
312	40
