Mass Spectrum: 2-Chlorobenzoic acid, 4-tridecyl ester
Formula: C20 H31 Cl O2
Molecular weight: 338
Origin: Zaikin V.G., TIPS RAS, Moscow, Russia
m/z	RELATIVE INTENSITY
26	60
27	200
28	150
29	370
39	170
40	30
41	971
42	270
43	1091
44	120
50	120
51	80
53	70
54	170
55	1141
56	721
57	961
58	50
65	30
67	230
68	200
69	981
70	861
71	480
72	30
74	50
75	400
76	210
77	190
78	30
79	40
81	150
82	330
83	921
84	651
85	300
86	30
95	70
96	230
97	901
98	450
99	70
104	160
105	120
110	220
111	1852
112	501
113	470
114	40
121	40
124	80
125	380
126	190
127	20
133	40
135	40
138	50
139	9999
140	921
141	3203
142	250
153	60
154	340
155	40
156	330
157	3453
158	370
159	1181
160	80
182	1772
183	260
199	280
200	30
211	30
