Mass Spectrum: 4-Chlorobenzoic acid, undec-2-enyl ester
Formula: C18 H25 Cl O2
Molecular weight: 308
Origin: Zaikin V.G., TIPS RAS, Moscow, Russia
m/z	RELATIVE INTENSITY
26	40
27	170
28	110
29	270
36	40
39	210
40	40
41	691
42	130
43	521
44	40
50	90
51	60
53	140
54	951
55	791
56	170
57	290
65	40
66	50
67	531
68	400
69	420
70	110
71	60
74	40
75	240
76	100
77	100
79	80
80	50
81	480
82	470
83	230
84	30
95	350
96	330
97	150
104	90
105	40
109	160
110	150
111	761
112	100
113	260
114	30
123	50
124	310
125	30
139	9999
140	661
141	2833
142	220
152	250
153	30
154	20
156	160
157	140
158	50
159	40
167	40
169	100
182	30
196	40
209	110
210	80
211	50
224	40
237	60
242	110
251	40
265	40
279	40
