Mass Spectrum: Trichloroacetic acid, 2-methyloct-5-yn-4-yl ester
Formula: C11 H15 Cl3 O2
Molecular weight: 284
Origin: Zaikin V.G., TIPS RAS, Moscow, Russia
m/z	RELATIVE INTENSITY
25	80
26	571
27	3954
28	50
29	4054
30	70
35	440
36	2673
37	270
38	1201
39	4484
40	1061
41	9999
42	771
43	7977
44	1441
45	80
47	390
48	90
49	150
50	551
51	1231
52	911
53	2763
54	400
55	4845
56	961
57	8558
58	290
59	40
61	50
62	110
63	440
64	150
65	2022
66	1331
67	3233
68	521
69	2102
70	230
71	130
73	80
74	70
75	140
76	70
77	2853
78	621
79	7877
80	4575
81	8678
82	1441
83	1371
84	551
85	541
86	70
87	50
89	80
91	2653
92	420
93	6015
94	881
95	1031
96	260
97	541
98	400
99	90
101	90
103	100
104	30
105	611
106	90
107	5384
108	480
109	150
110	751
111	130
112	470
113	30
114	60
115	60
117	2893
119	2713
121	1131
122	490
123	1331
124	100
125	130
127	40
129	50
133	120
135	80
137	50
139	430
141	60
147	30
151	30
156	50
158	60
163	70
165	40
177	40
191	110
193	300
195	120
206	40
241	220
243	210
245	50
249	190
251	130
267	60
