Mass Spectrum: Octanoic acid, undec-2-enyl ester
Formula: C19 H36 O2
Molecular weight: 296
Origin: Zaikin V.G., TIPS RAS, Moscow, Russia
m/z	RELATIVE INTENSITY
26	130
27	490
28	360
29	901
38	30
39	521
40	110
41	2052
42	470
43	2372
44	160
45	40
51	30
52	30
53	270
54	1822
55	2813
56	551
57	6976
58	330
59	110
60	330
61	50
65	60
66	120
67	1391
68	1131
69	1461
70	340
71	370
72	120
73	240
77	50
79	180
80	140
81	1241
82	1391
83	1502
84	390
85	280
86	70
87	80
89	30
93	40
94	40
95	891
96	1121
97	1231
98	260
99	60
100	120
101	130
107	40
109	861
110	561
111	280
112	40
113	70
114	170
115	70
123	220
124	961
125	370
126	50
127	9999
128	881
129	70
137	40
141	240
142	90
143	100
144	120
145	320
151	40
152	561
153	100
155	180
156	80
168	40
169	310
170	641
171	80
184	50
197	320
198	180
199	100
211	50
212	70
225	981
226	150
239	190
240	40
253	380
254	60
267	210
268	30
296	390
297	70
