Mass Spectrum: 2-Furoic acid, but-3-yn-2-yl ester
Formula: C9 H8 O3
Molecular weight: 164
Origin: Zaikin V.G., TIPS RAS, Moscow, Russia
m/z	RELATIVE INTENSITY
26	130
27	671
28	30
29	90
37	120
38	350
39	1201
40	110
41	140
42	40
43	80
44	150
49	40
50	290
51	470
52	480
53	1341
54	60
55	230
56	30
65	80
66	90
67	200
68	200
69	160
77	60
78	90
79	70
84	290
91	2452
92	490
93	150
94	110
95	9999
96	541
97	50
105	450
106	30
107	130
108	50
112	1261
113	320
119	621
120	70
121	30
122	40
136	110
149	30
164	581
165	50
