Mass Spectrum: 4-Fluorobenzoic acid, tridec-2-ynyl ester
Formula: C20 H27 F O2
Molecular weight: 318
Origin: Zaikin V.G., TIPS RAS, Moscow, Russia
m/z	RELATIVE INTENSITY
27	60
28	40
29	120
39	80
41	270
42	50
43	270
51	30
52	70
53	80
54	50
55	230
56	60
57	80
65	50
66	50
67	170
68	30
69	90
70	30
75	70
77	90
78	30
79	240
80	60
81	120
82	30
83	30
91	100
93	140
94	80
95	470
96	70
97	30
107	50
108	40
109	30
121	50
123	9999
124	641
125	40
135	40
140	40
141	80
151	30
191	120
192	70
