Mass Spectrum: 4-Cyanobenzoic acid, tridec-2-ynyl ester
Formula: C21 H27 N O2
Molecular weight: 325
Origin: Zaikin V.G., TIPS RAS, Moscow, Russia
m/z	RELATIVE INTENSITY
26	30
27	110
28	80
29	210
39	130
40	30
41	490
42	90
43	521
44	30
50	50
51	110
52	130
53	140
54	100
55	440
56	120
57	170
65	80
66	90
67	330
68	80
69	210
70	60
71	60
75	80
76	70
77	160
78	50
79	480
80	150
81	290
82	110
83	120
85	30
91	170
92	30
93	320
94	210
95	310
96	90
97	70
99	40
102	661
103	160
104	30
105	40
107	140
108	150
109	100
110	40
111	120
113	40
121	200
122	50
123	40
124	40
130	9999
131	821
132	50
135	150
136	50
137	50
145	30
147	60
148	120
149	80
151	90
152	40
158	40
177	130
178	60
185	30
195	180
198	210
199	130
200	30
201	20
