Mass Spectrum: 2-Fluorobenzoic acid, but-3-yn-2-yl ester
Formula: C11 H9 F O2
Molecular weight: 192
Origin: Zaikin V.G., TIPS RAS, Moscow, Russia
m/z	RELATIVE INTENSITY
26	50
27	350
28	70
38	30
39	50
43	30
44	80
50	260
51	290
52	350
53	1021
54	40
68	70
69	230
70	40
74	80
75	671
76	80
77	30
93	30
94	120
95	1321
96	210
97	50
123	9999
124	671
125	40
127	30
133	230
140	220
141	230
146	60
147	190
149	70
164	50
192	611
193	60
