Mass Spectrum: 2,6-Difluorobenzoic acid, 2-tridecyl ester
Formula: C20 H30 F2 O2
Molecular weight: 340
Origin: Zaikin V.G., TIPS RAS, Moscow, Russia
m/z	RELATIVE INTENSITY
26	50
27	130
28	110
29	290
39	130
40	30
41	781
42	270
43	1011
44	80
45	30
53	50
54	150
55	1121
56	881
57	1031
58	70
63	190
67	210
68	240
69	1041
70	961
71	521
81	140
82	360
83	1041
84	671
85	280
93	30
94	50
95	70
96	260
97	1111
98	480
99	60
110	160
111	681
112	340
113	671
114	170
124	80
125	350
126	210
138	80
139	200
140	300
141	9999
142	721
143	50
153	80
154	240
156	220
157	30
158	260
159	4515
160	340
161	40
182	1762
183	240
185	90
199	150
