Mass Spectrum: 2-Chlorobenzoic acid, 4-tetradecyl ester
Formula: C21 H33 Cl O2
Molecular weight: 352
Origin: Zaikin V.G., TIPS RAS, Moscow, Russia
m/z	RELATIVE INTENSITY
26	60
27	170
28	120
29	300
39	140
40	30
41	831
42	240
43	1011
44	150
50	90
51	60
53	50
54	160
55	1081
56	701
57	981
58	60
65	30
67	220
68	190
69	971
70	821
71	531
72	30
74	30
75	290
76	170
77	150
78	30
79	30
81	160
82	350
83	1031
84	661
85	320
86	40
95	80
96	250
97	1061
98	460
99	80
104	140
105	110
109	30
110	170
111	1752
112	490
113	400
114	40
121	40
124	140
125	420
126	260
127	30
138	60
139	9999
140	901
141	3083
142	240
152	40
153	120
154	200
156	330
157	3904
158	400
159	1251
160	90
167	40
168	220
169	50
196	1782
197	280
211	30
213	300
214	40
