Mass Spectrum: 2-Chlorobenzoic acid, but-3-yn-2-yl ester
Formula: C11 H9 Cl O2
Molecular weight: 208
Origin: Zaikin V.G., TIPS RAS, Moscow, Russia
m/z	RELATIVE INTENSITY
26	50
27	330
28	20
38	50
39	50
43	20
44	70
49	30
50	400
51	350
52	280
53	1071
54	50
61	20
65	30
69	70
73	30
74	150
75	891
76	260
77	150
84	30
85	110
87	40
104	40
110	30
111	1301
112	190
113	450
114	70
127	90
128	210
129	571
130	60
139	9999
140	731
141	3063
142	230
145	130
149	100
151	30
156	390
157	280
158	150
159	80
163	50
165	30
173	120
208	721
209	70
210	240
