Mass Spectrum: (Phenylthio)acetic acid, pentyl ester
Formula: C13 H18 O2 S
Molecular weight: 238
Origin: Zaikin V.G., TIPS RAS, Moscow, Russia
m/z	RELATIVE INTENSITY
26	70
27	270
28	10
29	511
39	340
40	40
41	701
42	410
43	2613
44	220
45	1642
46	90
47	80
50	110
51	400
52	50
53	40
55	300
56	30
57	60
58	30
63	50
65	501
66	130
69	350
70	100
71	300
74	30
75	30
76	40
77	711
78	310
79	300
82	50
83	30
84	50
91	200
94	40
97	40
105	40
108	150
109	1171
110	891
111	110
112	30
115	280
121	320
122	110
123	9999
124	1512
125	531
126	100
150	30
151	180
168	4014
169	440
170	220
238	6495
239	1001
240	380
241	40
