Mass Spectrum: 4-Bromobutanoic acid, 2,7-dimethyloct-7-en-5-yn-4-yl ester
Formula: C14 H21 Br O2
Molecular weight: 300
Origin: Zaikin V.G., TIPS RAS, Moscow, Russia
m/z	RELATIVE INTENSITY
25	30
26	260
27	1231
28	20
29	661
37	80
38	200
39	1912
40	521
41	7747
42	851
43	2392
44	360
45	140
49	30
50	280
51	791
52	440
53	741
54	70
55	1161
56	180
57	511
58	40
60	400
61	30
62	90
63	380
64	250
65	1181
66	561
67	981
68	360
69	891
70	160
71	60
74	60
75	80
76	110
77	2583
78	681
79	2072
80	671
81	2192
82	631
83	290
84	150
85	180
86	40
87	120
89	140
90	120
91	5214
92	2082
93	2442
94	450
95	3393
96	991
97	480
98	40
102	40
103	380
104	250
105	2312
106	430
107	1071
108	571
109	7597
110	4464
111	450
112	30
115	170
116	50
117	521
118	120
119	8007
120	921
121	2553
122	140
123	3303
124	1141
125	110
127	40
131	40
133	781
134	1131
135	470
136	230
137	1942
138	220
148	230
149	6425
150	360
151	6305
152	2803
153	300
154	30
155	40
163	50
165	130
166	190
172	60
177	40
179	440
180	50
193	110
199	30
215	30
217	40
221	50
227	320
228	40
229	130
231	50
243	120
244	80
245	130
246	70
255	40
257	9999
258	1181
259	9709
260	1141
261	100
285	30
287	30
300	440
301	70
302	440
303	60
