Mass Spectrum: 5-Bromovaleric acid, heptadecyl ester
Formula: C22 H43 Br O2
Molecular weight: 418
Origin: Zaikin V.G., TIPS RAS, Moscow, Russia
m/z	RELATIVE INTENSITY
25	30
26	260
27	711
28	20
29	1221
31	30
36	40
37	30
38	50
39	661
40	200
41	3193
42	1141
43	5154
44	330
45	90
50	40
51	50
52	40
53	290
54	991
55	8377
56	3554
57	6656
58	310
59	280
60	40
65	30
66	110
67	1241
68	1722
69	5454
70	3483
71	3844
72	200
73	741
74	50
77	40
79	210
80	310
81	941
82	3063
83	7236
84	2633
85	2633
86	160
87	60
91	20
93	30
94	30
95	531
96	1381
97	6025
98	1832
99	691
100	300
101	5434
102	480
103	230
107	100
109	330
110	661
111	3363
112	1321
113	380
115	50
123	120
124	400
125	1722
126	901
127	260
129	40
135	1471
136	70
137	1512
138	340
139	721
140	621
141	180
152	190
153	370
154	480
155	130
157	290
162	70
163	2212
164	190
165	2152
166	240
167	230
168	340
169	100
171	40
179	40
180	1932
181	9999
182	2573
183	9729
184	511
185	40
191	40
193	40
194	50
195	80
196	160
197	50
210	1031
211	190
221	40
223	40
236	350
237	40
238	1471
239	310
240	30
253	30
255	30
283	701
284	120
309	30
311	50
321	50
339	300
340	60
