Mass Spectrum: 2-Triisobutylsilyloxybut-3-yne
Formula: C16 H32 O Si
Molecular weight: 268
Origin: Zaikin V.G., TIPS RAS, Moscow, Russia
m/z	RELATIVE INTENSITY
26	40
27	110
28	30
29	90
38	80
39	220
40	60
41	430
42	80
43	180
44	110
45	591
46	30
47	260
50	40
51	40
52	50
53	140
54	40
55	210
56	130
57	130
58	50
59	320
60	90
61	1131
62	70
63	50
67	90
68	30
69	641
70	70
71	220
72	20
73	180
74	110
75	140
77	50
79	40
81	30
83	420
84	60
85	450
86	50
87	150
89	40
95	150
97	170
98	110
99	2723
100	280
101	270
102	20
103	110
109	200
110	30
111	971
112	260
113	1081
114	110
115	60
125	140
126	30
127	90
129	250
130	30
139	70
141	60
143	40
153	60
155	9999
156	1361
157	410
158	30
159	40
197	50
211	1251
212	210
213	50
