Mass Spectrum: l-Cysteine, N,S-bis(capryloyl)-, methyl ester
Formula: C20 H37 N O4 S
Molecular weight: 387
Origin: Zaikin V.G., TIPS RAS, Moscow, Russia
m/z	RELATIVE INTENSITY
26	100
27	340
28	10
29	591
30	60
36	50
39	310
40	90
41	1532
42	480
43	2242
44	490
45	130
46	50
47	30
51	30
53	100
54	90
55	1461
56	310
57	6526
58	360
59	280
60	811
61	50
67	350
68	90
69	360
70	260
71	210
72	110
73	90
74	150
75	230
76	1231
77	100
78	70
79	70
80	30
81	170
82	140
83	350
84	220
85	160
86	280
87	180
88	1311
89	250
90	60
91	40
93	30
95	80
96	60
97	210
98	260
99	60
100	80
101	781
102	861
103	100
107	60
109	420
110	60
111	150
112	80
113	30
114	50
115	20
116	30
117	90
118	220
119	110
120	30
123	30
124	50
125	100
126	130
127	4555
128	420
129	40
130	70
131	130
133	70
134	1832
135	681
136	911
137	80
138	50
140	100
141	30
142	30
143	130
144	9999
145	1051
146	90
152	60
154	30
156	40
158	80
159	130
162	100
168	160
169	30
170	60
172	110
176	150
177	2533
178	320
179	150
182	30
183	90
184	120
186	290
187	30
190	621
191	100
192	40
195	30
196	120
200	60
202	2392
203	310
204	190
205	90
210	20
214	300
215	340
216	190
217	30
218	80
219	450
220	50
227	120
228	1061
229	180
230	110
232	110
242	100
243	50
244	531
245	80
246	80
260	3413
261	5665
262	1271
263	380
264	50
270	340
271	60
303	40
316	30
328	250
329	50
330	30
356	120
357	30
387	120
388	70
