Mass Spectrum: 2-Fluorobenzoic acid, phenyl ester
Formula: C13 H9 F O2
Molecular weight: 216
Origin: Zaikin V.G., TIPS RAS, Moscow, Russia
m/z	RELATIVE INTENSITY
28	10
38	30
39	170
50	80
51	110
63	60
65	180
66	40
68	40
69	80
74	60
75	511
76	50
77	50
93	50
94	240
95	1652
96	140
122	30
123	9999
124	661
125	40
216	531
217	80
