Mass Spectrum: 4-Nitrobenzoic acid, pent-2-en-4-ynyl ester
Formula: C12 H9 N O4
Molecular weight: 231
Origin: Zaikin V.G., TIPS RAS, Moscow, Russia
m/z	RELATIVE INTENSITY
26	50
27	80
28	40
30	100
37	40
38	140
39	901
40	30
44	180
49	30
50	711
51	240
52	90
53	150
62	110
63	671
64	521
65	1491
66	90
74	230
75	501
76	1241
77	180
78	30
79	30
81	741
82	40
92	871
93	80
103	80
104	1962
105	190
109	140
115	50
120	941
121	190
122	80
127	100
128	80
134	190
137	40
139	40
150	9999
151	821
152	80
155	70
156	30
167	100
172	80
201	20
231	100
