Mass Spectrum: l-Phenylalanine, N-(3-trifluoromethylbenzoyl)-, methyl ester
Formula: C18 H16 F3 N O3
Molecular weight: 351
Origin: Zaikin V.G., TIPS RAS, Moscow, Russia
m/z	RELATIVE INTENSITY
26	10
27	20
29	10
31	10
36	10
39	50
41	20
44	50
50	60
51	60
52	10
57	10
59	30
60	10
62	10
63	40
64	10
65	190
66	10
69	10
74	20
75	80
76	40
77	90
78	30
85	10
89	50
90	40
91	1141
92	190
93	10
94	10
95	170
96	20
99	10
102	50
103	130
104	60
105	10
107	40
116	20
117	110
118	90
119	60
120	10
121	20
125	130
126	190
127	30
128	10
130	50
131	1211
132	130
133	10
134	20
143	20
144	110
145	2883
146	280
147	30
154	40
155	20
161	591
162	6966
163	731
164	60
165	10
170	10
171	10
172	50
173	9999
174	771
175	40
178	30
189	60
190	20
200	10
229	10
245	60
246	10
260	60
290	10
291	50
292	761
293	140
294	10
320	30
332	180
333	30
351	10
