Mass Spectrum: l-Proline, N-(p-anisoyl)-, methyl ester
Formula: C14 H17 N O4
Molecular weight: 263
Origin: Zaikin V.G., TIPS RAS, Moscow, Russia
m/z	RELATIVE INTENSITY
28	10
39	40
41	100
42	40
44	40
50	30
51	30
63	80
64	170
65	30
68	40
69	30
76	80
77	601
78	60
79	30
92	511
93	40
102	60
104	60
107	290
108	30
120	40
128	80
133	30
135	9999
136	751
137	60
177	30
204	1922
205	240
231	50
232	30
263	470
264	80
