Mass Spectrum: l-Proline, N-(5-chlorovaleryl)-, methyl ester
Formula: C11 H18 Cl N O3
Molecular weight: 247
Origin: Zaikin V.G., TIPS RAS, Moscow, Russia
m/z	RELATIVE INTENSITY
26	30
27	150
28	50
29	140
36	50
39	110
40	30
41	310
42	150
43	120
44	60
53	70
54	30
55	611
56	60
59	60
63	40
68	250
69	150
70	9999
71	420
82	30
83	50
91	230
93	70
96	30
112	40
119	120
121	40
124	30
128	250
130	120
152	60
188	1822
189	190
190	581
191	60
212	521
213	60
247	70
