Mass Spectrum: 1-Trihexylsilyloxyundec-2-ene
Formula: C29 H60 O Si
Molecular weight: 452
Origin: Zaikin V.G., TIPS RAS, Moscow, Russia
m/z	RELATIVE INTENSITY
26	50
27	100
28	30
29	70
39	110
40	70
41	290
42	130
43	230
44	60
45	80
47	90
53	30
54	70
55	270
56	150
57	100
59	140
61	230
67	110
68	30
69	120
70	30
71	70
73	200
74	30
75	290
79	20
81	80
83	200
84	50
85	320
86	30
87	230
89	120
95	80
97	70
99	250
100	30
101	581
102	50
103	50
109	40
111	80
113	871
114	110
115	410
116	40
125	20
127	150
129	200
131	821
132	90
133	30
141	130
143	40
145	50
151	30
155	130
157	60
169	130
171	210
172	30
183	90
185	290
186	40
197	120
199	1161
200	190
201	50
211	30
213	30
215	270
216	40
225	30
229	30
241	30
253	40
255	30
283	9999
284	2152
285	551
286	70
367	2252
368	671
369	170
