Mass Spectrum: 5-Bromovaleric acid, 2-adamantyl ester
Formula: C15 H23 Br O2
Molecular weight: 314
Origin: Zaikin V.G., TIPS RAS, Moscow, Russia
m/z	RELATIVE INTENSITY
26	40
27	140
28	60
29	170
36	40
39	160
40	30
41	370
42	70
43	100
44	50
51	30
53	140
54	60
55	961
56	541
57	70
65	70
66	130
67	521
68	50
69	100
70	50
73	40
77	310
78	591
79	1291
80	480
81	420
82	90
83	70
91	821
92	3944
93	1702
94	170
95	70
101	50
104	20
105	591
106	470
107	380
108	40
117	40
119	751
120	90
133	150
134	9999
135	6596
136	651
137	240
148	1391
149	531
150	60
151	50
163	60
165	60
193	90
