Mass Spectrum: 3-Trifluoromethylbenzoic acid, 2-isopropoxyphenyl ester
Formula: C17 H15 F3 O3
Molecular weight: 324
Origin: Zaikin V.G., TIPS RAS, Moscow, Russia
m/z	RELATIVE INTENSITY
27	30
28	10
39	30
41	70
43	70
50	30
51	30
52	70
53	20
75	50
80	50
81	140
95	100
109	110
110	80
121	30
125	80
126	130
144	40
145	1752
146	160
155	60
173	9999
174	751
175	40
282	511
283	80
305	60
324	450
325	90
