Mass Spectrum: 5-Bromovaleric acid, 3-tridecyl ester
Formula: C18 H35 Br O2
Molecular weight: 362
Origin: Zaikin V.G., TIPS RAS, Moscow, Russia
m/z	RELATIVE INTENSITY
26	190
27	651
28	10
29	1191
30	30
31	50
39	470
40	100
41	2242
42	671
43	2472
44	260
45	50
51	30
53	220
54	410
55	5575
56	1892
57	2743
58	170
59	210
66	40
67	490
68	430
69	2072
70	1772
71	1562
72	120
73	230
79	140
80	160
81	400
82	851
83	2232
84	1241
85	1031
86	60
91	40
95	230
96	541
97	1952
98	791
99	430
100	120
101	1852
102	100
107	90
109	170
110	300
111	1131
112	571
113	340
119	60
123	30
124	220
125	661
126	470
127	120
135	2172
136	100
137	2142
138	180
139	260
140	180
141	60
152	60
153	340
154	420
155	40
162	30
163	9999
164	551
165	9739
166	521
169	320
170	30
178	170
179	40
180	430
181	1061
182	2953
183	1411
184	70
193	60
195	30
199	150
221	300
223	310
225	360
226	50
304	20
306	20
333	60
335	60
