Mass Spectrum: 4-Cyanobenzoic acid, 2,6-dimethylnon-1-en-3-yn-5-yl ester
Formula: C19 H21 N O2
Molecular weight: 295
Origin: Zaikin V.G., TIPS RAS, Moscow, Russia
m/z	RELATIVE INTENSITY
26	40
27	140
28	50
29	130
39	230
40	60
41	480
42	60
43	531
44	80
50	120
51	210
52	100
53	130
55	210
57	40
63	70
64	30
65	190
66	90
67	120
69	260
70	30
71	160
74	40
75	190
76	170
77	440
78	270
79	290
80	40
81	110
82	130
83	80
91	701
92	180
93	260
94	50
95	270
96	30
101	40
102	1622
103	460
104	80
105	410
106	430
107	180
108	30
109	80
115	40
117	70
119	521
120	150
121	50
123	180
124	60
130	9999
131	921
132	60
133	621
134	60
136	210
137	110
147	230
148	360
149	50
165	170
180	30
196	40
197	30
224	70
225	100
238	40
252	450
253	120
280	60
