Mass Spectrum: 2-Chlorobenzoic acid, 2-pentadecyl ester
Formula: C22 H35 Cl O2
Molecular weight: 366
Origin: Zaikin V.G., TIPS RAS, Moscow, Russia
m/z	RELATIVE INTENSITY
26	110
27	280
28	240
29	611
38	90
39	310
40	70
41	1772
42	480
43	2282
44	210
45	50
50	190
51	130
52	30
53	120
54	330
55	2322
56	1311
57	2132
58	180
59	40
65	70
66	40
67	501
68	501
69	1912
70	1401
71	1071
72	50
74	80
75	581
76	320
77	320
78	60
79	80
80	30
81	350
82	751
83	1902
84	1011
85	701
86	30
91	50
93	40
95	200
96	531
97	2122
98	721
99	140
104	240
105	220
109	80
110	350
111	2943
112	751
113	651
114	60
115	30
121	100
122	30
123	50
124	170
125	651
126	360
127	50
133	50
135	30
138	150
139	9999
140	1091
141	3443
142	260
151	30
152	80
153	140
154	320
155	60
156	951
157	9428
158	1051
159	3203
160	230
166	90
167	120
168	170
181	70
182	290
183	150
185	30
210	1862
211	300
227	300
228	40
