Mass Spectrum: Isonicotinic acid, hexyl ester
Formula: C12 H17 N O2
Molecular weight: 207
Origin: Zaikin V.G., TIPS RAS, Moscow, Russia
m/z	RELATIVE INTENSITY
26	80
27	390
28	10
29	480
36	40
39	310
40	70
41	1191
42	1111
43	1341
44	120
50	350
51	1672
52	260
53	110
54	140
55	1582
56	3293
57	250
67	100
68	50
69	1241
70	90
76	40
77	130
78	3594
79	721
80	140
82	30
83	180
84	1622
85	120
96	40
105	120
106	7266
107	591
108	60
121	120
122	30
123	2262
124	9999
125	861
126	60
134	40
136	30
137	1491
138	120
150	671
151	380
152	40
162	30
164	2322
165	581
166	50
178	290
179	120
206	1271
207	511
208	50
