Mass Spectrum: 3-Fluorobenzoic acid, phenyl ester
Formula: C13 H9 F O2
Molecular weight: 216
Origin: Zaikin V.G., TIPS RAS, Moscow, Russia
m/z	RELATIVE INTENSITY
28	10
38	30
39	210
50	110
51	140
63	80
64	30
65	220
66	60
68	40
69	90
74	80
75	551
76	60
77	70
93	60
94	310
95	3133
96	230
122	30
123	9999
124	661
125	40
133	40
216	1031
217	150
