Mass Spectrum: 4-Bromobenzoic acid, phenyl ester
Formula: C13 H9 Br O2
Molecular weight: 276
Origin: Zaikin V.G., TIPS RAS, Moscow, Russia
m/z	RELATIVE INTENSITY
26	50
28	40
38	90
39	440
40	40
44	30
50	651
51	230
62	40
63	130
64	60
65	440
66	100
73	30
74	280
75	981
76	1241
77	290
80	60
82	60
93	80
94	320
104	280
105	70
115	80
129	30
131	30
139	50
141	50
154	40
155	1992
156	190
157	1932
158	150
183	9999
184	711
185	9729
186	681
187	40
276	571
277	80
278	561
279	80
