Mass Spectrum: 2-Dimethyloctylsilyloxyoct-3-ene
Formula: C18 H38 O Si
Molecular weight: 298
Origin: Zaikin V.G., TIPS RAS, Moscow, Russia
m/z	RELATIVE INTENSITY
27	60
28	30
29	80
39	140
40	40
41	390
42	90
43	250
44	30
45	80
47	100
53	100
54	120
55	561
56	100
57	40
58	60
59	1772
60	140
61	1021
62	60
63	40
65	40
67	280
68	210
69	420
70	60
71	50
72	50
73	450
74	150
75	9999
76	791
77	511
79	100
81	290
82	40
83	40
85	290
86	30
87	440
88	40
89	190
95	120
96	30
97	90
99	591
100	80
101	631
102	80
103	521
104	50
109	591
110	250
111	250
112	40
113	581
114	90
115	641
116	370
117	1151
118	120
119	70
125	40
127	761
128	160
129	2452
130	420
131	90
133	230
141	561
142	100
143	791
144	120
145	90
153	190
155	601
157	120
167	891
168	120
169	380
170	80
171	2603
173	1101
174	120
175	40
183	30
185	4024
186	761
187	1552
188	230
189	60
213	1081
214	200
215	60
223	210
225	90
228	100
241	4044
242	861
243	210
255	1031
256	240
257	60
269	100
283	2222
284	501
285	110
297	40
298	1031
299	250
300	60
