Mass Spectrum: 3-Bromobenzoic acid, 2,7-dimethyloct-7-en-5-yn-4-yl ester
Formula: C17 H19 Br O2
Molecular weight: 334
Origin: Zaikin V.G., TIPS RAS, Moscow, Russia
m/z	RELATIVE INTENSITY
26	110
27	430
28	110
29	270
37	40
38	90
39	651
40	170
41	1421
42	120
43	1121
44	180
49	40
50	601
51	501
52	210
53	380
54	30
55	470
56	80
57	230
62	50
63	220
64	140
65	661
66	200
67	430
68	140
69	220
70	30
73	30
74	220
75	801
76	1351
77	1592
78	400
79	1021
80	290
81	981
82	210
83	140
85	80
89	90
90	70
91	2963
92	1311
93	1021
94	180
95	250
96	220
97	40
102	30
103	230
104	561
105	851
106	200
107	280
108	80
109	841
110	80
115	120
116	30
117	290
118	60
119	5174
120	531
121	70
123	170
133	350
134	951
135	150
136	260
137	90
141	30
151	420
152	60
153	40
155	1942
156	200
157	1862
158	170
168	50
170	30
171	50
183	9999
184	741
185	9488
186	691
187	30
200	370
201	40
202	370
203	30
212	50
249	40
250	30
251	40
252	60
265	50
267	30
277	40
278	80
279	50
280	70
291	2462
292	350
293	2432
294	340
295	30
334	70
336	70
