Mass Spectrum: l-Phenylalanine, N-(2-fluorobenzoyl)-, methyl ester
Formula: C17 H16 F N O3
Molecular weight: 301
Origin: Zaikin V.G., TIPS RAS, Moscow, Russia
m/z	RELATIVE INTENSITY
28	10
39	40
44	40
50	50
51	60
63	30
65	140
75	240
76	40
77	80
78	30
89	40
90	30
91	621
92	120
94	80
95	1201
96	130
102	50
103	110
104	50
117	80
118	70
119	30
121	90
122	70
123	9999
124	651
125	40
130	30
131	851
132	100
139	40
140	30
144	30
161	410
162	5635
163	581
164	50
210	180
241	40
242	671
243	110
