Mass Spectrum: l-Alanine, N-(2-fluorobenzoyl)-, methyl ester
Formula: C11 H12 F N O3
Molecular weight: 225
Origin: Zaikin V.G., TIPS RAS, Moscow, Russia
m/z	RELATIVE INTENSITY
28	30
42	140
43	40
44	50
50	60
51	40
59	40
68	30
69	60
70	40
74	40
75	410
76	50
94	120
95	1261
96	150
102	60
122	60
123	9999
124	641
125	30
152	30
166	4865
167	430
194	40
225	50
