Mass Spectrum: trans-3-(Trifluoromethyl)cinnamic acid, octyl ester
Formula: C18 H23 F3 O2
Molecular weight: 328
Origin: Zaikin V.G., TIPS RAS, Moscow, Russia
m/z	RELATIVE INTENSITY
26	90
27	280
29	581
39	210
40	30
41	1281
42	671
43	1131
53	70
54	160
55	1461
56	1662
57	490
67	190
68	430
69	1592
70	1772
71	210
81	60
82	360
83	1271
84	1251
95	30
97	130
100	40
102	420
103	50
110	120
111	300
112	671
113	40
120	60
126	30
129	50
131	80
145	210
146	40
147	350
148	30
151	2422
152	360
153	40
168	40
169	210
170	280
171	2442
172	801
173	80
175	60
180	60
181	50
186	30
188	100
196	30
197	1091
198	390
199	9999
200	1181
201	90
215	1982
216	8618
217	7456
218	911
219	70
230	40
243	40
256	30
257	701
258	110
271	470
272	80
309	721
310	150
311	40
328	851
329	180
