Mass Spectrum: l-Phenylalanine, N-(m-toluoyl)-, methyl ester
Formula: C18 H19 N O3
Molecular weight: 297
Origin: Zaikin V.G., TIPS RAS, Moscow, Russia
m/z	RELATIVE INTENSITY
26	20
27	20
29	10
31	10
39	100
40	10
41	40
44	40
50	30
51	60
52	10
59	20
62	10
63	90
64	30
65	561
66	30
74	10
75	10
76	10
77	60
78	30
89	180
90	200
91	2853
92	310
93	20
102	30
103	90
104	50
105	20
116	20
117	90
118	150
119	9999
120	771
121	60
130	30
131	691
132	80
133	10
134	10
135	130
136	80
144	30
146	20
147	10
161	340
162	5494
163	581
164	50
165	10
175	10
178	50
179	10
206	70
236	10
237	30
238	410
239	70
265	10
266	30
297	120
298	20
