Mass Spectrum: 2,2-Dimethylpropanoic acid, tridec-2-ynyl ester
Formula: C18 H32 O2
Molecular weight: 280
Origin: Zaikin V.G., TIPS RAS, Moscow, Russia
m/z	RELATIVE INTENSITY
26	50
27	200
28	230
29	591
39	270
40	70
41	1151
42	170
43	591
44	50
51	60
52	160
53	220
54	150
55	601
56	220
57	9999
58	380
59	40
65	100
66	110
67	440
68	110
69	270
70	460
71	200
77	170
78	50
79	501
80	150
81	410
82	160
83	220
84	100
85	1091
86	60
91	170
92	30
93	290
94	140
95	420
96	140
97	230
98	50
103	100
105	30
107	130
108	70
109	130
110	50
111	931
112	90
113	30
114	30
121	120
122	30
123	40
125	130
127	30
135	70
136	30
138	50
140	30
149	30
152	170
153	220
154	90
167	30
178	30
195	80
196	60
224	50
