Mass Spectrum: 2-Furoic acid, hex-4-yn-3-yl ester
Formula: C11 H12 O3
Molecular weight: 192
Origin: Zaikin V.G., TIPS RAS, Moscow, Russia
m/z	RELATIVE INTENSITY
26	80
27	300
28	20
29	180
37	60
38	210
39	1311
40	170
41	701
42	30
43	100
44	120
50	110
51	270
52	240
53	901
54	80
55	140
57	40
63	70
65	310
66	200
67	280
68	90
69	561
77	601
78	160
79	3894
80	1732
81	681
82	50
84	40
91	60
92	30
93	50
94	70
95	9999
96	541
97	370
105	180
106	80
107	60
112	400
113	320
119	250
120	100
121	541
122	370
123	30
131	40
133	400
134	60
135	200
136	90
147	140
149	140
150	40
163	380
164	711
165	70
177	1231
178	120
192	80
