Mass Spectrum: l-Cysteine, N,S-bis(3-trifluoromethylbenzoyl)-, methyl ester
Formula: C20 H15 F6 N O4 S
Molecular weight: 479
Origin: Zaikin V.G., TIPS RAS, Moscow, Russia
m/z	RELATIVE INTENSITY
27	10
41	10
44	30
45	20
46	20
50	40
51	10
55	10
57	10
59	30
60	10
69	10
74	20
75	80
76	30
77	10
86	10
87	10
94	10
95	140
96	20
99	10
107	10
117	10
119	20
125	100
126	130
127	30
135	20
143	10
144	30
145	2202
146	190
151	40
154	20
159	10
171	30
172	40
173	9999
174	701
175	40
187	10
189	20
190	40
198	10
214	130
215	30
229	10
230	50
231	10
241	40
242	30
246	10
260	30
261	10
273	100
274	430
275	50
276	10
288	40
290	170
291	20
292	10
306	1011
307	140
308	60
362	601
363	100
364	10
420	320
421	70
422	20
446	10
448	20
460	150
461	30
462	10
479	10
