Mass Spectrum: 3-Trifluoromethylbenzoic acid, pent-2-en-4-ynyl ester
Formula: C13 H9 F3 O2
Molecular weight: 254
Origin: Zaikin V.G., TIPS RAS, Moscow, Russia
m/z	RELATIVE INTENSITY
28	30
38	40
39	280
44	40
50	100
51	70
52	30
53	30
62	40
63	210
64	140
65	340
69	30
74	30
75	130
76	40
81	70
95	220
96	20
109	40
125	140
126	100
127	70
144	40
145	2292
146	200
171	50
173	9999
174	751
175	50
190	50
235	80
254	120
