Mass Spectrum: 2-Trifluoromethylbenzoic acid, 2-bromo-4-fluorophenyl ester
Formula: C14 H7 Br F4 O2
Molecular weight: 362
Origin: Zaikin V.G., TIPS RAS, Moscow, Russia
m/z	RELATIVE INTENSITY
28	40
50	110
51	40
56	40
57	90
62	30
63	70
69	40
74	60
75	190
76	60
80	30
81	160
82	220
83	50
94	80
95	300
96	30
99	40
110	60
119	40
125	230
126	140
127	30
135	20
143	30
144	80
145	2793
146	220
161	190
163	190
172	20
173	9999
174	771
175	60
186	60
189	40
190	130
191	50
192	120
235	20
343	70
345	60
362	50
364	40
