Mass Spectrum: 4-Chlorobenzoic acid, 3-methylbut-2-enyl ester
Formula: C12 H13 Cl O2
Molecular weight: 224
Origin: Zaikin V.G., TIPS RAS, Moscow, Russia
m/z	RELATIVE INTENSITY
26	60
27	280
28	70
29	180
36	80
38	50
39	450
40	250
41	2002
42	190
43	50
44	90
50	340
51	220
52	50
53	731
54	80
55	80
57	40
61	20
65	70
66	50
67	1992
68	6085
69	3483
70	190
73	30
74	180
75	911
76	280
77	150
83	40
85	721
86	40
87	30
104	80
105	30
110	40
111	1852
112	250
113	621
114	70
139	9999
140	711
141	2913
142	230
145	40
156	290
157	150
158	100
159	50
165	30
181	30
189	30
195	110
197	30
224	280
225	30
226	90
