Mass Spectrum: o-Toluic acid, 4-pentadecyl ester
Formula: C23 H38 O2
Molecular weight: 346
Origin: Zaikin V.G., TIPS RAS, Moscow, Russia
m/z	RELATIVE INTENSITY
26	80
27	200
28	140
29	360
39	270
40	40
41	1131
42	270
43	1451
44	200
50	40
51	60
53	80
54	170
55	1411
56	621
57	1341
58	60
63	80
64	30
65	531
66	50
67	280
68	180
69	1011
70	591
71	741
72	40
77	140
79	100
81	190
82	250
83	831
84	390
85	450
86	30
89	180
90	360
91	2513
92	280
93	240
95	110
96	180
97	761
98	250
99	100
105	90
109	50
110	100
111	410
112	160
113	50
118	1972
119	8017
120	741
121	50
123	30
124	50
125	190
126	110
135	250
136	9999
137	2833
138	260
139	80
140	70
152	30
153	40
154	30
167	30
182	60
191	30
210	370
211	60
227	130
