Mass Spectrum: o-Anisic acid, 3-tridecyl ester
Formula: C21 H34 O3
Molecular weight: 334
Origin: Zaikin V.G., TIPS RAS, Moscow, Russia
m/z	RELATIVE INTENSITY
26	50
27	130
28	100
29	270
39	130
41	651
42	140
43	721
44	80
50	40
51	100
53	50
54	70
55	671
56	280
57	470
63	60
64	90
65	70
67	130
68	70
69	440
70	250
71	180
76	70
77	1021
78	140
79	250
81	100
82	90
83	280
84	160
85	100
91	30
92	440
93	60
94	30
95	50
96	50
97	230
98	80
104	30
105	641
106	180
107	110
108	50
109	30
110	30
111	110
112	50
119	30
120	160
121	120
122	70
123	1952
124	160
125	60
126	30
133	80
134	290
135	9999
136	961
137	100
138	30
151	70
152	4324
153	4254
154	410
155	40
182	100
193	60
199	150
334	190
335	40
