Mass Spectrum: p-Toluic acid, 3-tetradecyl ester
Formula: C22 H36 O2
Molecular weight: 332
Origin: Zaikin V.G., TIPS RAS, Moscow, Russia
m/z	RELATIVE INTENSITY
26	50
27	150
28	120
29	310
39	190
40	30
41	771
42	180
43	851
44	40
50	30
51	40
53	50
54	120
55	871
56	490
57	691
58	30
63	60
65	410
66	40
67	200
68	170
69	771
70	601
71	340
72	40
77	70
79	40
81	140
82	260
83	691
84	430
85	220
89	120
90	150
91	1942
92	230
93	270
95	80
96	180
97	751
98	280
99	40
105	40
107	50
109	30
110	100
111	460
112	210
118	70
119	9999
120	911
121	60
124	60
125	230
126	140
134	60
135	50
136	771
137	6485
138	621
139	120
140	90
153	50
154	50
167	70
168	130
177	30
194	20
196	971
197	140
213	190
303	20
