Mass Spectrum: 2,7-Dimethyl-4-trihexylsilyloxyoct-7-en-5-yne
Formula: C28 H54 O Si
Molecular weight: 434
Origin: Zaikin V.G., TIPS RAS, Moscow, Russia
m/z	RELATIVE INTENSITY
28	10
39	40
41	110
42	40
43	110
45	40
47	60
55	90
56	70
57	50
59	130
61	110
69	50
71	70
73	150
75	140
77	70
79	60
81	30
83	120
84	30
85	310
86	30
87	100
89	50
91	110
92	30
93	90
95	310
96	50
97	170
98	30
99	110
101	160
105	50
107	50
109	360
110	50
111	220
112	40
113	370
114	40
115	270
116	30
119	60
121	80
123	410
124	120
125	280
126	40
127	60
129	60
131	190
133	40
135	110
136	20
137	831
138	150
139	130
141	30
143	90
147	30
149	110
151	310
152	60
153	70
163	30
165	70
167	90
177	110
179	641
180	130
181	220
182	40
195	30
197	40
199	290
200	50
209	751
210	140
211	40
215	70
221	90
222	30
223	40
227	320
228	50
263	200
264	60
265	9999
266	2182
267	581
268	70
283	230
284	50
293	90
311	50
349	1081
350	801
351	220
352	50
377	90
378	30
419	40
434	40
