Mass Spectrum: 3-Chloro-1-(dichloromethyl)dimethylsilyloxyprop-2-ene
Formula: C6 H11 Cl3 O Si
Molecular weight: 232
Origin: Zaikin V.G., TIPS RAS, Moscow, Russia
m/z	RELATIVE INTENSITY
25	10
26	160
27	300
28	40
29	150
30	10
31	30
35	140
36	981
37	60
38	370
39	1171
40	90
41	190
42	100
43	531
44	360
45	490
46	20
47	220
48	50
49	370
50	60
51	220
52	80
53	140
54	60
55	430
56	40
57	260
58	130
59	270
60	50
61	70
62	20
63	771
64	60
65	591
66	30
67	180
68	30
69	30
71	20
73	120
74	30
75	1692
76	110
77	490
78	270
79	310
80	140
81	120
82	20
83	170
84	20
85	1622
86	130
87	70
88	20
89	50
90	10
91	90
92	60
93	9999
94	711
95	3964
96	270
97	240
98	180
99	260
100	90
101	100
102	10
103	40
104	40
105	80
106	150
107	50
108	60
109	10
111	50
113	2032
114	110
115	1421
116	70
117	300
118	10
119	320
120	20
121	130
123	120
125	90
126	70
127	50
128	40
129	10
131	10
133	240
135	220
136	10
137	60
139	10
143	30
145	20
147	10
149	4034
150	390
151	1481
152	130
153	100
155	10
197	370
198	30
199	240
200	20
201	30
