Mass Spectrum: m-Toluic acid, 4-pentadecyl ester
Formula: C23 H38 O2
Molecular weight: 346
Origin: Zaikin V.G., TIPS RAS, Moscow, Russia
m/z	RELATIVE INTENSITY
26	110
27	280
28	200
29	501
38	30
39	350
40	50
41	1331
42	330
43	1562
44	160
50	50
51	70
52	30
53	90
54	230
55	1532
56	741
57	1201
58	70
63	100
64	30
65	601
66	60
67	330
68	250
69	1111
70	761
71	571
72	30
77	120
79	80
81	230
82	380
83	1041
84	531
85	330
86	30
89	160
90	190
91	2753
92	320
93	360
94	30
95	130
96	270
97	1001
98	350
99	80
105	60
109	50
110	160
111	631
112	250
113	30
118	80
119	9999
120	901
121	60
124	90
125	310
126	170
134	90
135	90
136	631
137	4034
138	380
139	140
140	120
152	30
153	60
154	50
167	60
168	40
182	110
191	30
210	891
211	130
227	110
