Mass Spectrum: 4-Bromobutanoic acid, 3-chloroprop-2-enyl ester
Formula: C7 H10 Br Cl O2
Molecular weight: 240
Origin: Zaikin V.G., TIPS RAS, Moscow, Russia
m/z	RELATIVE INTENSITY
26	160
27	470
28	40
29	170
35	30
37	50
38	240
39	1782
40	200
41	3233
42	1151
43	290
44	200
45	150
49	541
50	30
51	160
52	30
53	30
55	310
56	50
57	150
60	120
61	120
62	100
63	60
64	30
68	60
69	150
70	50
71	30
73	90
74	140
75	5034
76	260
77	1662
78	80
79	240
80	240
81	150
82	250
83	60
85	911
86	50
87	70
89	100
91	721
92	30
93	310
95	180
97	40
99	60
101	60
105	30
107	160
109	80
114	70
119	50
121	2142
122	140
123	2162
124	140
125	210
134	30
143	70
148	30
149	9999
150	511
151	9869
152	450
153	60
155	50
165	260
167	260
205	2422
206	190
207	2442
208	190
240	20
242	30
