Mass Spectrum: 1-Butyldimethylsilyloxy-3-chloroprop-2-ene
Formula: C9 H19 Cl O Si
Molecular weight: 206
Origin: Zaikin V.G., TIPS RAS, Moscow, Russia
m/z	RELATIVE INTENSITY
25	10
26	100
27	170
28	10
29	160
31	60
35	70
39	450
40	50
41	240
42	50
43	360
44	270
45	320
46	10
47	180
49	110
50	50
51	50
52	60
53	80
54	70
55	330
56	50
57	200
58	220
59	1702
60	150
61	390
62	20
63	190
64	30
65	270
66	20
67	110
68	20
69	60
70	10
71	140
72	60
73	410
74	70
75	1151
76	60
77	260
78	100
79	1351
80	100
81	490
82	20
83	110
84	10
85	1862
86	190
87	120
88	30
89	150
90	10
91	30
92	80
93	9999
94	791
95	4094
96	290
97	360
98	90
99	1311
100	120
101	60
103	30
105	330
106	20
107	400
108	30
109	250
110	10
111	110
112	10
113	80
114	60
115	1942
116	200
117	390
118	30
119	591
120	50
121	190
122	20
123	100
125	70
127	90
128	10
131	10
132	40
133	310
134	60
135	971
136	90
137	330
138	20
139	70
140	10
141	30
142	20
143	30
149	5625
150	751
151	2102
152	250
153	70
155	20
159	10
161	20
170	30
171	3383
172	521
173	150
174	10
175	10
191	681
192	90
193	250
194	20
