Mass Spectrum: Butanoic acid, 3-methylbut-2-enyl ester
Formula: C9 H16 O2
Molecular weight: 156
Origin: Zaikin V.G., TIPS RAS, Moscow, Russia
m/z	RELATIVE INTENSITY
26	130
27	1101
28	20
29	571
31	30
38	100
39	1161
40	551
41	4244
42	511
43	5565
44	360
45	80
50	60
51	110
52	90
53	1461
54	150
55	300
56	110
57	200
60	190
65	90
66	110
67	4575
68	8217
69	5454
70	390
71	9999
72	430
73	100
79	30
83	100
84	50
85	751
86	140
89	280
113	50
114	150
128	30
156	330
157	30
