Mass Spectrum: 4-Cyanobenzoic acid, 3-methyl-2-enyl ester
Formula: C13 H13 N O2
Molecular weight: 215
Origin: Zaikin V.G., TIPS RAS, Moscow, Russia
m/z	RELATIVE INTENSITY
26	60
27	340
28	10
29	310
37	30
38	50
39	551
40	310
41	2092
42	230
43	120
44	110
50	280
51	430
52	130
53	961
54	100
55	120
56	30
57	290
62	30
63	40
65	70
66	70
67	3043
68	6906
69	2513
70	130
74	100
75	581
76	440
77	60
83	60
85	781
86	40
99	30
101	80
102	2833
103	1191
104	110
129	40
130	9999
131	1562
132	120
147	370
148	170
170	30
200	60
214	240
215	200
216	30
