Mass Spectrum: l-Serine, N,O-bis(3-cyclopentylpropionyl)-, methyl ester
Formula: C20 H33 N O5
Molecular weight: 367
Origin: Zaikin V.G., TIPS RAS, Moscow, Russia
m/z	RELATIVE INTENSITY
25	50
26	360
27	771
28	70
29	821
30	200
31	130
33	100
36	150
37	50
38	160
39	1251
40	380
41	4174
42	1091
43	1411
44	1051
45	110
50	140
51	200
52	160
53	741
54	861
55	9999
56	841
57	701
58	120
59	741
60	4965
61	200
62	40
63	90
64	30
65	310
66	280
67	2943
68	931
69	3193
70	581
71	390
72	270
73	671
74	541
75	90
76	110
77	460
78	210
79	3313
80	1171
81	3554
82	831
83	2092
84	671
85	350
86	200
87	150
88	1542
89	721
90	190
91	511
92	120
93	200
94	230
95	1321
96	841
97	2362
98	350
99	240
100	150
101	4184
102	2523
103	390
104	110
105	200
106	230
107	7396
108	801
109	250
110	110
111	961
112	280
113	150
114	300
115	160
116	90
117	80
118	981
119	260
120	3143
121	270
122	200
123	330
124	1161
125	6786
126	691
127	100
128	130
129	70
130	200
131	2953
132	280
133	190
134	120
135	430
136	621
137	190
138	400
139	100
140	100
141	170
142	4184
143	6676
144	4014
145	490
146	210
147	631
148	90
149	60
150	60
151	60
152	140
153	60
154	90
155	60
156	2422
157	460
158	100
159	50
160	80
161	1832
162	4535
163	380
164	110
165	150
166	8317
167	1051
168	140
169	50
170	40
171	60
173	50
174	2462
175	460
176	90
177	90
178	3814
179	490
180	80
181	851
182	440
183	110
184	4394
185	521
186	60
187	50
188	30
189	30
191	90
192	30
193	460
194	410
195	140
196	130
197	150
198	100
200	60
201	30
202	30
203	7597
204	751
205	140
210	100
211	40
212	210
213	3634
214	531
215	200
216	2472
217	480
218	60
224	140
225	821
226	3554
227	551
228	70
230	70
241	30
242	1812
243	721
244	1481
245	200
246	50
255	70
256	50
257	40
260	40
266	280
267	100
270	70
284	20
285	1341
286	210
287	30
298	1612
299	300
300	40
307	30
308	290
309	60
319	40
324	40
336	330
337	80
355	40
367	120
368	70
