Mass Spectrum: 5-Chlorovaleric acid, 2-pentadecyl ester
Formula: C20 H39 Cl O2
Molecular weight: 346
Origin: Zaikin V.G., TIPS RAS, Moscow, Russia
m/z	RELATIVE INTENSITY
26	170
27	541
28	10
29	1071
36	180
38	90
39	470
40	110
41	2292
42	711
43	3013
44	230
45	170
49	30
50	30
51	40
53	230
54	470
55	5174
56	1862
57	3233
58	290
59	110
60	50
62	30
63	110
65	50
66	40
67	541
68	511
69	2262
70	1612
71	1902
72	100
73	250
77	40
79	80
80	30
81	400
82	891
83	2533
84	1201
85	1241
86	80
87	60
91	2032
92	100
93	641
94	40
95	250
96	651
97	2623
98	891
99	350
100	801
101	541
102	30
109	120
110	360
111	1552
112	631
113	200
118	60
119	9999
120	591
121	3323
122	180
123	50
124	220
125	861
126	470
127	150
133	40
134	350
135	180
136	531
137	3173
138	330
139	1101
140	330
141	170
147	50
152	90
153	210
154	220
155	80
161	30
163	531
164	30
165	180
166	90
167	160
168	280
169	70
181	90
182	380
183	60
188	20
191	30
206	40
210	1602
211	741
212	90
226	30
227	160
302	40
