Mass Spectrum: 3-Bromobenzoic acid. 3-methylbut-2-enyl ester
Formula: C12 H13 Br O2
Molecular weight: 268
Origin: Zaikin V.G., TIPS RAS, Moscow, Russia
m/z	RELATIVE INTENSITY
26	70
27	330
28	90
29	240
37	30
38	90
39	631
40	360
41	2903
42	280
43	170
44	140
49	30
50	741
51	260
52	80
53	1111
54	170
55	140
56	40
57	90
63	40
65	130
66	90
67	3243
68	9999
69	4775
70	280
73	40
74	300
75	1101
76	1391
77	330
78	50
79	50
80	110
81	40
82	110
83	70
84	30
85	1011
86	60
91	40
104	250
105	100
117	50
129	90
130	130
131	40
143	40
144	40
145	170
155	1872
156	220
157	1882
158	190
159	30
171	50
183	9078
184	781
185	9168
186	751
187	40
189	110
200	531
201	130
202	511
203	120
212	30
214	30
225	30
226	40
227	40
228	40
268	360
269	40
270	350
271	40
