Mass Spectrum: l-Phenylalanine, N-(2,3,4-trifluorobenzoyl)-, methyl ester
Formula: C17 H14 F3 N O3
Molecular weight: 337
Origin: Zaikin V.G., TIPS RAS, Moscow, Russia
m/z	RELATIVE INTENSITY
28	20
39	50
44	40
51	50
59	30
63	50
65	210
77	80
78	30
81	260
89	60
90	40
91	1271
92	190
102	50
103	130
104	60
112	50
117	100
118	80
119	40
130	80
131	2042
132	210
139	30
140	30
144	40
158	30
159	9999
160	621
161	511
162	6065
163	571
164	50
175	60
246	120
277	50
278	701
279	110
