Mass Spectrum: Hexanoic acid, 2,6-dimethylnon-1-en-3-yn-5-yl ester
Formula: C17 H28 O2
Molecular weight: 264
Origin: Zaikin V.G., TIPS RAS, Moscow, Russia
m/z	RELATIVE INTENSITY
26	160
27	691
28	340
29	861
37	30
38	70
39	781
40	210
41	2222
42	490
43	5815
44	370
45	40
50	100
51	270
52	190
53	450
54	80
55	1351
56	190
57	250
60	290
61	40
62	40
63	160
64	70
65	531
66	290
67	470
68	60
69	1021
70	320
71	5264
72	340
73	160
74	40
76	30
77	1391
78	581
79	1051
80	210
81	741
82	601
83	941
84	110
85	40
87	50
89	60
90	30
91	2232
92	691
93	1271
94	270
95	1692
96	490
97	230
98	160
99	9999
100	691
101	50
102	30
103	250
104	150
105	1562
106	1441
107	1221
108	210
109	2833
110	390
111	360
112	40
115	130
116	40
117	250
118	80
119	2122
120	631
121	360
122	110
123	1932
124	7216
125	771
126	60
128	30
131	80
133	2282
134	300
135	110
136	951
137	1331
138	250
139	40
141	70
147	160
148	1832
149	470
150	80
151	1281
152	180
153	30
164	30
165	1391
166	2352
167	360
168	40
175	30
179	50
181	70
193	821
194	260
195	40
207	80
221	3253
222	571
223	60
235	80
249	501
250	80
264	200
265	30
