Mass Spectrum: Pentafluorobenzoic acid, pent-2-en-4-ynyl ester
Formula: C12 H5 F5 O2
Molecular weight: 276
Origin: Zaikin V.G., TIPS RAS, Moscow, Russia
m/z	RELATIVE INTENSITY
26	30
27	100
28	10
29	40
31	60
37	40
38	180
39	1081
40	30
43	30
44	130
49	20
50	190
51	240
52	100
53	170
55	50
61	40
62	140
63	731
64	480
65	1341
66	80
69	60
73	30
74	30
75	30
79	120
80	30
81	2613
82	140
86	30
93	250
98	180
99	190
109	130
117	1071
118	80
137	60
148	180
149	50
167	1692
168	480
169	30
176	50
195	9999
196	711
197	40
200	30
212	80
213	40
231	30
247	60
276	120
