Mass Spectrum: Cyclopropanecarboxylic acid, oct-3-en-2-yl ester
Formula: C12 H20 O2
Molecular weight: 196
Origin: Zaikin V.G., TIPS RAS, Moscow, Russia
m/z	RELATIVE INTENSITY
26	40
27	200
28	60
29	150
38	30
39	551
40	130
41	1582
42	140
43	240
44	90
45	30
51	40
53	280
54	200
55	1231
56	100
57	60
65	60
66	50
67	581
68	1712
69	9999
70	450
71	240
77	60
79	150
80	30
81	1101
82	150
83	30
84	20
85	60
87	160
91	40
95	340
97	80
98	310
109	30
110	310
111	320
112	70
113	30
127	430
128	40
139	170
140	60
153	90
154	40
196	30
