Mass Spectrum: l-Proline, N-(4-fluorobenzoyl)-, methyl ester
Formula: C13 H14 F N O3
Molecular weight: 251
Origin: Zaikin V.G., TIPS RAS, Moscow, Russia
m/z	RELATIVE INTENSITY
27	30
28	40
39	40
41	160
42	70
44	50
50	40
68	80
69	80
74	20
75	290
76	30
94	90
95	1582
96	170
122	40
123	9999
124	631
125	30
128	80
165	40
192	3764
193	420
194	30
220	30
251	370
252	60
