Mass Spectrum: 4-Diphenylmethylsilyloxy-2-methyloct-5-yne
Formula: C22 H28 O Si
Molecular weight: 336
Origin: Zaikin V.G., TIPS RAS, Moscow, Russia
m/z	RELATIVE INTENSITY
26	60
27	110
28	40
29	100
39	180
40	40
41	320
42	60
43	250
45	240
50	80
51	110
52	60
53	180
54	20
55	70
56	30
57	50
59	30
61	60
63	30
65	80
67	40
69	40
75	60
76	40
77	480
78	260
79	170
81	90
85	30
91	370
92	60
93	260
95	40
102	40
103	60
104	30
105	771
106	100
107	90
113	40
115	130
117	50
118	40
119	350
120	80
121	310
122	50
123	80
127	40
128	160
129	210
130	40
131	90
132	50
135	90
137	2523
138	360
139	150
141	100
142	70
143	290
144	70
145	210
146	70
147	70
152	120
153	70
154	50
155	140
156	40
157	130
158	40
159	120
160	30
161	60
163	150
165	320
166	60
167	360
168	50
169	70
171	100
172	30
173	1962
174	370
175	290
176	40
177	40
179	40
180	180
181	641
182	120
183	190
184	40
185	60
186	20
187	170
188	30
189	30
191	70
193	110
194	30
195	681
196	160
197	9999
198	1882
199	1381
200	250
201	641
202	140
203	70
205	90
215	60
216	140
217	50
219	70
220	40
221	160
222	30
223	30
229	40
233	50
234	30
235	2763
236	621
237	190
241	30
243	70
245	30
247	60
249	120
250	30
251	1281
252	290
253	70
259	60
261	30
263	60
264	60
265	400
266	90
267	50
278	40
279	4384
280	3453
281	631
282	200
283	30
293	30
307	4024
308	1071
309	270
310	30
321	100
336	50
