Mass Spectrum: 2-Tributylsilyloxybut-3-yne
Formula: C16 H32 O Si
Molecular weight: 268
Origin: Zaikin V.G., TIPS RAS, Moscow, Russia
m/z	RELATIVE INTENSITY
26	40
27	80
28	30
29	80
39	60
40	10
41	150
42	20
43	80
44	20
45	290
46	10
47	240
48	10
49	10
50	10
51	20
52	20
53	70
54	30
55	200
56	60
57	60
58	20
59	190
60	40
61	330
62	20
63	10
67	30
68	20
69	170
70	20
71	100
72	20
73	150
74	60
75	110
76	10
77	10
79	10
81	90
82	20
83	591
84	70
85	280
86	30
87	60
88	20
89	10
93	10
95	80
96	10
97	150
98	110
99	681
100	70
101	130
102	10
103	100
107	10
109	390
110	50
111	1321
112	200
113	120
114	20
115	10
123	10
125	130
126	40
127	160
128	20
129	60
130	10
137	10
139	50
140	10
141	60
143	50
153	40
154	20
155	9999
156	1221
157	390
158	30
159	20
167	240
168	40
169	10
177	10
197	70
198	10
199	10
211	1271
212	230
213	60
