Mass Spectrum: 3-Trihehylsilyloxyhex-4-yne
Formula: C24 H48 O Si
Molecular weight: 380
Origin: Zaikin V.G., TIPS RAS, Moscow, Russia
m/z	RELATIVE INTENSITY
26	40
27	80
28	20
29	60
39	80
40	40
41	180
42	80
43	110
44	50
45	100
47	100
53	40
55	120
56	80
57	70
59	190
61	130
67	40
69	140
71	90
73	180
74	30
75	130
77	30
79	50
81	70
83	220
84	80
85	380
86	40
87	100
89	30
95	110
96	30
97	521
98	100
99	160
101	110
109	90
111	591
112	80
113	290
114	30
115	120
123	140
125	561
126	100
127	531
128	60
129	70
131	70
139	110
141	50
151	120
153	901
154	130
155	70
167	40
169	40
171	70
181	60
182	30
183	300
184	50
195	30
197	40
199	100
209	60
210	50
211	9999
212	1682
213	460
214	40
215	40
237	280
238	50
255	60
267	80
295	521
296	120
297	30
