Mass Spectrum: Pentafluorobenzoic acid, but-3-yn-2-yl ester
Formula: C11 H5 F5 O2
Molecular weight: 264
Origin: Zaikin V.G., TIPS RAS, Moscow, Russia
m/z	RELATIVE INTENSITY
26	50
27	460
31	40
38	40
39	60
41	120
43	170
44	120
49	30
50	280
51	450
52	1001
53	2112
54	100
68	30
69	420
73	40
74	30
77	30
79	70
86	30
93	300
98	200
99	150
105	50
117	1351
118	90
122	40
137	50
148	220
149	40
151	90
167	2002
168	531
169	90
170	40
176	50
187	40
188	350
189	40
192	80
193	40
195	9999
196	741
197	40
200	120
201	70
205	150
212	170
213	120
216	120
217	80
219	90
221	170
236	120
249	70
264	1171
265	130
