Mass Spectrum: Cyclohexyldimethylsilyloxybenzene
Formula: C14 H22 O Si
Molecular weight: 234
Origin: Zaikin V.G., TIPS RAS, Moscow, Russia
m/z	RELATIVE INTENSITY
26	40
27	50
28	10
29	30
39	90
41	140
43	90
45	100
47	40
51	90
53	40
54	50
55	100
59	290
61	60
65	50
67	70
75	380
76	40
77	400
78	80
79	60
81	100
83	50
85	30
91	350
92	30
95	270
96	30
97	50
109	80
121	260
122	30
123	90
135	290
136	40
137	1071
138	140
139	50
149	70
150	30
151	9999
152	2933
153	601
154	100
219	130
234	1632
235	340
236	90
