Mass Spectrum: 2-Triisobutylsilyloxyoct-3-ene
Formula: C20 H42 O Si
Molecular weight: 326
Origin: Zaikin V.G., TIPS RAS, Moscow, Russia
m/z	RELATIVE INTENSITY
27	60
28	20
29	60
39	180
40	50
41	430
42	80
43	140
44	70
45	220
47	220
53	70
54	70
55	460
56	130
57	110
58	40
59	571
60	110
61	2983
62	190
63	120
67	160
68	120
69	260
71	70
73	120
74	170
75	370
76	30
77	50
79	60
81	150
83	40
85	260
86	60
87	440
88	60
89	40
95	30
97	40
99	210
100	50
101	531
102	120
103	5955
104	601
105	240
109	30
110	70
111	130
113	180
114	80
115	150
117	751
118	70
127	110
128	30
129	70
131	60
141	40
142	30
143	380
144	100
145	30
155	240
156	50
157	1101
158	170
159	9999
160	1421
161	450
162	30
169	100
170	60
171	170
185	40
187	60
199	240
200	60
211	40
213	6065
214	1211
215	380
216	40
269	2943
270	841
271	480
272	90
