Mass Spectrum: Cyclopropanecarboxylic acid, 2,6-dimethylnon-1-en-3-yn-5-yl ester
Formula: C15 H22 O2
Molecular weight: 234
Origin: Zaikin V.G., TIPS RAS, Moscow, Russia
m/z	RELATIVE INTENSITY
26	60
27	140
28	40
29	100
38	40
39	470
40	160
41	1391
42	120
43	270
44	170
50	50
51	120
52	80
53	160
55	230
57	50
63	90
64	30
65	250
66	100
67	160
68	100
69	9999
70	511
71	100
77	661
78	270
79	460
80	60
81	170
82	160
83	70
85	50
89	30
91	1201
92	310
93	480
94	90
95	430
96	60
103	150
104	100
105	821
106	731
107	430
108	70
109	170
110	30
111	120
115	70
117	150
118	40
119	1011
120	300
121	150
122	60
123	450
124	551
125	50
131	50
133	1201
134	140
135	170
136	260
137	170
147	80
148	981
149	280
150	90
151	170
163	380
164	260
165	420
166	380
167	40
177	50
191	1592
192	270
193	30
205	120
219	270
220	40
234	70
