Mass Spectrum: l-Phenylalanine, N-(3-fluorobenzoyl)-, methyl ester
Formula: C17 H16 F N O3
Molecular weight: 301
Origin: Zaikin V.G., TIPS RAS, Moscow, Russia
m/z	RELATIVE INTENSITY
28	30
39	60
44	60
50	50
51	70
59	30
63	40
65	180
69	30
74	30
75	270
76	40
77	90
78	30
89	50
90	40
91	951
92	170
94	90
95	2192
96	200
102	50
103	130
104	60
117	100
118	80
119	40
121	80
122	60
123	9999
124	631
125	30
130	40
131	1131
132	120
139	60
140	30
144	40
161	521
162	7056
163	691
164	70
210	100
241	50
242	721
243	120
301	30
