Mass Spectrum: 4-Fluorobenzoic acid, 3-chloroprop-2-enyl ester
Formula: C10 H8 Cl F O2
Molecular weight: 214
Origin: Zaikin V.G., TIPS RAS, Moscow, Russia
m/z	RELATIVE INTENSITY
26	50
27	80
28	20
29	50
36	120
38	90
39	511
40	100
41	70
44	160
49	170
50	170
51	110
53	40
57	30
61	30
62	30
63	30
67	160
68	400
69	430
70	30
73	40
74	140
75	1682
76	110
77	310
85	60
91	130
93	60
94	170
95	2422
96	240
97	40
123	9999
124	811
125	50
133	140
134	50
135	170
140	80
141	40
151	50
169	50
179	1842
180	180
