Mass Spectrum: 2-Trifluoromethylbenzoic acid, 3,5-difluorophenyl ester
Formula: C14 H7 F5 O2
Molecular weight: 302
Origin: Zaikin V.G., TIPS RAS, Moscow, Russia
m/z	RELATIVE INTENSITY
28	50
50	130
51	110
57	100
63	80
69	70
74	70
75	340
76	80
81	80
82	40
94	40
95	410
96	40
99	70
100	30
101	360
102	70
113	70
119	60
125	290
126	150
127	30
129	60
130	180
143	40
144	90
145	3914
146	300
151	50
172	30
173	9999
174	821
175	50
283	170
