Mass Spectrum: m-Toluic acid, 2-pentadecyl ester
Formula: C23 H38 O2
Molecular weight: 346
Origin: Zaikin V.G., TIPS RAS, Moscow, Russia
m/z	RELATIVE INTENSITY
26	80
27	160
28	120
29	320
39	270
40	50
41	1121
42	280
43	1321
44	200
45	30
50	40
51	70
52	30
53	90
54	200
55	1461
56	781
57	1271
58	100
63	90
64	20
65	581
66	50
67	360
68	320
69	1201
70	821
71	651
72	30
77	140
78	30
79	100
80	60
81	300
82	511
83	1271
84	641
85	400
89	170
90	210
91	3023
92	400
93	591
94	60
95	180
96	370
97	1401
98	440
99	90
105	80
107	30
109	80
110	210
111	851
112	340
113	50
118	110
119	9999
120	1021
121	100
123	40
124	120
125	460
126	220
127	40
134	130
135	130
136	2072
137	9108
138	931
139	210
140	170
152	50
153	100
154	110
163	180
166	60
167	80
168	110
181	50
182	190
210	1652
211	310
227	200
