Mass Spectrum: l-Cysteine, N,S-bis(3-fluorobenzoyl)-, methyl ester
Formula: C18 H15 F2 N O4 S
Molecular weight: 379
Origin: Zaikin V.G., TIPS RAS, Moscow, Russia
m/z	RELATIVE INTENSITY
27	30
28	10
29	30
40	30
41	30
44	100
45	60
46	40
50	70
51	40
55	30
59	50
68	30
69	70
70	40
74	50
75	470
76	50
94	110
95	2783
96	280
109	30
121	40
122	50
123	9999
124	651
125	30
135	40
139	30
140	70
164	110
165	30
180	50
191	50
223	70
224	180
240	60
256	370
257	40
262	300
263	40
320	80
