Mass Spectrum: 1-Diphenylmethylsilyloxypent-2-en-4-yne
Formula: C18 H18 O Si
Molecular weight: 278
Origin: Zaikin V.G., TIPS RAS, Moscow, Russia
m/z	RELATIVE INTENSITY
26	50
27	30
28	20
39	320
43	110
44	30
45	280
50	100
51	160
52	80
53	150
61	40
63	70
65	511
66	30
67	40
69	30
74	40
76	50
77	400
78	230
79	120
85	50
89	30
91	320
92	40
93	190
95	60
98	200
99	50
102	40
103	80
104	30
105	1021
106	120
107	60
115	320
116	60
117	501
118	50
119	320
120	170
121	370
122	80
123	80
127	30
128	110
129	140
130	40
131	150
135	90
137	4244
138	551
139	240
140	40
141	1001
142	641
143	140
145	701
146	110
147	200
148	50
149	60
150	50
151	40
152	200
153	90
154	60
155	210
156	40
157	180
158	50
159	30
161	310
162	50
163	50
165	360
166	70
167	150
168	30
169	70
170	50
171	110
172	80
173	40
174	120
175	40
178	30
179	60
180	220
181	721
182	230
183	621
184	160
185	1111
186	190
187	210
188	30
191	30
193	130
194	30
195	621
196	150
197	9999
198	1852
199	1321
200	781
201	290
202	80
203	40
204	60
205	50
207	2282
208	480
209	130
211	60
215	70
217	110
218	300
219	90
221	40
223	50
225	70
231	40
233	350
234	100
235	50
237	80
239	40
245	270
246	60
247	70
248	90
249	30
250	20
259	30
260	40
261	100
263	5384
264	1241
265	320
266	40
277	571
278	611
279	170
280	30
