Mass Spectrum: 4-Butylbenzoic acid, 3-pentadecyl ester
Formula: C26 H44 O2
Molecular weight: 388
Origin: Zaikin V.G., TIPS RAS, Moscow, Russia
m/z	RELATIVE INTENSITY
26	90
27	210
28	130
29	340
36	50
39	220
40	40
41	971
42	220
43	1091
44	120
50	40
51	70
53	70
54	150
55	1181
56	541
57	1211
58	50
63	50
65	150
66	30
67	270
68	240
69	941
70	641
71	450
72	40
75	30
76	30
77	230
78	80
79	180
81	220
82	350
83	871
84	470
85	300
89	160
90	430
91	1672
92	490
93	70
95	130
96	270
97	941
98	310
99	70
103	140
104	100
105	310
106	30
107	270
109	60
110	160
111	591
112	230
113	40
115	80
116	30
117	70
118	330
119	150
123	210
124	100
125	330
126	170
127	30
131	230
132	40
133	260
134	40
135	701
136	911
137	210
138	60
139	230
140	110
141	30
149	90
150	30
151	50
152	80
153	90
154	80
159	80
160	30
161	9999
162	1211
163	110
167	50
168	40
176	70
177	60
178	1031
179	9829
180	1191
181	170
182	140
210	931
211	140
219	40
227	190
317	20
338	20
359	20
