Mass Spectrum: 1-(Dimethyldodecylsilyloxy)octadecane
Formula: C32 H68 O Si
Molecular weight: 496
Origin: Zaikin V.G., TIPS RAS, Moscow, Russia
m/z	RELATIVE INTENSITY
26	40
27	70
28	30
29	80
39	60
41	220
42	80
43	360
54	30
55	300
56	120
57	450
59	210
61	190
67	80
68	40
69	340
70	90
71	260
73	30
75	1061
76	70
77	70
81	70
82	50
83	460
84	60
85	180
87	50
89	450
90	30
95	60
96	30
97	470
98	50
99	100
101	150
109	30
111	240
112	30
113	60
115	130
125	90
127	30
129	70
139	30
143	40
157	30
199	30
213	40
227	100
229	40
241	50
255	40
311	100
313	50
325	30
327	9999
328	2513
329	641
330	100
481	1512
482	611
483	170
484	30
