Mass Spectrum: 2-Trifluoromethylbenzoic acid, 3-methylbut-2-enyl ester
Formula: C13 H13 F3 O2
Molecular weight: 258
Origin: Zaikin V.G., TIPS RAS, Moscow, Russia
m/z	RELATIVE INTENSITY
26	70
27	290
28	10
29	210
38	50
39	621
40	200
41	1652
42	140
43	30
44	70
49	70
50	200
51	130
52	40
53	611
54	80
55	80
57	120
63	30
65	40
66	40
67	1552
68	4254
69	2803
70	150
74	90
75	651
76	130
77	140
83	40
85	230
94	40
95	460
96	80
99	60
104	30
107	30
119	50
123	30
125	320
126	370
127	90
143	40
144	70
145	2723
146	290
151	190
154	591
155	50
171	30
173	9999
174	771
175	40
190	110
199	70
258	80
