Mass Spectrum: 4-Nitrobenzoic acid, 3,5-difluorophenyl ester
Formula: C13 H7 F2 N O4
Molecular weight: 279
Origin: Zaikin V.G., TIPS RAS, Moscow, Russia
m/z	RELATIVE INTENSITY
26	20
27	30
28	50
30	140
38	50
39	120
44	120
50	681
51	210
53	60
57	50
62	50
63	210
64	190
65	490
66	40
73	50
74	320
75	721
76	1582
77	170
81	120
82	50
91	30
92	1001
93	120
101	360
102	100
103	100
104	2472
105	240
109	90
113	50
120	751
121	300
122	90
129	60
130	240
134	170
137	90
150	9999
151	861
152	100
167	480
168	30
175	30
279	360
280	50
