Mass Spectrum: 3-Trifluoromethylbenzoic acid, phenyl ester
Formula: C14 H9 F3 O2
Molecular weight: 266
Origin: Zaikin V.G., TIPS RAS, Moscow, Russia
m/z	RELATIVE INTENSITY
28	10
38	30
39	220
50	120
51	110
57	30
63	60
65	220
66	40
69	30
74	50
75	190
76	60
77	60
93	30
94	120
95	310
99	30
119	30
125	230
126	190
143	30
144	70
145	3393
146	270
173	9999
174	731
175	40
247	300
248	40
266	721
267	110
