Mass Spectrum: l-Alanine, N-caproyl-, methyl ester
Formula: C10 H19 N O3
Molecular weight: 201
Origin: Zaikin V.G., TIPS RAS, Moscow, Russia
m/z	RELATIVE INTENSITY
26	50
27	280
28	10
29	350
30	40
31	30
36	40
39	190
40	50
41	631
42	501
43	1722
44	9999
45	270
53	40
54	30
55	521
56	110
57	140
58	541
59	280
68	40
69	160
70	410
71	831
72	50
83	30
84	50
85	150
86	511
87	70
88	180
98	200
99	781
100	80
102	651
103	200
104	531
112	80
113	340
114	30
126	90
127	30
140	40
142	1912
143	180
145	2793
146	200
158	180
159	30
169	30
170	110
172	110
201	60
202	30
