Mass Spectrum: trans-3-(Trifluoromethyl)cinnamic acid, tridecyl ester
Formula: C23 H33 F3 O2
Molecular weight: 398
Origin: Zaikin V.G., TIPS RAS, Moscow, Russia
m/z	RELATIVE INTENSITY
26	160
27	310
28	10
29	651
38	30
39	290
40	70
41	1602
42	521
43	2172
44	180
50	90
51	80
53	100
54	410
55	2432
56	1421
57	1812
58	70
63	30
66	50
67	571
68	801
69	2482
70	1491
71	781
72	30
74	40
75	100
76	60
77	60
79	50
81	360
82	1061
83	2513
84	1011
85	450
91	60
95	250
96	641
97	2072
98	651
99	120
100	60
101	90
102	420
103	100
109	130
110	290
111	1141
112	410
113	70
119	70
120	110
121	30
123	110
124	200
125	511
126	230
127	100
129	20
131	90
133	60
137	70
138	100
139	110
140	90
145	230
146	70
147	400
148	30
149	30
151	2352
152	360
153	150
154	300
155	30
159	160
160	30
168	60
169	210
170	420
171	2442
172	941
173	130
175	80
179	40
180	551
181	340
182	280
183	40
185	40
186	40
188	120
196	30
197	1301
198	420
199	9438
200	1081
201	110
211	30
212	30
214	40
215	2052
216	9368
217	9999
218	1231
219	120
221	30
225	40
230	60
239	140
243	40
244	30
257	961
258	140
271	901
272	150
347	130
348	30
379	40
381	20
398	721
399	200
