Mass Spectrum: 2-Bromobenzoic acid, 2-bromo-4-fluorophenyl ester
Formula: C13 H7 Br2 F O2
Molecular weight: 372
Origin: Zaikin V.G., TIPS RAS, Moscow, Russia
m/z	RELATIVE INTENSITY
26	30
28	10
31	30
38	30
44	50
49	30
50	581
51	90
56	50
57	110
61	30
62	40
63	110
73	30
74	240
75	951
76	1191
77	130
79	60
80	130
81	280
82	460
83	80
94	80
104	230
105	50
110	90
111	40
113	30
129	40
131	40
135	40
137	40
155	1692
156	160
157	1752
158	160
161	290
163	270
170	60
183	9999
184	721
185	9739
186	841
187	70
189	90
190	190
191	110
192	190
214	50
372	30
374	70
376	30
