Mass Spectrum: 2-Methyl-4-tripropylsilyloxyoct-5-yne
Formula: C18 H36 O Si
Molecular weight: 296
Origin: Zaikin V.G., TIPS RAS, Moscow, Russia
m/z	RELATIVE INTENSITY
25	40
26	320
27	821
28	10
29	460
31	40
36	60
37	90
38	160
39	961
40	290
41	1942
42	561
43	1171
44	250
45	2032
46	110
47	2132
48	90
49	80
50	90
51	120
52	110
53	310
54	90
55	671
56	110
57	430
58	190
59	2172
60	370
61	4154
62	280
63	320
64	40
65	240
66	140
67	380
68	80
69	551
70	300
71	611
72	180
73	2242
74	400
75	240
76	50
77	691
78	120
79	651
80	130
81	501
82	180
83	2603
84	711
85	621
86	90
87	921
88	120
89	3213
90	260
91	651
92	60
93	270
94	40
95	310
96	190
97	2873
98	501
99	661
100	60
101	170
103	110
105	120
107	170
108	30
109	410
110	120
111	591
112	360
113	1702
114	180
115	1441
116	140
117	60
119	40
121	100
122	50
123	591
124	160
125	8037
126	1061
127	531
128	40
129	40
131	1071
132	110
133	40
137	30
139	290
140	60
141	340
142	30
143	140
151	50
153	180
154	210
155	4434
156	551
157	921
158	100
159	70
165	30
167	3213
168	490
169	691
170	80
181	60
183	30
195	40
197	330
198	40
199	671
200	90
201	60
209	100
211	9999
212	1542
213	400
214	30
239	310
240	50
253	1902
254	350
255	80
281	30
