Mass Spectrum: 2,7-Dimethyl-4-diphenylethenylsilyloxyoct-7-en-5-yne
Formula: C24 H28 O Si
Molecular weight: 360
Origin: Zaikin V.G., TIPS RAS, Moscow, Russia
m/z	RELATIVE INTENSITY
26	130
27	140
28	30
29	90
38	40
39	270
40	100
41	440
42	90
43	270
44	120
45	320
50	130
51	210
52	100
53	220
55	140
56	60
57	100
63	70
64	30
65	130
66	60
67	50
69	60
71	40
73	30
74	40
75	30
76	80
77	1021
78	561
79	240
81	50
83	30
85	30
89	30
91	561
92	130
93	140
94	50
95	40
97	70
99	30
102	70
103	170
104	130
105	1592
106	240
107	300
108	40
109	30
113	80
115	180
116	50
117	110
118	50
119	200
120	60
121	280
122	120
123	1021
124	130
125	70
126	30
127	60
128	150
129	260
130	160
131	470
132	110
133	160
134	50
135	50
136	70
137	140
138	30
139	50
141	310
142	110
143	90
144	40
145	130
146	30
147	260
148	90
149	5745
150	851
151	320
152	280
153	230
154	210
155	3433
156	631
157	140
158	30
159	40
160	30
161	130
162	50
163	90
165	210
166	110
167	400
168	170
169	1271
170	280
171	551
172	150
173	190
174	60
175	160
176	30
177	30
178	90
179	150
180	310
181	1862
182	420
183	5314
184	1061
185	460
186	100
187	220
188	40
189	40
191	50
193	60
194	30
195	400
196	210
197	1742
198	430
199	2953
200	641
201	240
202	60
203	50
205	70
207	420
208	180
209	6355
210	1662
211	691
212	250
213	300
214	80
215	90
216	50
217	80
219	40
221	190
222	50
223	120
224	60
225	971
226	280
227	120
228	70
229	130
230	40
231	140
232	40
233	170
234	90
235	40
236	30
237	110
238	30
239	571
240	210
241	120
242	70
243	250
244	70
245	140
246	80
247	2873
248	761
249	450
250	100
251	40
253	30
255	80
256	40
257	90
258	40
259	320
260	110
261	150
262	40
263	100
264	90
265	30
267	190
268	40
269	120
270	30
271	80
272	40
273	460
274	270
275	581
276	180
277	120
278	30
279	30
282	120
283	340
284	80
285	80
287	90
288	40
289	260
290	90
291	511
292	320
293	80
299	40
301	110
302	90
303	9999
304	3223
305	1221
306	250
307	40
317	971
318	290
319	601
320	160
321	30
333	90
345	611
346	200
347	50
359	250
360	1772
361	591
362	140
