Mass Spectrum: Nicotinic acid, undec-10-enyl ester
Formula: C17 H25 N O2
Molecular weight: 275
Origin: Zaikin V.G., TIPS RAS, Moscow, Russia
m/z	RELATIVE INTENSITY
25	30
26	260
27	721
28	20
29	1151
31	30
36	130
37	40
38	130
39	1281
40	270
41	5044
42	871
43	1031
44	240
45	30
49	40
50	460
51	2072
52	480
53	721
54	2723
55	5164
56	661
57	400
65	140
66	180
67	2913
68	1642
69	2122
70	280
71	110
75	20
76	80
77	501
78	6636
79	3794
80	601
81	1662
82	981
83	480
84	90
85	40
91	70
92	30
93	641
94	110
95	881
96	350
97	180
98	40
104	30
105	951
106	9388
107	3343
108	260
109	270
110	120
111	70
117	30
118	50
119	3063
120	551
121	390
122	80
123	601
124	9999
125	721
126	50
132	120
133	1111
134	280
135	160
137	390
138	120
146	490
147	1522
148	230
149	100
150	450
151	440
152	90
160	460
161	1031
162	240
163	110
164	1972
165	490
166	60
174	501
175	320
176	230
177	160
178	1812
179	280
188	230
189	230
190	140
191	470
192	771
193	110
202	270
203	340
204	330
205	170
206	470
207	150
216	30
217	70
218	731
219	210
220	591
221	120
230	210
231	260
232	1632
233	350
234	881
235	120
246	881
247	290
248	40
260	150
274	1902
275	1632
276	280
