Mass Spectrum: l-Proline, N-(2-fluorobenzoyl)-, methyl ester
Formula: C13 H14 F N O3
Molecular weight: 251
Origin: Zaikin V.G., TIPS RAS, Moscow, Russia
m/z	RELATIVE INTENSITY
27	50
28	30
39	90
40	30
41	290
42	130
44	50
50	60
51	50
59	50
68	120
69	110
70	30
74	40
75	480
76	50
94	140
95	1512
96	190
109	30
122	70
123	9999
124	631
125	30
128	80
163	30
192	3473
193	410
194	30
251	250
252	40
