Mass Spectrum: 4-(Trifluoromethyl)benzoic acid, hex-4-yn-3-yl ester
Formula: C14 H13 F3 O2
Molecular weight: 270
Origin: Zaikin V.G., TIPS RAS, Moscow, Russia
m/z	RELATIVE INTENSITY
27	80
28	10
29	40
36	30
39	200
40	50
41	250
43	50
44	80
50	110
51	110
52	90
53	290
54	30
55	40
57	40
63	40
65	120
66	60
67	70
69	130
74	30
75	120
76	50
77	260
78	50
79	1952
80	851
81	290
95	230
96	40
97	240
125	160
126	120
127	80
143	50
144	60
145	2262
146	210
171	190
172	40
173	9999
174	781
175	50
190	60
191	40
200	60
213	60
223	50
224	40
227	60
241	641
242	290
243	30
251	150
255	1181
256	170
270	661
271	90
