Mass Spectrum: l-Methionine, N-caproyl-, methyl ester
Formula: C12 H23 N O3 S
Molecular weight: 261
Origin: Zaikin V.G., TIPS RAS, Moscow, Russia
m/z	RELATIVE INTENSITY
26	140
27	581
28	30
29	801
30	200
31	70
33	130
35	140
36	70
39	370
40	90
41	1702
42	480
43	4224
44	731
45	420
46	150
47	390
48	170
49	80
50	30
51	30
52	30
53	120
54	250
55	1191
56	2743
57	1792
58	170
59	480
60	150
61	3143
62	140
63	150
67	80
68	110
69	420
70	250
71	2563
72	240
73	100
74	631
75	991
76	70
77	80
80	30
81	90
82	140
83	460
84	310
85	260
86	170
87	360
88	2553
89	4124
90	601
91	80
96	80
97	110
98	531
99	5434
100	501
101	190
102	2312
103	260
104	3734
105	240
106	180
107	30
109	120
110	210
111	100
112	571
113	170
114	1331
115	611
116	2032
117	190
118	30
124	70
125	80
126	170
127	160
128	110
129	30
130	60
131	3554
132	230
133	60
134	40
140	50
141	30
142	80
143	50
144	1311
145	320
146	130
147	160
148	180
153	80
154	270
155	7717
156	781
157	120
158	521
159	70
160	80
162	2663
163	581
164	370
165	40
168	2022
169	270
170	80
172	70
181	120
182	190
183	40
184	80
185	40
186	110
187	9999
188	1091
189	110
198	30
200	2332
201	260
202	541
203	60
205	30
212	30
213	60
214	701
215	90
218	40
229	110
230	100
232	70
246	50
261	1902
262	350
263	110
