Mass Spectrum: Phenylacetic acid, 2-isopropoxyphenyl ester
Formula: C17 H18 O3
Molecular weight: 270
Origin: Zaikin V.G., TIPS RAS, Moscow, Russia
m/z	RELATIVE INTENSITY
26	70
27	200
28	10
37	30
38	70
39	380
40	50
41	380
42	80
43	370
50	120
51	200
52	350
53	140
54	30
55	30
62	70
63	320
64	210
65	761
66	50
77	40
80	230
81	651
82	60
89	460
90	621
91	7797
92	621
93	60
94	20
109	741
110	9999
111	591
112	50
118	2212
119	250
121	130
135	50
136	50
137	30
152	5094
153	460
154	40
270	230
271	40
