Mass Spectrum: 5-Bromovaleric acid, 5-pentadecyl ester
Formula: C20 H39 Br O2
Molecular weight: 390
Origin: Zaikin V.G., TIPS RAS, Moscow, Russia
m/z	RELATIVE INTENSITY
25	30
26	230
27	751
28	10
29	1351
36	70
38	40
39	581
40	120
41	2683
42	721
43	3023
44	290
45	90
50	30
51	40
52	30
53	270
54	561
55	6696
56	1912
57	3103
58	230
59	140
65	40
66	50
67	661
68	480
69	2362
70	1491
71	1632
72	80
73	220
77	40
79	190
80	220
81	561
82	931
83	2543
84	1141
85	1391
86	80
87	30
91	70
93	30
95	320
96	531
97	1992
98	741
99	511
100	150
101	1421
102	70
107	90
109	210
110	330
111	1161
112	501
113	180
119	170
121	40
123	60
124	280
125	711
126	430
127	140
135	2312
136	120
137	2192
138	240
139	330
140	230
141	280
142	30
152	130
153	350
154	170
155	60
162	30
163	9999
164	581
165	9458
166	551
167	100
168	120
169	340
170	40
178	230
179	80
180	370
181	711
182	450
183	591
210	2132
211	400
225	300
226	40
227	100
249	230
251	200
333	50
335	40
