Mass Spectrum: 3-Tripropylsilyloxyhex-4-yne
Formula: C15 H30 O Si
Molecular weight: 254
Origin: Zaikin V.G., TIPS RAS, Moscow, Russia
m/z	RELATIVE INTENSITY
26	30
27	70
28	140
36	60
39	120
40	30
41	180
42	60
43	60
44	90
45	541
47	340
52	30
53	110
55	30
57	40
58	30
59	120
60	50
61	651
62	50
63	70
67	60
69	380
70	100
71	120
72	30
73	280
74	70
75	30
77	80
79	120
80	30
81	60
82	40
83	601
84	80
85	160
87	150
89	410
90	30
91	30
95	120
96	40
97	60
98	100
99	110
109	290
110	60
111	3213
112	420
113	170
115	280
116	30
125	170
126	60
127	611
128	80
129	160
131	80
139	50
140	70
141	741
142	100
143	40
153	1752
154	270
155	100
157	70
167	50
168	80
169	9999
170	1582
171	711
172	80
183	130
211	2162
212	420
213	110
225	180
226	30
