Mass Spectrum: Isonicotinic acid, 3-tetradecyl ester
Formula: C20 H33 N O2
Molecular weight: 319
Origin: Zaikin V.G., TIPS RAS, Moscow, Russia
m/z	RELATIVE INTENSITY
26	50
27	90
28	60
29	160
36	140
38	40
39	120
41	661
42	170
43	741
44	150
50	100
51	430
52	110
53	80
54	150
55	1061
56	521
57	801
58	40
66	30
67	300
68	220
69	971
70	611
71	420
72	30
77	90
78	1812
79	480
80	190
81	250
82	310
83	821
84	420
85	290
93	190
94	30
95	150
96	210
97	791
98	280
99	50
105	70
106	9729
107	1812
108	140
109	70
110	100
111	440
112	180
113	30
120	260
121	390
122	110
123	380
124	9999
125	1271
126	130
134	220
135	70
136	70
137	60
138	40
139	50
140	70
148	80
149	60
150	60
151	30
153	30
154	30
162	100
163	130
164	400
165	100
167	30
168	80
176	90
177	60
178	70
179	30
190	110
191	50
192	40
196	200
204	160
205	50
206	40
218	90
219	240
220	80
232	60
233	80
234	50
246	70
247	30
248	80
249	30
260	110
261	40
262	210
263	70
275	1742
276	501
277	50
290	460
291	90
304	100
317	30
318	100
319	290
320	80
