Mass Spectrum: l-Serine, N,O-bis(2-thienylcarbonyl)-, methyl ester
Formula: C14 H13 N O5 S2
Molecular weight: 339
Origin: Zaikin V.G., TIPS RAS, Moscow, Russia
m/z	RELATIVE INTENSITY
28	10
39	541
41	30
44	80
45	70
57	80
58	60
59	30
81	30
82	70
83	390
84	330
85	40
97	40
110	30
111	9999
112	561
113	410
124	30
127	50
128	180
129	30
152	1692
153	150
154	80
179	190
180	50
181	90
198	30
211	1141
212	140
213	60
228	160
238	370
239	40
240	30
280	100
306	40
339	80
