Mass Spectrum: Isonicotinic acid, dodec-9-ynyl ester
Formula: C18 H25 N O2
Molecular weight: 287
Origin: Zaikin V.G., TIPS RAS, Moscow, Russia
m/z	RELATIVE INTENSITY
26	100
27	220
28	110
29	270
36	30
38	20
39	400
40	140
41	1532
42	200
43	300
44	80
50	190
51	861
52	250
53	531
54	460
55	1742
56	150
57	80
63	30
65	310
66	390
67	2923
68	2432
69	601
70	50
71	40
76	30
77	470
78	2653
79	2913
80	801
81	1251
82	1151
83	150
91	390
92	80
93	1652
94	330
95	921
96	180
97	130
105	170
106	3974
107	2282
108	280
109	410
110	60
117	30
119	110
120	130
121	380
122	140
123	440
124	9999
125	761
126	60
130	30
131	40
132	30
133	50
134	100
135	360
136	80
137	60
144	130
145	671
146	180
147	60
148	60
149	80
150	40
151	50
158	100
159	430
160	100
161	40
162	50
163	50
164	120
165	50
172	390
173	410
174	110
175	30
176	140
177	30
178	370
179	40
186	511
187	420
188	100
189	60
190	771
191	110
192	280
193	30
200	240
201	160
202	100
204	260
205	40
206	771
207	50
214	210
215	410
216	90
220	1922
221	320
222	30
228	140
229	80
230	80
231	30
242	450
243	320
244	410
245	80
258	210
259	130
272	1021
273	190
286	2633
287	3023
288	681
289	80
