Mass Spectrum: l-Cysteine, N,S-bis(4-fluorobenzoyl)-, methyl ester
Formula: C18 H15 F2 N O4 S
Molecular weight: 379
Origin: Zaikin V.G., TIPS RAS, Moscow, Russia
m/z	RELATIVE INTENSITY
28	30
41	30
44	80
45	30
50	50
51	30
59	30
69	50
74	40
75	350
76	40
94	90
95	1872
96	200
121	40
122	50
123	9999
124	691
125	40
135	30
139	30
140	60
164	110
165	30
180	50
191	100
192	40
194	30
210	30
223	140
224	260
225	30
240	110
256	981
257	140
258	60
262	751
263	120
320	270
321	50
