Mass Spectrum: 4-(Trifluoromethyl)benzoic acid, 3-methylbut-2-enyl ester
Formula: C13 H13 F3 O2
Molecular weight: 258
Origin: Zaikin V.G., TIPS RAS, Moscow, Russia
m/z	RELATIVE INTENSITY
27	70
28	10
29	80
39	190
40	160
41	681
42	80
44	140
50	100
51	70
52	30
53	420
54	40
55	50
57	80
65	30
66	40
67	1481
68	3003
69	1121
70	60
73	40
74	40
75	180
76	60
77	40
83	30
85	310
95	320
96	60
99	30
119	40
125	240
126	160
127	80
143	100
144	70
145	2953
146	290
171	751
172	80
173	9999
174	931
175	60
190	120
191	80
202	30
215	20
225	30
239	80
240	30
258	140
