Mass Spectrum: 3-Methyl-2-butenoic acid, 2-methyloct-5-yn-4-yl ester
Formula: C14 H22 O2
Molecular weight: 222
Origin: Zaikin V.G., TIPS RAS, Moscow, Russia
m/z	RELATIVE INTENSITY
27	160
28	100
29	250
39	310
40	60
41	370
42	30
43	280
44	70
50	30
51	70
52	50
53	230
54	70
55	841
56	70
57	70
65	110
66	70
67	200
68	40
69	160
77	260
78	60
79	711
80	160
81	681
82	200
83	9999
84	521
85	60
91	350
92	60
93	671
94	120
95	110
97	60
100	60
101	160
105	100
107	861
108	90
109	40
121	50
122	180
123	70
124	30
125	40
137	80
138	30
139	120
140	160
151	60
165	90
166	240
167	30
179	571
180	130
193	40
207	150
222	30
