Mass Spectrum: l-Proline, N-(2,3,4-trifluorobenzoyl)-, methyl ester
Formula: C13 H12 F3 N O3
Molecular weight: 287
Origin: Zaikin V.G., TIPS RAS, Moscow, Russia
m/z	RELATIVE INTENSITY
27	30
28	20
39	50
41	200
42	90
44	40
59	30
68	80
69	60
81	350
112	50
128	70
130	40
131	1051
132	100
159	9999
160	611
161	30
201	30
228	4414
229	480
230	30
287	280
288	40
