Mass Spectrum: l-Valine, N-(p-toluoyl)-, methyl ester
Formula: C14 H19 N O3
Molecular weight: 249
Origin: Zaikin V.G., TIPS RAS, Moscow, Russia
m/z	RELATIVE INTENSITY
26	10
27	40
29	30
31	10
38	10
39	100
40	10
41	90
42	20
43	50
44	30
50	20
51	40
52	10
53	10
54	10
55	30
56	30
59	30
62	10
63	70
64	20
65	420
66	20
69	10
70	30
76	10
77	10
83	20
88	10
89	150
90	160
91	1582
92	140
93	20
105	10
114	10
115	30
116	10
117	20
118	100
119	9999
120	761
121	50
130	30
134	10
135	400
136	1191
137	110
146	20
147	70
148	10
174	50
175	200
176	30
189	30
190	1301
191	170
192	10
202	40
206	10
207	300
217	10
218	30
234	20
249	140
250	20
