Mass Spectrum: Glycine, N-(p-anisoyl)-, methyl ester
Formula: C11 H13 N O4
Molecular weight: 223
Origin: Zaikin V.G., TIPS RAS, Moscow, Russia
m/z	RELATIVE INTENSITY
28	10
38	30
39	30
44	40
50	60
51	40
63	140
64	240
65	40
75	40
76	90
77	651
78	60
79	30
92	561
93	40
103	40
104	50
107	360
108	40
120	50
121	40
135	9999
136	741
137	60
163	60
164	340
165	30
191	240
192	110
223	1602
224	200
235	50
