Mass Spectrum: 3-Hydroxy-2-phenyl-propionic acid 6-hydroxy-8-methyl-8-aza-bicyclo[3.2.1]oct-3-yl ester
Formula: C17 H23 N O4
Molecular weight: 305
Origin: A.A.Kutin, Moscow, Russia
m/z	RELATIVE INTENSITY
33	73
34	15
36	18
37	10
39	562
41	1136
42	2738
43	455
44	688
45	53
46	3
50	78
51	271
52	82
53	255
54	198
55	533
56	314
57	556
58	384
60	21
61	13
63	196
65	383
67	345
68	239
69	148
70	275
71	54
72	128
73	199
75	42
77	726
79	1184
80	1465
81	907
82	1914
83	174
84	266
85	24
86	52
87	9
89	236
90	321
91	750
92	139
94	9999
95	8542
96	1039
98	343
99	115
100	17
101	11
103	737
104	128
105	32
106	26
107	114
108	112
109	74
110	361
111	59
112	283
113	60
114	19
115	21
116	16
118	124
119	27
120	64
121	246
122	334
124	74
125	35
126	13
127	16
128	7
129	3
131	5
135	30
136	43
138	99
140	2571
141	174
142	11
148	1
149	2
150	8
151	1
152	6
154	3
156	115
157	12
180	2
181	1
182	5
230	9
231	1
261	521
262	78
263	6
276	6
288	3
305	486
306	85
307	11
