Mass Spectrum: 5-Bromopentanoic acid, morpholide
Formula: C9 H16 Br N O2
Molecular weight: 249
Origin: Zaikin V.G., TIPS RAS, Moscow, Russia
m/z	RELATIVE INTENSITY
26	90
27	500
28	210
29	520
30	200
31	30
36	60
39	240
40	40
41	380
42	761
43	150
44	150
45	90
51	30
53	160
54	160
55	2622
56	1702
57	2412
58	250
59	40
65	30
67	30
68	40
69	90
70	881
71	50
72	200
79	40
80	120
81	90
82	160
83	250
84	60
85	120
86	2052
87	841
88	1912
89	100
91	110
93	30
95	30
98	70
99	30
100	40
107	120
109	80
111	30
112	170
113	60
114	961
115	60
118	80
119	60
120	410
121	40
126	130
128	70
132	110
133	420
134	50
135	691
136	30
137	651
138	30
140	180
142	1661
143	240
144	30
146	60
156	290
160	80
163	220
165	210
169	50
170	9999
171	1011
172	80
188	110
189	881
190	130
193	40
249	230
250	40
251	220
252	30
