Mass Spectrum: Benzamide, N-(4-bromophenyl)-4-methyl-
Formula: C14 H12 Br N O
Molecular weight: 289
Origin: Zaikin V.G., TIPS RAS, Moscow, Russia
m/z	RELATIVE INTENSITY
28	40
39	100
41	40
50	30
51	40
62	20
63	150
64	80
65	571
66	30
76	30
89	160
90	180
91	2092
92	220
118	60
119	9999
120	721
121	40
143	40
145	40
171	120
172	30
173	110
180	40
209	30
241	40
289	1381
290	220
291	1361
292	210
