Mass Spectrum: Pentanamide, N-tetrahydrofurfuryl-
Formula: C10 H19 N O2
Molecular weight: 185
Origin: Zaikin V.G., TIPS RAS, Moscow, Russia
m/z	RELATIVE INTENSITY
26	60
27	440
28	280
29	701
30	821
31	70
36	30
39	280
40	60
41	1131
42	320
43	1882
44	170
45	40
53	70
54	100
55	460
56	450
57	1091
58	210
59	70
60	40
67	120
68	40
69	70
70	280
71	9999
72	581
73	2402
74	100
82	130
83	160
84	4274
85	1171
86	1191
87	270
98	60
99	50
100	681
101	100
102	1201
103	70
111	40
113	30
114	180
115	2913
116	821
117	50
126	60
127	30
128	90
141	150
142	110
143	210
156	100
170	40
185	40
186	80
