Mass Spectrum: Acetamide, N-(4-bromophenyl)-2-(2-thienyl)-
Formula: C12 H10 Br N O S
Molecular weight: 295
Origin: Zaikin V.G., TIPS RAS, Moscow, Russia
m/z	RELATIVE INTENSITY
26	40
27	80
28	10
37	30
38	90
39	310
41	30
44	30
45	721
47	60
50	150
51	130
52	100
53	621
54	30
57	30
58	90
62	90
63	410
64	270
65	280
66	30
69	170
70	150
71	110
74	40
75	190
76	230
77	50
79	30
80	80
81	40
82	100
90	330
91	691
92	310
93	60
95	130
96	530
97	9999
98	8628
99	911
100	380
111	40
117	60
119	100
122	30
124	1231
125	120
126	60
135	40
143	200
145	190
155	320
157	300
169	120
170	921
171	2552
172	1051
173	2422
174	170
186	40
197	510
198	691
199	540
200	671
201	50
247	40
295	4484
296	631
297	4554
298	641
299	240
