Mass Spectrum: Acetamide, N-(1-naphthyl)-2-(2-thienyl)-
Formula: C16 H13 N O S
Molecular weight: 267
Origin: Zaikin V.G., TIPS RAS, Moscow, Russia
m/z	RELATIVE INTENSITY
26	30
27	50
28	60
39	170
44	30
45	390
47	30
50	70
51	100
52	50
53	370
58	40
62	50
63	170
64	40
65	90
69	90
70	80
71	60
72	30
74	40
75	70
76	50
77	130
87	40
88	80
89	200
90	40
95	60
96	200
97	5055
98	1491
99	310
100	80
101	90
102	30
111	40
113	150
114	310
115	2312
116	480
117	60
124	200
125	40
126	200
127	941
128	170
140	460
141	400
142	1081
143	9058
144	1241
145	80
152	30
153	30
154	30
169	4064
170	1822
171	210
204	30
232	30
233	80
249	30
259	30
267	9999
268	1722
269	581
270	80
