Mass Spectrum: Octanamide, N-(4-methoxyphenyl)-
Formula: C15 H23 N O2
Molecular weight: 249
Origin: Zaikin V.G., TIPS RAS, Moscow, Russia
m/z	RELATIVE INTENSITY
27	80
28	50
29	140
39	60
41	310
42	50
43	240
52	50
53	60
55	220
56	30
57	370
64	30
65	50
67	40
77	50
78	30
79	50
80	120
81	30
83	30
92	70
93	50
95	140
106	30
107	60
108	1962
109	210
121	170
122	520
123	9999
124	771
125	50
127	60
134	70
136	50
149	90
150	50
164	30
165	450
166	40
178	90
248	60
249	2342
250	400
251	40
