Mass Spectrum: Benzamide, N-(2,5-dimethoxyphenyl)-2-chloro-
Formula: C15 H14 Cl N O3
Molecular weight: 291
Origin: Zaikin V.G., TIPS RAS, Moscow, Russia
m/z	RELATIVE INTENSITY
28	10
36	60
39	60
50	80
51	110
52	110
53	40
63	30
65	50
68	60
69	30
74	30
75	330
76	110
77	140
78	30
79	110
80	50
92	50
93	60
94	30
95	60
105	70
107	80
108	50
109	60
110	60
111	1551
112	140
113	510
114	40
122	60
123	70
124	50
125	90
135	80
136	80
137	30
138	240
139	9999
140	751
141	3413
142	240
150	40
151	40
152	90
153	50
154	170
164	80
165	20
182	30
198	40
225	80
226	60
240	40
241	30
244	40
245	30
248	30
256	110
260	661
261	150
262	240
263	50
276	1151
277	200
278	390
279	60
291	6716
292	1111
293	2292
294	360
295	40
