Mass Spectrum: Octanamide, N-(1-naphthyl)-
Formula: C18 H23 N O
Molecular weight: 269
Origin: Zaikin V.G., TIPS RAS, Moscow, Russia
m/z	RELATIVE INTENSITY
27	60
28	40
29	110
39	50
41	220
42	40
43	210
55	170
57	330
89	40
113	20
114	60
115	731
116	200
117	40
126	40
127	190
128	50
140	80
141	110
142	180
143	9999
144	1171
145	70
169	80
170	60
184	90
185	100
198	30
233	50
269	1321
270	260
