Mass Spectrum: 2-Ethoxycarbonyladamantane
Formula: C13 H20 O2
Molecular weight: 208
Origin: A.Pleshkova, Nesmeyanov Inst.Org.Elem.Cpds, Moscow
m/z	RELATIVE INTENSITY
52	1291
53	180
67	3793
68	310
79	4794
80	310
92	3493
93	340
119	1091
120	110
134	9999
135	1191
136	110
162	5795
163	410
180	490
181	60
208	4094
209	280
