Mass Spectrum: Benzamide, N-(4-fluorophenyl)-4-butyl-
Formula: C17 H18 F N O
Molecular weight: 271
Origin: Zaikin V.G., TIPS RAS, Moscow, Russia
m/z	RELATIVE INTENSITY
27	30
29	30
39	40
41	70
51	30
55	60
63	40
65	120
77	130
78	50
79	40
83	90
84	40
89	160
90	430
91	1101
92	100
103	110
104	80
105	110
110	50
111	130
115	60
116	30
117	30
118	350
119	50
131	90
133	90
159	40
161	9999
162	961
163	70
228	70
271	1561
272	290
273	30
