Mass Spectrum: 4-Butylbenzoic acid, morpholide
Formula: C15 H21 N O2
Molecular weight: 247
Origin: Zaikin V.G., TIPS RAS, Moscow, Russia
m/z	RELATIVE INTENSITY
27	50
28	20
29	50
39	30
41	70
42	40
51	30
55	90
56	150
57	30
63	30
65	100
69	50
70	40
77	130
78	50
79	40
86	240
89	130
90	370
91	1031
92	90
103	120
104	90
105	120
115	70
116	30
117	40
118	280
119	40
131	130
132	30
133	90
148	70
159	60
160	30
161	9999
162	981
163	70
176	50
190	250
191	30
204	90
216	120
218	40
219	30
232	120
246	2182
247	1251
248	220
