Mass Spectrum: Benzamide, N-(4-methoxyphenyl)-3-methoxy-
Formula: C15 H15 N O3
Molecular weight: 257
Origin: Zaikin V.G., TIPS RAS, Moscow, Russia
m/z	RELATIVE INTENSITY
28	10
39	40
41	40
50	30
51	50
52	70
53	50
63	110
64	210
65	60
76	80
77	881
78	100
79	80
80	60
92	711
93	60
95	160
106	40
107	1702
108	230
109	80
119	30
122	200
123	100
124	120
134	40
135	9999
136	761
137	60
256	50
257	6126
258	921
259	110
