Mass Spectrum: Benzamide, N-(3-methylphenyl)-3-methoxy-
Formula: C15 H15 N O2
Molecular weight: 241
Origin: Zaikin V.G., TIPS RAS, Moscow, Russia
m/z	RELATIVE INTENSITY
28	20
39	60
50	40
51	60
52	30
53	30
63	110
64	220
65	90
76	100
77	1011
78	140
79	110
91	80
92	761
93	60
104	50
106	150
107	1722
108	170
113	60
119	140
120	80
132	30
133	30
135	9999
136	741
137	60
226	60
240	30
241	4514
242	701
243	70
