Mass Spectrum: Pentanoic acid, morpholide
Formula: C9 H17 N O2
Molecular weight: 171
Origin: Zaikin V.G., TIPS RAS, Moscow, Russia
m/z	RELATIVE INTENSITY
26	100
27	490
28	410
29	1021
30	250
31	40
36	30
39	220
40	50
41	1021
42	881
43	320
44	370
45	130
53	60
54	130
55	851
56	2042
57	6546
58	460
59	90
68	40
69	170
70	1201
71	100
72	520
73	40
83	80
84	130
85	1521
86	4394
87	2772
88	891
89	40
98	300
99	721
100	170
101	130
112	230
113	70
114	1441
115	100
126	130
128	230
129	9999
130	641
131	50
142	1221
143	170
156	320
170	80
171	941
172	170
