Mass Spectrum: Benzamide, N-tetrahydrofurfuryl-2-chloro-
Formula: C12 H14 Cl N O2
Molecular weight: 239
Origin: Zaikin V.G., TIPS RAS, Moscow, Russia
m/z	RELATIVE INTENSITY
26	60
27	310
28	40
29	220
30	80
36	120
38	40
39	190
40	40
41	751
42	230
43	2682
44	170
50	260
51	230
52	30
53	40
54	40
55	80
56	190
61	40
63	30
69	70
70	280
71	9999
72	450
73	30
74	130
75	1111
76	380
77	350
78	60
82	30
83	50
84	4434
85	400
87	30
89	30
91	60
102	90
103	30
104	110
105	190
110	70
111	2682
112	300
113	901
114	90
116	40
119	50
125	30
132	60
133	70
134	671
135	90
137	40
138	170
139	8147
140	681
141	2742
142	210
151	40
152	40
153	30
155	40
156	1852
157	160
158	621
159	50
168	6776
169	7577
170	3453
171	2392
172	430
173	30
174	30
180	150
181	70
182	70
194	30
195	230
196	140
197	90
198	40
204	50
239	100
240	100
241	40
242	30
