Mass Spectrum: Butanamide, N-(3-chlorophenyl)-
Formula: C10 H12 Cl N O
Molecular weight: 197
Origin: Zaikin V.G., TIPS RAS, Moscow, Russia
m/z	RELATIVE INTENSITY
27	270
28	10
36	40
38	40
39	180
41	440
42	60
43	1611
44	50
50	40
51	40
52	30
55	90
62	40
63	180
64	130
65	210
70	30
71	891
72	40
73	80
74	30
75	190
76	40
77	30
90	110
91	170
92	220
93	50
99	270
100	110
101	90
102	40
111	260
113	80
125	50
126	170
127	9999
128	681
129	2853
130	200
140	30
153	80
154	130
155	30
156	40
168	30
169	40
182	30
197	1832
198	220
199	591
200	60
