Mass Spectrum: Cyclohexanecarboxamide, N-(3-nitrophenyl)-
Formula: C13 H16 N2 O3
Molecular weight: 248
Origin: Zaikin V.G., TIPS RAS, Moscow, Russia
m/z	RELATIVE INTENSITY
26	50
27	260
28	100
29	260
30	70
36	30
38	60
39	480
40	110
41	1581
42	80
43	130
44	80
50	90
51	100
52	120
53	280
54	240
55	4024
56	190
57	30
63	180
64	240
65	390
66	80
67	460
68	80
69	70
75	100
76	240
77	120
78	60
79	210
80	130
81	350
82	160
83	9999
84	651
90	110
91	260
92	530
93	150
95	30
105	40
106	40
107	30
108	490
109	110
110	2963
111	3083
112	220
117	20
118	40
119	40
122	70
123	30
130	40
135	30
137	110
138	631
139	70
147	30
163	30
165	90
177	90
180	50
193	170
218	170
219	40
248	931
249	160
