Mass Spectrum: Octanamide, N-(4-bromophenyl)-
Formula: C14 H20 Br N O
Molecular weight: 297
Origin: Zaikin V.G., TIPS RAS, Moscow, Russia
m/z	RELATIVE INTENSITY
26	40
27	200
28	130
29	340
38	30
39	180
40	30
41	731
42	150
43	781
50	40
51	30
53	40
55	581
56	70
57	1742
58	70
63	130
64	110
65	310
66	40
67	80
69	80
70	30
71	40
75	60
76	90
77	30
80	50
81	30
82	50
83	80
84	40
90	110
91	370
92	510
93	330
94	30
97	30
98	40
104	30
105	40
109	70
119	40
123	30
127	330
128	30
133	90
143	100
145	90
146	30
155	100
157	100
169	60
170	310
171	9999
172	941
173	9759
174	641
184	40
197	80
198	130
199	80
200	130
212	40
213	701
214	100
215	681
216	60
226	80
228	80
297	1021
298	190
299	1011
300	170
