Mass Spectrum: Benzamide, N-(3-nitrophenyl)-4-butyl-
Formula: C17 H18 N2 O3
Molecular weight: 298
Origin: Zaikin V.G., TIPS RAS, Moscow, Russia
m/z	RELATIVE INTENSITY
27	40
28	10
29	30
39	60
41	80
43	30
51	30
55	80
63	50
64	40
65	160
76	30
77	140
78	50
79	50
89	150
90	450
91	1161
92	140
103	120
104	80
105	130
115	60
116	30
117	40
118	400
119	60
131	120
133	130
138	30
159	70
161	9999
162	1021
163	70
255	50
268	130
269	30
298	450
299	90
