Mass Spectrum: Acetamide, N-(2,5-dimethoxyphenyl)-2-(2-thienyl)-
Formula: C14 H15 N O3 S
Molecular weight: 277
Origin: Zaikin V.G., TIPS RAS, Moscow, Russia
m/z	RELATIVE INTENSITY
26	30
27	30
28	50
39	120
41	30
45	230
50	40
51	100
52	140
53	270
54	30
55	20
58	30
63	60
64	30
65	90
66	40
67	50
68	80
69	100
70	50
71	30
77	80
78	40
79	200
80	70
81	30
82	50
90	30
92	110
93	130
94	50
95	200
96	150
97	2652
98	460
99	140
106	30
107	190
108	80
109	170
110	220
111	60
121	30
122	210
123	130
124	240
125	170
135	30
136	110
137	60
138	3563
139	330
149	30
150	400
151	90
152	340
153	1471
154	170
162	50
164	1181
165	3773
166	350
167	30
179	2672
180	1271
181	130
234	90
246	50
262	110
277	9999
278	1531
279	591
280	80
