Mass Spectrum: Octanamide, N-(4-fluorophenyl)-
Formula: C14 H20 F N O
Molecular weight: 237
Origin: Zaikin V.G., TIPS RAS, Moscow, Russia
m/z	RELATIVE INTENSITY
27	110
28	70
29	190
39	80
41	390
42	70
43	410
55	310
56	40
57	941
58	40
67	40
69	40
75	40
82	40
83	270
84	150
93	50
95	130
109	150
110	400
111	9999
112	661
124	50
127	140
137	60
138	150
152	60
153	651
154	60
166	90
236	30
237	611
238	110
