Mass Spectrum: Benzamide, N-(4-bromophenyl)-3-trifluoromethyl-
Formula: C14 H9 Br F3 N O
Molecular weight: 343
Origin: Zaikin V.G., TIPS RAS, Moscow, Russia
m/z	RELATIVE INTENSITY
28	10
39	40
50	70
51	30
62	30
63	140
64	110
65	70
74	30
75	140
76	70
90	60
91	230
92	50
95	240
119	50
125	180
126	170
143	110
144	70
145	3603
146	280
170	40
171	100
172	100
173	9999
174	741
175	40
235	20
263	80
264	30
310	80
324	120
325	290
326	170
343	2182
344	340
345	2172
346	320
