Mass Spectrum: Benzamide, N-tetrahydrofurfuryl-4-butyl-
Formula: C16 H23 N O2
Molecular weight: 261
Origin: Zaikin V.G., TIPS RAS, Moscow, Russia
m/z	RELATIVE INTENSITY
26	50
27	190
28	10
29	160
30	50
39	150
40	30
41	460
42	110
43	1121
44	70
50	30
51	70
53	50
55	180
56	120
57	120
58	30
63	60
64	30
65	230
67	40
69	40
70	150
71	5215
72	230
76	50
77	280
78	110
79	100
82	30
83	50
84	3223
85	240
89	290
90	821
91	2192
92	260
93	30
100	40
102	50
103	250
104	170
105	290
106	100
107	30
115	140
116	90
117	140
118	510
119	170
120	50
128	40
129	30
130	40
131	270
132	100
133	150
134	350
135	110
145	30
146	30
147	70
148	130
149	70
159	130
160	150
161	9999
162	1161
163	90
173	30
174	30
177	60
178	5005
179	601
180	40
188	30
189	50
190	9128
191	5265
192	1131
193	110
202	50
203	30
217	420
218	310
219	40
232	30
233	60
260	30
261	490
262	160
