Mass Spectrum: Benzamide, N-(4-fluorophenyl)-2-chloro-
Formula: C13 H9 Cl F N O
Molecular weight: 249
Origin: Zaikin V.G., TIPS RAS, Moscow, Russia
m/z	RELATIVE INTENSITY
28	10
36	40
39	30
50	150
51	120
57	120
63	50
74	90
75	751
76	200
77	110
81	30
82	60
83	320
84	70
85	70
95	70
105	70
109	70
110	120
111	2182
112	210
113	651
114	50
137	30
138	30
139	9999
140	671
141	3393
142	210
184	50
185	130
213	70
214	30
249	3053
250	430
251	991
252	140
