Mass Spectrum: Benzamide, N-(3-chlorophenyl)-4-butyl-
Formula: C17 H18 Cl N O
Molecular weight: 287
Origin: Zaikin V.G., TIPS RAS, Moscow, Russia
m/z	RELATIVE INTENSITY
27	30
29	30
39	40
41	70
51	30
55	60
63	50
64	30
65	140
77	120
78	40
79	30
89	160
90	430
91	1031
92	110
99	40
103	100
104	80
105	110
115	50
116	30
117	30
118	360
119	60
127	140
129	50
131	90
133	80
139	30
159	40
161	9999
162	991
163	70
244	50
287	1081
288	210
289	370
290	70
