Mass Spectrum: Benzamide, N-(3-chlorophenyl)-3-methoxy-
Formula: C14 H12 Cl N O2
Molecular weight: 261
Origin: Zaikin V.G., TIPS RAS, Moscow, Russia
m/z	RELATIVE INTENSITY
28	10
38	30
39	50
50	50
51	50
62	30
63	200
64	330
65	80
75	60
76	120
77	971
78	80
79	50
90	30
91	60
92	871
93	70
99	80
104	30
107	1561
108	130
111	30
113	250
119	40
127	190
129	50
135	9999
136	731
137	60
246	20
261	2382
262	360
263	741
264	110
