Mass Spectrum: Butanamide, N-(2-iodo-4-methylphenyl)-
Formula: C11 H14 I N O
Molecular weight: 303
Origin: Zaikin V.G., TIPS RAS, Moscow, Russia
m/z	RELATIVE INTENSITY
27	180
28	50
39	130
41	290
42	40
43	1051
44	30
50	60
51	160
52	110
53	40
55	60
63	80
64	40
65	50
71	571
76	60
77	380
78	280
79	250
80	30
89	120
90	140
91	50
92	30
103	30
104	450
105	310
106	771
107	160
108	40
127	80
128	120
132	30
133	20
138	160
147	50
176	30
217	30
232	340
233	9999
234	751
259	50
260	70
303	3803
304	480
305	30
