Mass Spectrum: Benzamide, N-(4-methoxyphenyl)-4-butyl-
Formula: C18 H21 N O2
Molecular weight: 283
Origin: Zaikin V.G., TIPS RAS, Moscow, Russia
m/z	RELATIVE INTENSITY
27	20
28	10
39	30
41	70
51	30
52	40
53	30
55	60
63	30
65	110
77	110
78	50
79	50
80	30
89	110
90	330
91	1051
92	100
95	90
103	90
104	70
105	110
107	30
108	70
109	30
115	50
116	30
117	30
118	250
119	40
122	230
123	80
124	40
131	100
133	100
159	60
161	9999
162	1001
163	70
175	30
212	30
240	50
282	40
283	3363
284	621
285	70
