Mass Spectrum: Benzamide, N-(3-chlorophenyl)-3-trifluoromethyl-
Formula: C14 H9 Cl F3 N O
Molecular weight: 299
Origin: Zaikin V.G., TIPS RAS, Moscow, Russia
m/z	RELATIVE INTENSITY
28	10
39	30
50	60
51	30
63	80
64	50
65	40
73	30
74	30
75	170
76	50
90	30
91	50
95	260
99	150
100	30
101	40
111	30
119	30
125	200
126	180
127	180
128	30
129	40
144	60
145	3583
146	270
173	9999
174	711
175	40
280	210
281	30
282	70
299	2652
300	390
301	821
302	120
