Mass Spectrum: Pentanamide, N-(4-fluorophenyl)-
Formula: C11 H14 F N O
Molecular weight: 195
Origin: Zaikin V.G., TIPS RAS, Moscow, Russia
m/z	RELATIVE INTENSITY
27	130
28	140
29	370
39	90
41	390
42	30
55	160
56	30
57	901
58	40
63	40
64	30
75	80
81	30
82	50
83	400
84	230
85	330
93	40
95	180
96	30
109	140
110	400
111	9999
112	591
124	40
137	70
138	140
152	50
153	440
154	40
166	40
194	30
195	1161
196	150
