Mass Spectrum: Benzamide, N-(3-methylphenyl)-4-methyl-
Formula: C15 H15 N O
Molecular weight: 225
Origin: Zaikin V.G., TIPS RAS, Moscow, Russia
m/z	RELATIVE INTENSITY
28	50
39	120
41	50
50	30
51	80
52	30
63	90
64	40
65	591
66	40
77	170
78	70
79	90
89	170
90	170
91	2382
92	190
106	140
107	190
111	30
118	70
119	9999
120	741
121	40
132	30
180	30
224	30
225	3533
226	550
227	50
