Mass Spectrum: Benzamide, N-(3-methylphenyl)-3-trifluoromethyl-
Formula: C15 H12 F3 N O
Molecular weight: 279
Origin: Zaikin V.G., TIPS RAS, Moscow, Russia
m/z	RELATIVE INTENSITY
28	20
39	60
50	50
51	70
52	40
53	30
63	30
65	60
75	100
76	40
77	240
78	90
79	110
91	70
95	220
104	30
106	130
107	190
108	140
125	160
126	160
132	30
144	50
145	3563
146	280
172	30
173	9999
174	701
175	40
260	290
261	50
278	50
279	4394
280	671
