Mass Spectrum: Benzamide, N-(3-nitrophenyl)-3-trifluoromethyl-
Formula: C14 H9 F3 N2 O3
Molecular weight: 310
Origin: Zaikin V.G., TIPS RAS, Moscow, Russia
m/z	RELATIVE INTENSITY
28	10
39	30
50	60
51	40
63	80
64	70
65	50
75	120
76	60
91	50
92	30
95	220
115	210
116	30
119	30
125	170
126	170
127	30
140	30
143	60
144	190
145	3733
146	280
172	30
173	9999
174	701
175	40
263	30
280	30
291	220
292	30
310	1061
311	170
