Mass Spectrum: Benzamide, N-(1-naphthyl)-3-methoxy-
Formula: C18 H15 N O2
Molecular weight: 277
Origin: Zaikin V.G., TIPS RAS, Moscow, Russia
m/z	RELATIVE INTENSITY
28	10
39	40
50	30
51	40
63	110
64	180
65	50
75	30
76	90
77	911
78	80
79	40
89	60
92	701
93	50
107	1481
108	130
113	40
114	70
115	621
116	120
127	40
135	9999
136	711
137	60
138	30
140	100
141	60
142	60
143	340
144	210
169	30
204	30
277	4864
278	861
279	100
