Mass Spectrum: Benzamide, N-(3-chlorophenyl)-2-chloro-
Formula: C13 H9 Cl2 N O
Molecular weight: 265
Origin: Zaikin V.G., TIPS RAS, Moscow, Russia
m/z	RELATIVE INTENSITY
28	20
36	60
39	40
50	130
51	110
63	110
64	60
65	50
73	50
74	80
75	671
76	180
77	100
85	60
90	50
91	60
99	130
101	40
105	50
110	40
111	1812
112	160
113	631
114	50
126	20
127	180
129	50
138	20
139	9999
140	651
141	3413
142	210
166	40
167	30
201	40
229	40
230	120
231	30
232	40
265	1962
266	290
267	1281
268	180
269	210
270	20
