Mass Spectrum: Benzamide, N-tetrahydrofurfuryl-4-methyl-
Formula: C13 H17 N O2
Molecular weight: 219
Origin: Zaikin V.G., TIPS RAS, Moscow, Russia
m/z	RELATIVE INTENSITY
26	40
27	180
28	20
29	120
30	70
39	270
40	40
41	460
42	130
43	1321
44	90
50	50
51	100
52	30
53	30
55	40
56	130
62	30
63	180
64	60
65	1001
66	60
69	30
70	160
71	4954
72	210
77	50
83	40
84	2582
85	180
89	350
90	320
91	3363
92	320
93	120
105	60
116	40
117	50
118	240
119	9999
120	831
121	60
130	30
131	40
132	40
134	110
135	60
136	3783
137	340
147	60
148	6856
149	5135
150	871
151	60
160	70
161	40
175	460
176	190
191	50
218	30
219	360
220	120
