Mass Spectrum: Acetamide, N-(4-methoxyphenyl)-2-(2-thienyl)-
Formula: C13 H13 N O2 S
Molecular weight: 247
Origin: Zaikin V.G., TIPS RAS, Moscow, Russia
m/z	RELATIVE INTENSITY
26	50
27	70
28	10
38	40
39	220
41	180
44	30
45	480
47	40
50	70
51	170
52	320
53	601
54	50
55	30
58	60
62	30
63	170
64	170
65	160
66	30
67	60
69	110
70	100
71	70
76	40
77	210
78	150
79	170
80	270
81	70
82	20
90	40
91	70
92	220
93	40
95	561
96	260
97	4584
98	1942
99	320
100	90
106	200
107	150
108	2092
109	250
111	30
121	70
122	3803
123	3733
124	450
125	40
134	550
135	130
149	4164
150	841
151	70
162	30
229	30
247	9999
248	1451
249	571
250	70
