Mass Spectrum: Pentanamide, N-(2-iodo-4-methylphenyl)-
Formula: C12 H16 I N O
Molecular weight: 317
Origin: Zaikin V.G., TIPS RAS, Moscow, Russia
m/z	RELATIVE INTENSITY
27	90
28	110
29	290
39	90
41	320
42	30
43	30
50	40
51	100
52	70
53	30
55	150
57	831
58	30
63	60
64	30
65	30
76	40
77	300
78	210
79	210
85	350
89	100
90	140
91	40
103	30
104	370
105	250
106	631
107	190
108	40
127	80
128	140
132	30
133	30
138	50
147	50
190	30
217	30
232	390
233	9999
234	691
259	50
260	90
275	330
276	30
288	20
317	2883
318	380
319	20
