Mass Spectrum: p-Toluic acid, morpholide
Formula: C12 H15 N O2
Molecular weight: 205
Origin: Zaikin V.G., TIPS RAS, Moscow, Russia
m/z	RELATIVE INTENSITY
27	50
28	10
29	40
30	30
39	120
41	70
42	60
50	30
51	60
55	70
56	260
57	40
63	110
64	40
65	621
66	30
69	50
70	30
86	460
87	30
89	210
90	190
91	2122
92	180
105	40
106	90
118	80
119	9999
120	711
121	40
134	30
146	20
148	50
160	30
162	40
174	140
176	30
177	60
190	530
191	60
204	1922
205	1161
206	160
