Mass Spectrum: Benzamide, N-(2-iodo-4-methylphenyl)-4-butyl-
Formula: C18 H20 I N O
Molecular weight: 393
Origin: Zaikin V.G., TIPS RAS, Moscow, Russia
m/z	RELATIVE INTENSITY
28	10
39	30
41	50
51	40
55	50
63	30
65	80
76	30
77	140
78	90
79	60
89	120
90	380
91	901
92	80
103	100
104	160
105	180
106	50
115	40
117	30
118	300
119	50
127	30
128	70
131	130
132	30
133	90
159	60
161	9999
162	1031
163	70
222	50
223	70
232	60
233	140
258	30
266	70
267	40
393	3173
394	611
395	60
