Mass Spectrum: Octanamide, N-(2,5-dimethoxyphenyl)-
Formula: C16 H25 N O3
Molecular weight: 279
Origin: Zaikin V.G., TIPS RAS, Moscow, Russia
m/z	RELATIVE INTENSITY
26	30
27	110
28	70
29	190
39	100
41	420
42	80
43	370
51	40
52	70
53	60
54	30
55	460
56	50
57	540
65	60
67	80
68	60
69	70
77	50
78	30
79	110
80	50
81	50
82	40
83	60
90	30
92	80
93	80
94	40
95	190
96	30
97	30
98	40
106	30
107	120
108	60
109	100
110	290
111	70
122	170
123	150
124	100
125	100
127	40
135	30
136	80
137	40
138	7727
139	721
140	60
150	150
151	90
152	130
153	9999
154	1181
155	100
162	30
163	80
164	290
165	350
166	60
171	110
173	110
176	20
179	80
180	70
195	380
196	40
208	130
232	20
236	60
248	120
278	30
279	5405
280	911
