Mass Spectrum: Butanamide, N-(4-fluorophenyl)-
Formula: C10 H12 F N O
Molecular weight: 181
Origin: Zaikin V.G., TIPS RAS, Moscow, Russia
m/z	RELATIVE INTENSITY
26	30
27	340
28	10
29	30
38	30
39	180
41	510
42	60
43	1651
44	50
50	30
51	30
52	30
55	100
56	20
57	240
62	30
63	80
64	60
65	30
69	50
70	40
71	641
72	30
75	160
81	50
82	100
83	731
84	370
85	20
89	30
91	40
94	30
95	250
96	50
109	160
110	420
111	9999
112	621
124	50
137	60
138	100
181	741
182	80
