Mass Spectrum: Butanamide, N-(1-naphthyl)-
Formula: C14 H15 N O
Molecular weight: 213
Origin: Zaikin V.G., TIPS RAS, Moscow, Russia
m/z	RELATIVE INTENSITY
27	90
28	20
39	50
41	140
43	410
63	50
65	30
71	170
77	40
88	30
89	90
113	60
114	120
115	1091
116	310
117	50
126	60
127	170
128	60
140	150
141	110
142	190
143	9999
144	961
145	50
155	20
169	80
170	60
213	2152
214	330
