Mass Spectrum: Benzamide, N-(1-naphthyl)-2-chloro-
Formula: C17 H12 Cl N O
Molecular weight: 281
Origin: Zaikin V.G., TIPS RAS, Moscow, Russia
m/z	RELATIVE INTENSITY
28	10
36	40
39	40
50	70
51	70
63	70
65	40
74	50
75	370
76	120
77	130
85	20
87	30
88	40
89	120
105	60
110	30
111	1752
112	170
113	641
114	180
115	961
116	160
126	40
127	70
135	30
138	40
139	9999
140	841
141	3383
142	270
143	390
144	540
145	50
169	40
189	30
202	40
216	90
217	110
245	110
246	310
247	60
282	851
283	1491
284	280
