Mass Spectrum: Acetamide, N-(3-chlorophenyl)-2-(2-thienyl)-
Formula: C12 H10 Cl N O S
Molecular weight: 251
Origin: Zaikin V.G., TIPS RAS, Moscow, Russia
m/z	RELATIVE INTENSITY
26	40
27	90
28	30
36	70
37	30
38	90
39	350
41	30
44	40
45	831
46	30
47	70
50	110
51	150
52	100
53	691
54	30
57	30
58	100
61	30
62	90
63	330
64	170
65	180
69	180
70	150
71	120
73	100
74	40
75	330
76	110
77	30
82	30
85	40
89	40
90	200
91	170
92	100
93	30
95	120
96	561
97	9999
98	8237
99	1211
100	440
101	120
102	30
111	911
112	70
113	270
119	30
124	1591
125	290
126	831
127	1251
128	330
129	390
130	30
153	420
154	1271
155	240
156	410
157	30
251	4724
252	681
253	1732
254	250
255	80
