Mass Spectrum: Benzamide, N-(2,5-dimethoxyphenyl)-4-methyl-
Formula: C16 H17 N O3
Molecular weight: 271
Origin: Zaikin V.G., TIPS RAS, Moscow, Russia
m/z	RELATIVE INTENSITY
28	20
39	70
41	30
51	40
52	50
63	50
65	370
66	30
68	20
79	50
89	100
90	130
91	2052
92	180
93	40
95	40
107	40
109	30
118	60
119	9999
120	751
121	50
122	40
123	40
125	40
136	30
138	170
139	40
151	40
152	40
153	50
154	60
225	30
239	40
240	350
241	80
256	250
257	40
271	5625
272	891
273	100
