Mass Spectrum: Benzamide, N-(2,5-dimethoxyphenyl)-4-butyl-
Formula: C19 H23 N O3
Molecular weight: 313
Origin: Zaikin V.G., TIPS RAS, Moscow, Russia
m/z	RELATIVE INTENSITY
28	10
39	30
41	50
55	60
65	80
77	90
78	30
79	60
89	80
90	310
91	1011
92	110
93	40
95	30
103	80
104	70
105	110
107	30
109	30
115	40
116	30
117	30
118	290
119	100
122	30
123	40
124	30
125	40
131	120
133	90
135	30
138	140
139	30
151	40
152	50
153	40
154	50
159	90
161	9999
162	981
163	70
238	20
242	30
270	40
282	300
283	90
298	90
313	4984
314	971
315	120
