Mass Spectrum: Benzamide, N-(4-bromophenyl)-3-methoxy-
Formula: C14 H12 Br N O2
Molecular weight: 305
Origin: Zaikin V.G., TIPS RAS, Moscow, Russia
m/z	RELATIVE INTENSITY
28	10
38	20
39	50
50	50
51	40
63	180
64	290
65	90
75	30
76	120
77	881
78	80
79	40
90	30
91	130
92	801
93	60
104	30
107	1481
108	130
113	90
119	60
133	30
135	9999
136	751
137	60
143	30
145	30
154	30
171	120
172	30
173	110
225	70
226	40
305	1842
306	290
307	1792
308	280
