Mass Spectrum: Benzamide, N-(4-methoxyphenyl)-4-methyl-
Formula: C15 H15 N O2
Molecular weight: 241
Origin: Zaikin V.G., TIPS RAS, Moscow, Russia
m/z	RELATIVE INTENSITY
28	30
39	90
41	80
51	60
52	80
53	50
63	80
64	50
65	500
66	30
77	30
79	40
80	60
89	130
90	140
91	2282
92	200
95	140
107	50
108	80
109	40
118	50
119	9999
120	731
121	40
122	170
123	80
124	60
240	40
241	4844
242	721
243	70
