Mass Spectrum: Benzamide, N-(3-methylphenyl)-2-chloro-
Formula: C14 H12 Cl N O
Molecular weight: 245
Origin: Zaikin V.G., TIPS RAS, Moscow, Russia
m/z	RELATIVE INTENSITY
28	10
36	40
39	70
50	90
51	120
52	40
53	30
63	40
65	90
74	40
75	450
76	140
77	330
78	100
79	100
85	40
91	110
104	50
105	80
106	150
107	200
108	70
110	30
111	1702
112	150
113	561
114	40
119	50
132	40
138	30
139	9999
140	671
141	3413
142	220
167	30
180	60
181	30
210	450
211	70
245	3693
246	561
247	1251
248	180
