Mass Spectrum: Butanamide, N-(2,5-dimethoxyphenyl)-
Formula: C12 H17 N O3
Molecular weight: 223
Origin: Zaikin V.G., TIPS RAS, Moscow, Russia
m/z	RELATIVE INTENSITY
27	140
28	40
39	100
41	250
42	30
43	601
51	70
52	110
53	60
54	20
55	80
63	30
65	70
66	30
67	60
68	80
69	60
70	30
71	180
77	50
78	40
79	160
80	70
82	40
90	30
92	80
93	90
94	50
95	220
96	20
106	30
107	130
108	70
109	90
110	360
111	60
122	140
123	80
124	70
125	100
136	70
137	30
138	9999
139	751
140	60
150	170
151	60
152	110
153	5865
154	540
155	40
163	40
164	210
165	380
166	40
179	70
180	110
192	150
208	50
223	5925
224	731
225	80
