Mass Spectrum: Pentanamide, N-(3-methylphenyl)-
Formula: C12 H17 N O
Molecular weight: 191
Origin: Zaikin V.G., TIPS RAS, Moscow, Russia
m/z	RELATIVE INTENSITY
27	100
28	100
29	260
39	110
41	260
42	20
51	50
52	40
53	40
55	130
57	460
63	30
65	140
77	280
78	110
79	190
80	50
85	140
89	40
90	30
91	330
92	30
93	40
104	70
105	50
106	1031
107	9999
108	711
109	20
120	30
132	40
133	60
134	130
148	90
149	540
150	50
162	40
190	30
191	1702
192	230
