Mass Spectrum: Benzamide, N-(4-bromophenyl)-4-butyl-
Formula: C17 H18 Br N O
Molecular weight: 331
Origin: Zaikin V.G., TIPS RAS, Moscow, Russia
m/z	RELATIVE INTENSITY
39	40
41	60
55	50
63	50
64	40
65	130
76	30
77	110
78	40
79	30
89	140
90	440
91	971
92	120
103	100
104	70
105	90
115	50
117	30
118	360
119	50
131	100
133	80
159	50
161	9999
162	981
163	70
171	90
173	90
331	861
332	170
333	881
334	160
