Mass Spectrum: Benzamide, N-(4-fluorophenyl)-3-methoxy-
Formula: C14 H12 F N O2
Molecular weight: 245
Origin: Zaikin V.G., TIPS RAS, Moscow, Russia
m/z	RELATIVE INTENSITY
28	10
38	30
39	50
50	60
51	60
57	70
62	30
63	190
64	350
65	50
75	70
76	140
77	1121
78	100
79	50
82	30
83	190
84	60
92	1001
93	80
95	40
104	30
107	1932
108	160
109	40
110	60
111	180
119	30
122	30
133	60
135	9999
136	741
137	80
172	30
185	30
201	40
230	40
244	40
245	3563
246	520
247	50
