Mass Spectrum: Benzamide, N-(1-naphthyl)-3-trifluoromethyl-
Formula: C18 H12 F3 N O
Molecular weight: 315
Origin: Zaikin V.G., TIPS RAS, Moscow, Russia
m/z	RELATIVE INTENSITY
28	10
39	30
50	50
51	40
63	70
65	40
74	30
75	110
76	50
77	30
88	40
89	110
95	190
113	70
114	130
115	1241
116	190
125	130
126	200
127	90
140	150
141	80
142	140
143	330
144	901
145	3753
146	300
169	30
172	40
173	9999
174	721
175	40
296	210
297	40
314	40
315	5385
316	971
317	100
