Mass Spectrum: Benzamide, N-(4-fluorophenyl)-4-methyl-
Formula: C14 H12 F N O
Molecular weight: 229
Origin: Zaikin V.G., TIPS RAS, Moscow, Russia
m/z	RELATIVE INTENSITY
28	50
39	130
41	50
50	30
51	60
57	60
62	30
63	130
64	50
65	671
66	30
75	30
83	180
84	60
89	210
90	180
91	2612
92	210
109	30
110	50
111	170
118	60
119	9999
120	711
121	40
185	50
228	40
229	2512
230	360
231	30
