Mass Spectrum: Benzamide, N-(2-iodo-4-methylphenyl)-4-methyl-
Formula: C15 H14 I N O
Molecular weight: 351
Origin: Zaikin V.G., TIPS RAS, Moscow, Russia
m/z	RELATIVE INTENSITY
28	30
39	70
41	30
50	30
51	80
52	50
63	70
64	30
65	420
76	30
77	110
78	120
79	50
89	150
90	160
91	1892
92	160
104	200
105	140
106	50
118	50
119	9999
120	731
121	40
127	50
128	100
223	60
224	70
225	60
226	20
232	60
233	140
234	30
351	4754
352	741
353	60
