Mass Spectrum: Benzamide, N-(3-chlorophenyl)-4-methyl-
Formula: C14 H12 Cl N O
Molecular weight: 245
Origin: Zaikin V.G., TIPS RAS, Moscow, Russia
m/z	RELATIVE INTENSITY
28	50
39	130
41	50
50	30
51	60
62	30
63	150
64	70
65	641
66	40
75	40
89	190
90	180
91	2282
92	200
99	90
101	30
104	40
105	30
118	50
119	9999
120	711
121	40
122	30
127	160
129	50
245	1692
246	260
247	530
248	80
