Mass Spectrum: Benzamide, N-(3-nitrophenyl)-3-methoxy-
Formula: C14 H12 N2 O4
Molecular weight: 272
Origin: Zaikin V.G., TIPS RAS, Moscow, Russia
m/z	RELATIVE INTENSITY
28	10
30	20
38	50
39	90
41	30
50	90
51	80
52	40
53	30
62	30
63	260
64	450
65	130
75	50
76	180
77	1321
78	120
79	100
80	30
90	30
91	110
92	1121
93	90
104	40
105	30
106	30
107	2012
108	190
119	100
133	50
135	9999
136	841
137	70
138	50
154	30
182	30
183	60
225	60
241	30
242	250
243	40
257	30
272	1511
273	250
274	30
