Mass Spectrum: Benzamide, N-(4-fluorophenyl)-3-trifluoromethyl-
Formula: C14 H9 F4 N O
Molecular weight: 283
Origin: Zaikin V.G., TIPS RAS, Moscow, Russia
m/z	RELATIVE INTENSITY
28	20
50	70
51	40
57	130
63	40
69	40
74	30
75	200
76	50
81	40
82	50
83	310
84	60
95	360
96	30
109	50
110	80
111	180
112	40
119	40
125	220
126	200
144	70
145	4384
146	330
172	30
173	9999
174	711
175	40
185	30
264	360
265	70
282	40
283	4044
284	571
285	50
