Mass Spectrum: Acetamide, N-(3-methylphenyl)-2-(2-thienyl)-
Formula: C13 H13 N O S
Molecular weight: 231
Origin: Zaikin V.G., TIPS RAS, Moscow, Russia
m/z	RELATIVE INTENSITY
26	50
27	130
28	10
36	30
38	60
39	460
40	40
41	80
44	40
45	721
47	60
50	110
51	270
52	190
53	751
54	50
57	20
58	80
62	40
63	220
64	90
65	681
66	70
69	170
70	140
71	110
76	40
77	681
78	330
79	400
80	60
82	30
89	130
90	100
91	2993
92	250
93	30
95	110
96	410
97	8277
98	9999
99	941
100	430
102	100
104	300
105	110
106	2082
107	3333
108	390
111	30
116	60
124	420
125	50
132	310
133	1241
134	3023
135	300
141	50
146	50
184	30
196	30
202	20
213	40
231	8688
232	1341
233	500
234	60
