Mass Spectrum: Pentanamide, N-(1-naphthyl)-
Formula: C15 H17 N O
Molecular weight: 227
Origin: Zaikin V.G., TIPS RAS, Moscow, Russia
m/z	RELATIVE INTENSITY
27	50
28	60
29	170
39	50
41	170
55	90
57	320
63	40
77	40
85	100
89	70
113	50
114	100
115	991
116	280
117	40
126	60
127	190
128	60
140	130
141	120
142	190
143	9999
144	1071
145	60
169	90
170	70
184	70
185	50
227	2002
228	330
229	30
