Mass Spectrum: Benzamide, N-(1-naphthyl)-4-methyl-
Formula: C18 H15 N O
Molecular weight: 261
Origin: Zaikin V.G., TIPS RAS, Moscow, Russia
m/z	RELATIVE INTENSITY
28	30
39	70
41	30
51	40
63	90
65	450
89	170
90	130
91	2252
92	180
113	40
114	70
115	601
116	110
118	50
119	9999
120	701
121	40
127	40
140	90
141	60
142	50
143	330
144	130
260	30
261	4114
262	731
263	80
