Mass Spectrum: Benzamide, N-(3-nitrophenyl)-4-methyl-
Formula: C14 H12 N2 O3
Molecular weight: 256
Origin: Zaikin V.G., TIPS RAS, Moscow, Russia
m/z	RELATIVE INTENSITY
28	40
39	100
41	40
50	30
51	50
63	110
64	70
65	550
66	30
76	20
89	150
90	150
91	2312
92	220
118	50
119	9999
120	701
121	40
138	30
180	30
209	30
226	70
256	250
257	40
