Mass Spectrum: 1-Naphthoic acid, 4-chlorophenyl ester
Formula: C17 H11 Cl O2
Molecular weight: 282
Origin: Zaikin V.G., TIPS RAS, Moscow, Russia
m/z	RELATIVE INTENSITY
75	50
77	170
99	30
101	120
126	330
127	3303
128	400
154	20
155	9999
156	1231
157	80
282	200
283	30
284	70
