Mass Spectrum: Acetoxyacetic acid, 3-methylphenyl ester
Formula: C11 H12 O4
Molecular weight: 208
Origin: Zaikin V.G., TIPS RAS, Moscow, Russia
m/z	RELATIVE INTENSITY
27	70
28	10
29	40
39	210
41	20
42	120
43	4004
44	90
50	50
51	140
52	90
53	140
63	80
64	30
65	190
73	1962
74	70
77	721
78	220
79	520
80	190
89	50
90	190
91	370
92	30
100	70
101	5375
102	240
103	30
107	1541
108	9999
109	831
110	40
121	100
208	1211
209	230
