Mass Spectrum: Acetamide, N-tetrahydrofurfuryl-2,2-dichloro-
Formula: C7 H11 Cl2 N O2
Molecular weight: 211
Origin: Zaikin V.G., TIPS RAS, Moscow, Russia
m/z	RELATIVE INTENSITY
26	30
27	370
28	50
29	310
30	470
31	60
36	120
38	40
39	250
40	60
41	941
42	270
43	2352
44	180
48	70
49	40
53	70
54	110
55	220
56	170
57	60
58	30
67	150
68	30
69	50
70	160
71	9999
72	450
76	160
77	50
78	50
82	130
83	380
84	761
85	350
86	40
100	90
105	30
106	290
108	80
110	60
128	510
129	30
140	180
141	60
142	130
143	30
144	20
146	60
153	30
211	180
