Mass Spectrum: Benzamide, N-(3-chlorophenyl)-2,3,4-trifluoro-
Formula: C13 H7 Cl F3 N O
Molecular weight: 285
Origin: Zaikin V.G., TIPS RAS, Moscow, Russia
m/z	RELATIVE INTENSITY
28	10
39	30
62	50
63	120
64	60
65	40
73	50
75	80
81	530
90	40
91	60
99	150
101	40
111	50
112	60
127	130
128	50
129	40
130	70
131	1842
132	160
159	9999
160	641
161	30
285	2712
286	400
287	891
288	120
