Mass Spectrum: Propanamide, N-(3-nitrophenyl)-2-methyl-
Formula: C10 H12 N2 O3
Molecular weight: 208
Origin: Zaikin V.G., TIPS RAS, Moscow, Russia
m/z	RELATIVE INTENSITY
26	50
27	681
28	50
30	130
37	30
38	130
39	540
40	90
41	1391
42	410
43	9999
44	420
50	220
51	150
52	200
53	70
54	80
55	160
56	30
62	80
63	470
64	601
65	861
66	110
69	70
70	3333
71	4834
72	220
74	60
75	230
76	460
77	80
78	70
79	110
80	210
81	60
90	340
91	831
92	1341
93	200
105	40
106	80
107	40
108	320
109	40
117	50
118	110
119	220
120	40
122	210
123	30
133	50
134	30
135	30
137	220
138	4374
139	350
145	30
146	30
147	30
149	30
161	40
163	30
164	30
165	450
166	30
178	100
179	40
192	30
193	60
208	2412
209	420
210	40
