Mass Spectrum: 4-Bromobutyric acid, 3,4-dichlorophenyl ester
Formula: C10 H9 Br Cl2 O2
Molecular weight: 310
Origin: Zaikin V.G., TIPS RAS, Moscow, Russia
m/z	RELATIVE INTENSITY
27	80
28	10
36	30
39	200
41	2772
42	430
55	340
62	40
63	290
68	50
69	210
73	150
74	40
75	70
77	50
80	30
83	30
93	50
95	50
97	40
98	110
99	240
100	40
101	70
105	280
107	160
109	230
110	40
111	50
121	2382
122	60
123	2292
124	60
126	80
127	60
128	50
133	440
134	70
135	300
136	30
137	30
145	290
147	190
148	60
149	9118
150	450
151	9098
152	390
159	30
161	120
162	9999
163	881
164	6596
165	530
166	1071
167	70
189	110
191	70
196	30
198	30
204	90
206	50
310	711
311	60
312	1211
313	110
314	550
315	40
316	60
