Mass Spectrum: 2,6-Difluorobenzoic acid, 3-methylphenyl ester
Formula: C14 H10 F2 O2
Molecular weight: 248
Origin: Zaikin V.G., TIPS RAS, Moscow, Russia
m/z	RELATIVE INTENSITY
28	20
39	50
51	40
53	30
63	270
65	20
77	140
78	50
79	60
93	40
107	60
108	40
112	50
113	921
114	80
140	30
141	9999
142	701
143	40
248	1291
249	200
