Mass Spectrum: o-Toluic acid, 4-methoxyphenyl ester
Formula: C15 H14 O3
Molecular weight: 242
Origin: Zaikin V.G., TIPS RAS, Moscow, Russia
m/z	RELATIVE INTENSITY
28	40
39	100
41	80
51	50
52	50
63	80
64	40
65	520
80	30
89	120
90	130
91	2382
92	210
95	90
109	70
118	50
119	9999
120	801
121	50
123	170
124	80
242	761
243	110
