Mass Spectrum: 2-Furancarboxamide, N-(2-iodo-4-methylphenyl)-
Formula: C12 H10 I N O2
Molecular weight: 327
Origin: Zaikin V.G., TIPS RAS, Moscow, Russia
m/z	RELATIVE INTENSITY
27	30
28	20
38	60
39	450
50	70
51	190
52	120
53	30
63	90
64	40
65	40
66	30
67	120
75	30
76	70
77	260
78	270
79	90
89	100
90	110
91	30
94	40
95	8368
96	410
97	40
103	50
104	440
105	290
106	100
107	40
115	40
117	30
127	110
128	210
132	30
142	30
143	70
144	40
171	40
172	40
199	70
200	100
201	60
230	30
232	2112
233	310
234	290
258	60
259	70
270	20
284	40
296	40
298	1201
299	230
310	100
312	30
326	30
327	9999
328	1151
329	100
