Mass Spectrum: 2-Trifluoromethylbenzoic acid, 3-methylphenyl ester
Formula: C15 H11 F3 O2
Molecular weight: 280
Origin: Zaikin V.G., TIPS RAS, Moscow, Russia
m/z	RELATIVE INTENSITY
65	30
75	50
77	100
79	60
91	40
95	170
107	40
125	100
126	50
144	40
145	2062
146	160
151	70
173	9999
174	891
175	50
280	921
281	310
