Mass Spectrum: 3-Fluorobenzoic acid, 4-methoxyphenyl ester
Formula: C14 H11 F O3
Molecular weight: 246
Origin: Zaikin V.G., TIPS RAS, Moscow, Russia
m/z	RELATIVE INTENSITY
28	10
39	40
41	90
50	40
51	50
52	70
53	30
54	40
63	40
64	30
65	40
69	40
75	290
76	30
80	40
94	80
95	2382
96	180
109	50
123	9999
124	761
125	40
246	2592
247	420
248	40
