Mass Spectrum: o-Toluic acid, 4-chlorophenyl ester
Formula: C14 H11 Cl O2
Molecular weight: 246
Origin: Zaikin V.G., TIPS RAS, Moscow, Russia
m/z	RELATIVE INTENSITY
28	60
39	160
41	50
50	30
51	70
62	30
63	160
64	60
65	741
66	30
73	60
75	50
89	200
90	160
91	2853
92	230
99	110
101	30
105	30
118	50
119	9999
120	791
121	40
127	50
128	100
130	30
246	70
248	30
