Mass Spectrum: Benzamide, N-(3-chlorophenyl)-2-methoxy-
Formula: C14 H12 Cl N O2
Molecular weight: 261
Origin: Zaikin V.G., TIPS RAS, Moscow, Russia
m/z	RELATIVE INTENSITY
28	10
39	50
50	50
51	90
63	140
64	180
65	80
75	50
76	70
77	1071
78	90
79	80
90	30
91	50
92	641
93	60
99	80
105	90
111	30
113	50
120	130
121	60
127	190
129	60
131	30
135	9999
136	731
137	60
153	30
261	1491
262	230
263	510
264	70
