Mass Spectrum: trans-Cinnamamide, N-(3-methylphenyl)-3-trifluoromethyl-
Formula: C17 H14 F3 N O
Molecular weight: 305
Origin: Zaikin V.G., TIPS RAS, Moscow, Russia
m/z	RELATIVE INTENSITY
27	40
28	40
39	120
41	30
50	80
51	150
52	70
53	60
63	80
64	30
65	130
69	40
74	40
75	130
76	80
77	440
78	150
79	250
80	40
89	40
90	30
91	180
95	110
101	130
102	631
103	80
104	70
105	30
106	831
107	9999
108	801
109	30
119	30
120	110
121	30
125	100
126	60
130	40
131	30
132	60
133	50
143	180
145	340
146	90
151	3373
152	430
153	50
159	40
160	180
169	200
170	210
171	2983
172	330
178	30
179	40
180	30
197	30
198	30
199	7967
200	821
201	50
261	30
276	40
286	430
287	70
304	70
305	3303
306	631
307	70
