Mass Spectrum: 2,6-Difluorobenzoic acid, 2-naphthyl ester
Formula: C17 H10 F2 O2
Molecular weight: 284
Origin: Zaikin V.G., TIPS RAS, Moscow, Russia
m/z	RELATIVE INTENSITY
28	20
39	30
62	30
63	270
65	40
89	90
112	40
113	961
114	120
115	500
116	60
127	30
140	30
141	9999
142	721
143	60
144	90
284	2382
285	440
286	40
