Mass Spectrum: 3-Bromobenzoic acid, 4-cyanophenyl ester
Formula: C14 H8 Br N O2
Molecular weight: 301
Origin: Zaikin V.G., TIPS RAS, Moscow, Russia
m/z	RELATIVE INTENSITY
26	40
27	30
28	50
36	50
37	110
38	130
39	210
44	70
49	40
50	1211
51	240
52	40
53	30
62	90
63	280
64	330
65	40
73	50
74	440
75	1932
76	2372
77	230
80	50
82	50
90	290
91	110
102	40
103	40
104	240
105	120
118	50
119	220
129	60
131	50
139	30
140	40
154	30
155	3073
156	240
157	2923
158	200
166	30
183	9999
184	781
185	9549
186	721
187	30
301	80
303	80
