Mass Spectrum: 5-Bromovaleric acid, 2-naphthyl ester
Formula: C15 H15 Br O2
Molecular weight: 306
Origin: Zaikin V.G., TIPS RAS, Moscow, Russia
m/z	RELATIVE INTENSITY
27	30
29	50
55	520
89	60
115	871
116	200
127	140
135	140
137	110
139	40
143	40
144	9999
145	1281
146	80
163	60
165	60
306	310
307	40
308	310
309	40
