Mass Spectrum: m-Toluic acid, 3,5-dimethylphenyl ester
Formula: C16 H16 O2
Molecular weight: 240
Origin: Zaikin V.G., TIPS RAS, Moscow, Russia
m/z	RELATIVE INTENSITY
27	30
28	70
39	150
41	60
44	30
50	30
51	80
52	30
53	50
63	100
64	30
65	691
66	40
77	190
78	50
79	40
89	170
90	160
91	2712
92	220
93	30
107	80
118	50
119	9999
120	811
121	130
122	90
240	1071
241	170
