Mass Spectrum: p-Anisic acid, 3-methylphenyl ester
Formula: C15 H14 O3
Molecular weight: 242
Origin: Zaikin V.G., TIPS RAS, Moscow, Russia
m/z	RELATIVE INTENSITY
28	10
51	30
63	50
64	140
65	30
76	40
77	721
78	60
79	70
91	40
92	420
107	601
108	80
135	9999
136	891
137	70
152	340
242	270
243	30
