Mass Spectrum: 3,5-Dimethyl-1-dimethyldodecylsilyloxybenzene
Formula: C22 H40 O Si
Molecular weight: 348
Origin: Zaikin V.G., TIPS RAS, Moscow, Russia
m/z	RELATIVE INTENSITY
28	30
59	80
75	100
91	70
99	60
105	550
106	60
113	50
119	100
149	130
163	320
164	80
165	1762
166	270
167	80
177	80
178	40
179	9999
180	2222
181	591
182	70
191	50
205	40
211	120
333	821
334	220
335	50
348	8638
349	2682
350	751
351	110
