Mass Spectrum: Benzamide, N-(2,5-dimethoxyphenyl)-4-trifluoromethyl-
Formula: C16 H14 F3 N O3
Molecular weight: 325
Origin: Zaikin V.G., TIPS RAS, Moscow, Russia
m/z	RELATIVE INTENSITY
28	20
39	50
50	50
51	70
52	110
53	40
63	20
65	50
68	70
69	50
75	80
76	50
77	40
78	30
79	130
80	60
81	30
82	30
92	70
93	90
94	40
95	260
96	30
107	100
108	60
109	90
110	50
122	120
123	110
124	130
125	330
126	220
127	30
136	60
138	260
139	230
144	40
145	3243
146	280
150	50
151	30
152	90
153	50
154	140
164	60
172	30
173	9999
174	841
175	50
250	30
278	40
279	50
282	80
293	60
294	691
295	140
306	490
307	80
310	2432
311	430
312	40
325	8708
326	1441
327	160
