Mass Spectrum: 4-Fluorobenzoic acid, 3,4-dichlorophenyl ester
Formula: C13 H7 Cl2 F O2
Molecular weight: 284
Origin: Zaikin V.G., TIPS RAS, Moscow, Russia
m/z	RELATIVE INTENSITY
28	20
50	50
51	30
62	30
63	120
69	60
73	50
74	60
75	470
76	40
94	100
95	2032
96	140
99	30
109	30
123	9999
124	711
125	40
133	90
135	60
162	60
164	40
284	210
286	140
