Mass Spectrum: 4-Trifluoromethylbenzoic acid, 4-cyanophenyl ester
Formula: C15 H8 F3 N O2
Molecular weight: 291
Origin: Zaikin V.G., TIPS RAS, Moscow, Russia
m/z	RELATIVE INTENSITY
39	40
50	70
51	40
63	60
64	70
75	150
76	50
90	100
91	50
95	290
118	30
119	110
125	190
126	120
144	60
145	2943
146	230
154	40
159	30
173	9999
174	761
175	40
272	150
291	50
