Mass Spectrum: Nicotinic acid, 4-cyanophenyl ester
Formula: C13 H8 N2 O2
Molecular weight: 224
Origin: Zaikin V.G., TIPS RAS, Moscow, Russia
m/z	RELATIVE INTENSITY
28	20
50	70
51	811
52	70
64	40
78	2943
79	180
90	50
106	9999
107	661
119	70
122	370
224	180
