Mass Spectrum: 2-Fluorobenzoic acid, 3-methylphenyl ester
Formula: C14 H11 F O2
Molecular weight: 230
Origin: Zaikin V.G., TIPS RAS, Moscow, Russia
m/z	RELATIVE INTENSITY
75	230
77	90
79	50
94	40
95	1201
96	80
107	40
123	9999
124	751
125	40
230	1381
231	220
