Mass Spectrum: 2-Trifluoromethylbenzoic acid, 4-cyanophenyl ester
Formula: C15 H8 F3 N O2
Molecular weight: 291
Origin: Zaikin V.G., TIPS RAS, Moscow, Russia
m/z	RELATIVE INTENSITY
63	40
64	40
75	120
90	80
95	290
119	50
125	160
126	70
144	50
145	2562
146	190
151	30
173	9999
174	871
175	40
272	80
