Mass Spectrum: trans-Cinnamamide, N-tetrahydrofurfuryl-3-trifluoromethyl-
Formula: C15 H16 F3 N O2
Molecular weight: 299
Origin: Zaikin V.G., TIPS RAS, Moscow, Russia
m/z	RELATIVE INTENSITY
26	40
27	230
28	30
29	140
30	140
36	70
39	150
40	30
41	661
42	150
43	2452
44	210
50	70
51	110
53	40
54	30
55	100
56	190
57	100
63	50
67	30
69	100
70	170
71	9999
72	450
73	40
74	60
75	220
76	130
77	80
81	40
82	50
83	180
84	4884
85	290
95	180
96	40
98	30
99	80
100	50
101	200
102	701
103	110
107	30
115	40
117	40
119	40
120	170
121	40
125	150
126	100
127	40
131	170
132	30
133	60
140	50
143	30
144	30
145	410
146	70
151	3463
152	450
153	40
159	50
160	80
165	40
169	290
170	290
171	2182
172	330
173	50
178	100
179	20
180	70
181	50
183	70
185	40
186	130
194	40
196	120
197	100
198	120
199	4604
200	621
201	60
210	30
211	60
212	90
213	30
214	180
215	60
216	601
217	60
228	1992
229	5285
230	931
231	80
240	50
241	40
255	60
256	70
280	821
281	110
299	420
300	80
