Mass Spectrum: m-Anisic acid, 3,5-dimethylphenyl ester
Formula: C16 H16 O3
Molecular weight: 256
Origin: Zaikin V.G., TIPS RAS, Moscow, Russia
m/z	RELATIVE INTENSITY
63	50
64	150
76	60
77	771
78	70
79	50
91	60
92	510
93	40
107	1411
108	110
119	30
121	40
135	9999
136	891
137	70
256	1922
257	330
258	30
