Mass Spectrum: Heptafluorobutyric acid, 3,5-dimethylphenyl ester
Formula: C12 H9 F7 O2
Molecular weight: 318
Origin: Zaikin V.G., TIPS RAS, Moscow, Russia
m/z	RELATIVE INTENSITY
28	160
36	40
39	30
44	40
45	30
51	40
52	60
53	50
65	50
69	210
77	510
78	140
79	290
91	440
92	70
93	360
100	50
103	150
104	821
105	1732
106	150
107	70
108	100
109	50
119	70
121	1571
122	140
149	180
150	60
169	280
271	70
275	360
276	30
277	40
289	50
303	250
316	30
317	290
318	9999
319	1401
320	130
