Mass Spectrum: 1-Adamantanecarboxamide, N-(2-iodo-4-methylphenyl)-
Formula: C18 H22 I N O
Molecular weight: 395
Origin: Zaikin V.G., TIPS RAS, Moscow, Russia
m/z	RELATIVE INTENSITY
27	30
28	10
29	30
39	80
41	200
43	30
51	70
52	50
53	90
55	190
57	30
63	30
65	80
66	30
67	330
69	80
77	410
78	200
79	931
80	80
81	260
89	60
90	100
91	340
92	90
93	801
94	70
103	30
104	230
105	310
106	120
107	430
108	40
119	30
127	30
128	50
133	40
135	9999
136	1051
137	50
163	110
183	40
232	150
233	190
234	30
259	70
268	120
269	60
310	230
311	30
367	100
395	3733
396	741
397	70
