Mass Spectrum: 3,5-Dimethyl-1-dimethylvinylsilyloxybenzene
Formula: C12 H18 O Si
Molecular weight: 206
Origin: Zaikin V.G., TIPS RAS, Moscow, Russia
m/z	RELATIVE INTENSITY
28	20
59	290
61	80
65	30
75	490
77	170
78	30
79	140
82	100
83	80
85	150
87	40
88	130
91	120
95	30
96	60
103	110
104	30
105	841
106	60
115	30
117	80
119	110
123	30
128	120
129	40
130	30
131	50
132	420
133	40
135	70
145	50
147	60
148	30
149	510
150	80
151	40
161	120
162	30
163	1672
164	300
165	1161
166	150
167	30
173	40
175	290
176	80
177	140
178	60
179	861
180	130
189	520
190	110
191	9999
192	1752
193	480
194	40
205	220
206	4464
207	581
208	210
