Mass Spectrum: Trichloroacetic acid, morpholide
Formula: C6 H8 Cl3 N O2
Molecular weight: 231
Origin: Zaikin V.G., TIPS RAS, Moscow, Russia
m/z	RELATIVE INTENSITY
26	100
27	591
28	1311
29	540
30	530
31	90
35	220
36	1201
37	60
38	390
39	370
40	120
41	1151
42	1031
43	2472
44	470
45	210
47	110
48	120
49	150
50	50
51	50
52	60
53	80
54	270
55	480
56	1341
57	150
58	70
62	70
63	250
64	40
65	80
67	140
68	50
69	80
70	4524
71	8548
72	420
73	40
75	100
76	280
77	100
78	90
79	40
82	460
83	591
84	921
85	530
86	781
87	80
88	60
89	20
90	60
92	30
100	80
103	30
104	20
105	50
106	240
108	80
110	550
111	40
112	300
114	9999
115	641
116	60
117	571
119	540
121	170
123	70
124	100
126	60
127	30
128	450
132	60
134	40
136	30
138	70
139	30
140	210
141	80
142	110
146	50
153	30
166	450
168	901
169	170
170	450
172	60
195	50
196	240
197	100
198	140
199	50
216	60
218	70
231	761
232	60
233	731
234	40
235	230
