Mass Spectrum: Cyclobutanecarboxamide, N-(1-naphthyl)-
Formula: C15 H15 N O
Molecular weight: 225
Origin: Zaikin V.G., TIPS RAS, Moscow, Russia
m/z	RELATIVE INTENSITY
26	30
27	120
28	50
29	140
39	90
51	30
53	70
55	1221
56	50
63	50
65	30
77	40
83	160
88	30
89	90
113	50
114	110
115	1071
116	230
117	30
126	50
127	160
128	80
129	60
140	140
141	100
142	160
143	9999
144	971
145	50
154	40
156	50
167	30
168	40
169	120
170	50
197	80
225	2502
226	400
227	30
