Mass Spectrum: 4-Bromobutyric acid, 3-methylphenyl ester
Formula: C11 H13 Br O2
Molecular weight: 256
Origin: Zaikin V.G., TIPS RAS, Moscow, Russia
m/z	RELATIVE INTENSITY
27	30
39	90
41	540
42	90
51	20
53	30
55	60
65	70
77	260
78	70
79	210
80	100
90	100
91	190
105	70
107	731
108	9999
109	921
110	50
121	350
123	340
128	150
130	40
135	40
149	601
150	70
151	571
152	20
256	420
257	50
258	420
259	50
