Mass Spectrum: Benzamide, N-(3-nitrophenyl)-4-fluoro-
Formula: C13 H9 F N2 O3
Molecular weight: 260
Origin: Zaikin V.G., TIPS RAS, Moscow, Russia
m/z	RELATIVE INTENSITY
28	10
38	30
39	50
50	80
51	60
52	40
62	30
63	120
64	100
65	60
69	60
74	50
75	561
76	80
91	60
92	40
94	130
95	2893
96	210
122	40
123	9999
124	721
125	40
138	30
184	30
185	30
213	40
230	190
231	30
260	971
261	150
355	50
