Mass Spectrum: Phenylthioacetic acid, 3-methylphenyl ester
Formula: C15 H14 O2 S
Molecular weight: 258
Origin: Zaikin V.G., TIPS RAS, Moscow, Russia
m/z	RELATIVE INTENSITY
28	50
39	140
45	1201
47	40
50	30
51	230
52	50
53	60
63	40
65	370
66	30
69	80
77	841
78	270
79	530
80	40
90	30
91	240
105	1902
106	140
107	440
108	1051
109	741
110	120
111	100
121	661
122	1111
123	6306
124	581
125	310
129	40
150	9999
151	1011
152	530
153	50
173	40
258	2943
259	510
260	180
