Mass Spectrum: Benzamide, N-(3-chlorophenyl)-2,3,4,5,6-pentafluoro-
Formula: C13 H5 Cl F5 N O
Molecular weight: 321
Origin: Zaikin V.G., TIPS RAS, Moscow, Russia
m/z	RELATIVE INTENSITY
28	10
39	40
44	30
62	30
63	130
64	80
65	40
73	60
75	80
90	60
91	70
93	60
98	40
99	230
101	60
111	50
117	400
126	30
127	110
128	200
129	50
130	60
148	90
153	30
167	1752
168	180
176	30
194	30
195	9999
196	691
197	40
258	40
286	30
321	3433
322	490
323	1101
324	150
