Mass Spectrum: 4-Benzyloxy-1-cyclohexyldimethylsilyloxybenzene
Formula: C21 H28 O2 Si
Molecular weight: 340
Origin: Zaikin V.G., TIPS RAS, Moscow, Russia
m/z	RELATIVE INTENSITY
59	2242
60	140
61	60
65	90
73	911
74	50
75	110
79	60
81	1481
82	100
85	40
91	4504
92	360
95	40
99	320
110	80
113	470
114	40
123	130
124	40
135	90
138	200
139	170
141	5875
142	811
143	210
151	100
165	60
166	250
167	5335
168	811
169	230
243	100
249	7827
250	1672
251	410
252	40
257	450
258	90
325	100
340	9999
341	2692
342	681
343	90
