Mass Spectrum: 3-Methyl-1-tributylsilyloxybenzene
Formula: C19 H34 O Si
Molecular weight: 306
Origin: Zaikin V.G., TIPS RAS, Moscow, Russia
m/z	RELATIVE INTENSITY
59	50
77	30
83	100
85	60
91	360
92	60
93	250
105	30
135	1031
136	140
137	2783
138	370
139	110
143	30
149	100
151	711
152	90
163	230
164	60
165	200
189	60
191	771
192	160
193	9999
194	1832
195	500
196	40
199	60
249	7857
250	1832
251	460
252	50
306	3843
307	1001
308	240
309	30
