Mass Spectrum: 2-Furoic acid, 3,5-dimethylphenyl ester
Formula: C13 H12 O3
Molecular weight: 216
Origin: Zaikin V.G., TIPS RAS, Moscow, Russia
m/z	RELATIVE INTENSITY
27	10
38	10
39	240
41	10
51	40
52	10
53	30
65	30
67	130
77	140
78	30
79	30
91	110
92	10
93	20
95	9999
96	581
97	50
103	10
105	10
107	40
111	20
115	10
121	60
122	30
188	40
216	3974
217	591
218	60
