Mass Spectrum: 1-Naphthoic acid, 4-nitrophenyl ester
Formula: C17 H11 N O4
Molecular weight: 293
Origin: Zaikin V.G., TIPS RAS, Moscow, Russia
m/z	RELATIVE INTENSITY
75	30
77	150
101	100
126	290
127	3413
128	400
154	30
155	9999
156	1221
157	80
172	30
293	190
294	30
