Mass Spectrum: 5-Chlorovaleric acid, 4-benzyloxyphenyl ester
Formula: C18 H19 Cl O3
Molecular weight: 318
Origin: Zaikin V.G., TIPS RAS, Moscow, Russia
m/z	RELATIVE INTENSITY
29	60
41	20
55	611
63	30
65	300
91	9999
92	741
93	110
109	30
110	70
119	240
121	40
200	5855
201	811
202	40
318	220
320	80
