Mass Spectrum: 1-Adamantanecarboxylic acid, 2-naphthyl ester
Formula: C21 H22 O2
Molecular weight: 306
Origin: Zaikin V.G., TIPS RAS, Moscow, Russia
m/z	RELATIVE INTENSITY
41	80
55	110
67	220
69	50
77	130
79	661
80	50
81	180
91	260
92	60
93	691
94	50
105	60
107	350
115	330
116	50
127	30
133	40
135	9999
136	1111
137	40
144	550
145	50
163	350
278	230
279	40
306	991
307	210
