Mass Spectrum: 3-Bromobenzoic acid, 3-methylphenyl ester
Formula: C14 H11 Br O2
Molecular weight: 290
Origin: Zaikin V.G., TIPS RAS, Moscow, Russia
m/z	RELATIVE INTENSITY
27	80
28	30
36	30
38	50
39	230
44	30
50	571
51	240
52	120
53	120
63	90
64	40
65	170
74	160
75	881
76	1311
77	611
78	210
79	230
89	30
90	30
91	110
104	270
105	80
107	260
108	160
153	30
155	2232
156	190
157	2152
158	150
183	9999
184	821
185	9639
186	751
187	40
290	1722
291	270
292	1661
293	260
