Mass Spectrum: Thiophene-2-carboxamide, N-(2-iodo-4-methylphenyl)-
Formula: C12 H10 I N O S
Molecular weight: 343
Origin: Zaikin V.G., TIPS RAS, Moscow, Russia
m/z	RELATIVE INTENSITY
28	160
39	420
45	30
50	60
51	130
52	80
53	30
57	40
58	30
63	60
64	20
76	50
77	200
78	200
79	70
82	40
83	370
84	50
89	60
90	60
103	30
104	330
105	200
106	60
111	9999
112	520
113	410
127	80
128	140
215	40
216	50
217	40
232	180
233	160
234	80
310	280
311	30
343	5905
344	741
345	280
346	30
