Mass Spectrum: 2-Chlorobenzoic acid, 4-chlorophenyl ester
Formula: C13 H8 Cl2 O2
Molecular weight: 266
Origin: Zaikin V.G., TIPS RAS, Moscow, Russia
m/z	RELATIVE INTENSITY
50	100
51	60
63	50
73	60
74	40
75	671
76	170
85	60
99	120
101	30
104	40
110	30
111	1712
112	120
113	561
114	30
127	50
128	30
139	9999
140	801
141	3373
142	250
266	250
267	30
268	170
