Mass Spectrum: Trifluoroacetic acid, 4-cyanophenyl ester
Formula: C9 H4 F3 N O2
Molecular weight: 215
Origin: Zaikin V.G., TIPS RAS, Moscow, Russia
m/z	RELATIVE INTENSITY
37	100
38	70
39	290
50	150
51	170
52	50
62	140
63	510
64	561
69	7166
70	40
75	250
76	120
79	60
90	1852
91	110
97	350
102	1251
103	70
109	90
118	611
119	50
121	410
139	60
146	130
159	420
168	310
187	8438
188	781
215	9999
216	1031
217	50
