Mass Spectrum: 4-Chloro-1-diisopropylsilyloxybenzene
Formula: C12 H19 Cl O Si
Molecular weight: 242
Origin: Zaikin V.G., TIPS RAS, Moscow, Russia
m/z	RELATIVE INTENSITY
41	90
61	30
75	100
77	270
79	230
91	150
93	110
107	60
111	340
112	80
113	80
115	140
117	40
119	90
120	30
121	160
124	40
135	2372
136	150
139	30
155	1111
156	60
157	611
158	60
171	9999
172	1101
173	3723
174	370
175	90
180	30
185	50
197	30
198	110
199	2622
200	781
201	931
202	200
242	4654
243	751
244	1702
245	200
