Mass Spectrum: Acetamide, N-tetrahydrofurfuryl-2,2,2-trifluoro-
Formula: C7 H10 F3 N O2
Molecular weight: 197
Origin: Zaikin V.G., TIPS RAS, Moscow, Russia
m/z	RELATIVE INTENSITY
26	50
27	751
28	120
29	510
30	70
31	70
36	30
39	460
40	190
41	2052
42	581
43	4514
44	370
50	60
51	50
53	140
54	330
55	310
56	200
57	150
58	260
59	20
67	140
68	40
69	1371
70	150
71	9999
72	520
73	30
78	370
79	50
82	130
83	120
84	490
85	110
96	40
97	120
98	120
100	60
106	50
108	30
110	80
126	1191
127	170
128	410
129	30
138	140
139	100
152	120
156	50
