Mass Spectrum: 3,4-Dichloro-1-dimethylisopropylsilyloxybenzene
Formula: C11 H16 Cl2 O Si
Molecular weight: 262
Origin: Zaikin V.G., TIPS RAS, Moscow, Russia
m/z	RELATIVE INTENSITY
28	10
43	30
58	30
59	160
63	80
73	220
75	100
77	30
91	40
93	681
94	40
95	250
101	70
109	110
110	40
113	370
115	320
117	40
119	130
125	70
127	30
144	320
145	110
147	80
148	50
149	50
155	130
157	40
159	30
169	150
170	30
171	50
176	120
183	100
184	210
185	80
186	70
189	160
191	170
193	50
203	50
205	130
207	110
219	9999
220	1441
221	7006
222	981
223	1311
224	160
225	30
247	110
249	70
262	2302
263	380
264	1611
265	260
266	300
267	40
