Mass Spectrum: Acetamide, N-tetrahydrofurfuryl-2,2,2-trichloro-
Formula: C7 H10 Cl3 N O2
Molecular weight: 245
Origin: Zaikin V.G., TIPS RAS, Moscow, Russia
m/z	RELATIVE INTENSITY
26	30
27	290
28	40
29	260
30	90
31	50
35	90
36	500
38	160
39	270
40	60
41	951
42	260
43	2182
44	220
47	70
49	40
53	70
54	120
55	300
56	180
57	80
58	30
65	30
67	250
68	40
69	80
70	140
71	9999
72	480
73	30
76	40
82	510
83	460
84	751
85	310
86	50
92	40
100	120
110	440
111	40
112	190
114	30
117	370
119	350
121	110
128	731
129	50
138	40
139	60
140	280
141	50
142	170
144	30
146	80
148	70
174	170
176	160
178	50
180	60
182	50
210	50
