Mass Spectrum: Cyclopentanecarboxamide, N-(4-fluorophenyl)-
Formula: C12 H14 F N O
Molecular weight: 207
Origin: Zaikin V.G., TIPS RAS, Moscow, Russia
m/z	RELATIVE INTENSITY
26	30
27	130
28	20
39	300
40	90
41	1451
42	70
50	20
51	30
53	70
55	280
57	140
63	60
64	40
65	80
66	30
67	280
68	140
69	4684
70	250
75	110
81	30
82	70
83	420
84	250
91	30
93	50
94	30
95	260
96	160
97	591
98	30
109	120
110	390
111	9999
112	641
122	40
124	30
135	30
137	120
138	130
150	50
166	200
206	30
207	1411
208	340
