Mass Spectrum: Heptafluorobutyric acid, 2-naphthyl ester
Formula: C14 H7 F7 O2
Molecular weight: 340
Origin: Zaikin V.G., TIPS RAS, Moscow, Russia
m/z	RELATIVE INTENSITY
28	100
36	40
44	30
63	50
65	40
69	140
79	50
89	90
113	30
114	130
115	3483
116	340
119	30
124	30
126	30
127	781
128	100
143	1672
144	190
169	110
273	40
293	40
339	60
340	9999
341	1551
342	130
