Mass Spectrum: 2-Fluorobenzoic acid, 2-naphthyl ester
Formula: C17 H11 F O2
Molecular weight: 266
Origin: Zaikin V.G., TIPS RAS, Moscow, Russia
m/z	RELATIVE INTENSITY
28	70
75	190
89	40
94	40
95	1281
96	80
115	360
116	30
123	9999
124	801
125	30
266	2522
267	480
268	40
