Mass Spectrum: 2-Di(tert-butyl)silyloxynaphthalene
Formula: C18 H26 O Si
Molecular weight: 286
Origin: Zaikin V.G., TIPS RAS, Moscow, Russia
m/z	RELATIVE INTENSITY
28	40
36	100
57	150
59	70
73	30
75	330
77	60
85	50
94	30
101	190
115	40
119	40
126	90
127	1131
128	1031
129	210
131	210
139	60
141	100
144	50
145	500
146	40
155	550
156	30
159	581
160	80
169	300
170	40
171	1291
172	210
173	400
174	1151
175	170
185	721
186	130
187	4054
188	721
189	140
199	30
201	9649
202	1732
203	420
213	90
227	130
228	500
229	2312
230	7927
231	1672
232	380
233	30
271	50
286	9999
287	2472
288	561
289	60
