Mass Spectrum: Acetamide, N-(4-fluorophenyl)-2-phenyl-
Formula: C14 H12 F N O
Molecular weight: 229
Origin: Zaikin V.G., TIPS RAS, Moscow, Russia
m/z	RELATIVE INTENSITY
26	40
27	30
28	40
38	40
39	310
40	30
41	100
44	50
50	90
51	180
52	60
57	140
62	90
63	330
64	130
65	1171
66	60
74	30
75	130
76	30
77	50
81	30
82	80
83	500
84	200
89	601
90	841
91	8718
92	1371
93	70
95	270
96	30
109	200
110	711
111	9999
112	651
118	1712
119	611
120	40
122	40
124	40
136	170
137	571
138	290
198	40
200	50
211	40
229	4484
230	691
231	50
