Mass Spectrum: Propanamide, N-(3-chlorophenyl)-2,2-dimethyl-
Formula: C11 H14 Cl N O
Molecular weight: 211
Origin: Zaikin V.G., TIPS RAS, Moscow, Russia
m/z	RELATIVE INTENSITY
26	30
27	170
28	310
29	781
36	70
38	60
39	410
40	70
41	1431
42	170
50	70
51	70
52	50
53	30
55	130
56	100
57	9999
58	440
62	50
63	230
64	170
65	270
66	30
69	120
70	50
73	150
74	30
75	260
76	70
77	30
80	40
85	1221
86	60
89	30
90	180
91	230
92	250
93	60
99	380
100	160
101	130
102	50
111	430
112	30
113	130
125	110
126	320
127	5515
128	510
129	1732
130	140
153	270
154	270
155	170
156	90
168	480
169	70
170	150
196	60
211	5485
212	721
213	1772
214	230
