Mass Spectrum: 2-Butenamide, N-(4-fluorophenyl)-3-methyl-
Formula: C11 H12 F N O
Molecular weight: 193
Origin: Zaikin V.G., TIPS RAS, Moscow, Russia
m/z	RELATIVE INTENSITY
26	30
27	340
28	270
29	681
36	30
38	50
39	571
40	50
41	60
50	60
51	80
52	50
53	330
54	110
55	2502
56	120
57	240
62	30
63	80
64	60
65	30
67	80
69	30
75	150
81	70
82	250
83	9999
84	791
85	50
89	30
91	30
93	20
95	220
96	40
109	120
110	240
111	4514
112	330
122	50
135	40
137	40
138	30
148	70
149	40
150	30
164	30
175	30
176	40
192	30
193	3093
194	420
195	30
