Mass Spectrum: Benzamide, N-(3-chlorophenyl)-4-nitro-
Formula: C13 H9 Cl N2 O3
Molecular weight: 276
Origin: Zaikin V.G., TIPS RAS, Moscow, Russia
m/z	RELATIVE INTENSITY
28	20
30	60
36	30
38	40
39	70
50	320
51	80
62	40
63	190
64	210
65	130
73	60
74	110
75	470
76	1331
77	140
84	50
90	70
91	80
92	931
93	70
98	30
99	160
100	30
101	50
103	50
104	2542
105	250
106	40
111	70
113	30
120	1051
121	110
122	70
126	40
127	210
128	70
129	60
134	190
139	40
150	9999
151	771
152	90
153	20
166	50
167	50
246	30
276	3613
277	550
278	1211
279	180
