Mass Spectrum: Acetamide, N-(4-fluorophenyl)-2-chloro-
Formula: C8 H7 Cl F N O
Molecular weight: 187
Origin: Zaikin V.G., TIPS RAS, Moscow, Russia
m/z	RELATIVE INTENSITY
26	30
27	30
28	20
31	70
36	100
37	20
38	100
39	110
40	20
41	30
42	120
43	40
44	50
48	40
49	500
50	120
51	180
52	90
56	100
57	821
58	50
61	50
62	130
63	280
64	130
65	50
68	40
69	90
70	50
74	70
75	410
76	80
77	540
78	20
79	170
81	240
82	380
83	2042
84	631
85	40
89	90
90	50
91	80
93	40
94	90
95	711
96	160
97	70
108	70
109	400
110	2032
111	9999
112	911
113	30
121	30
122	130
123	40
124	390
137	210
138	1291
139	90
150	60
151	40
152	140
187	3503
188	300
189	1191
190	100
