Mass Spectrum: 3-Methylbut-2-enoic acid, 3,5-dimethylphenyl ester
Formula: C13 H16 O2
Molecular weight: 204
Origin: Zaikin V.G., TIPS RAS, Moscow, Russia
m/z	RELATIVE INTENSITY
27	140
28	100
29	270
39	250
40	30
41	100
43	220
51	70
52	30
53	180
54	60
55	1061
56	50
63	30
65	110
67	40
77	310
78	80
79	90
82	390
83	9999
84	480
85	30
91	320
92	40
93	60
103	50
104	30
105	50
107	320
117	90
118	80
119	330
120	30
121	230
122	1301
123	110
136	60
204	731
205	90
