Mass Spectrum: Benzamide, N-(3-methylphenyl)-2,6-difluoro-
Formula: C14 H11 F2 N O
Molecular weight: 247
Origin: Zaikin V.G., TIPS RAS, Moscow, Russia
m/z	RELATIVE INTENSITY
28	20
39	60
50	30
51	60
52	40
53	30
63	260
64	30
65	60
77	210
78	80
79	80
91	60
93	40
104	30
106	90
107	140
108	210
112	50
113	1041
114	110
140	50
141	9999
142	611
143	30
246	50
247	3954
248	561
249	50
