Mass Spectrum: Phenylacetic acid, 2-naphthyl ester
Formula: C18 H14 O2
Molecular weight: 262
Origin: Zaikin V.G., TIPS RAS, Moscow, Russia
m/z	RELATIVE INTENSITY
28	10
36	30
39	220
41	60
44	30
50	60
51	120
62	70
63	260
64	60
65	711
66	40
74	30
75	50
77	50
87	30
88	50
89	410
90	380
91	3593
92	290
113	50
114	70
115	1241
116	250
118	871
119	80
126	40
127	90
143	60
144	9999
145	1051
146	70
262	430
263	80
