Mass Spectrum: Benzamide, N-tetrahydrofurfuryl-2-fluoro-
Formula: C12 H14 F N O2
Molecular weight: 223
Origin: Zaikin V.G., TIPS RAS, Moscow, Russia
m/z	RELATIVE INTENSITY
26	40
27	250
28	40
29	120
30	70
39	170
40	40
41	611
42	230
43	2262
44	100
50	110
51	90
53	40
54	40
55	60
56	170
57	30
68	70
69	160
70	280
71	7987
72	350
74	80
75	801
76	110
77	60
83	50
84	3273
85	190
93	30
94	220
95	2552
96	330
97	30
102	70
104	30
105	180
109	50
121	50
122	200
123	9999
124	741
125	50
132	30
133	70
134	691
135	120
136	50
139	40
140	1481
141	120
151	30
152	4994
153	8358
154	1501
155	110
164	220
165	90
178	50
179	460
180	170
195	30
223	130
224	100
