Mass Spectrum: 1-Diphenylmethylsilyloxy-3-methylbenzene
Formula: C20 H20 O Si
Molecular weight: 304
Origin: Zaikin V.G., TIPS RAS, Moscow, Russia
m/z	RELATIVE INTENSITY
28	10
45	40
65	40
77	40
91	190
93	40
105	220
112	140
113	100
119	100
121	50
135	100
137	120
144	30
145	80
149	430
150	80
151	30
152	150
153	30
155	30
165	290
166	90
167	70
168	100
169	30
180	50
181	240
182	50
183	70
193	40
195	270
196	60
197	1571
198	290
199	130
209	30
210	70
211	1571
212	300
213	80
225	190
226	80
227	711
228	150
229	30
287	60
288	30
289	9999
290	2783
291	721
292	100
303	30
304	7427
305	2072
306	561
307	70
