Mass Spectrum: 3-Bromobenzoic acid, morpholide
Formula: C11 H12 Br N O2
Molecular weight: 269
Origin: Zaikin V.G., TIPS RAS, Moscow, Russia
m/z	RELATIVE INTENSITY
26	80
27	240
28	50
29	390
30	180
31	40
36	90
38	60
39	50
40	30
41	150
42	751
43	80
44	170
45	40
49	30
50	971
51	280
52	40
53	30
54	190
55	420
56	3663
57	340
58	30
59	50
63	50
65	40
66	140
69	180
70	320
72	681
73	100
74	420
75	1732
76	2752
77	510
78	60
79	40
80	310
81	40
82	80
85	50
86	4014
87	220
89	80
90	60
91	70
102	50
103	240
104	781
105	240
114	90
116	30
117	30
118	40
129	50
131	50
132	90
133	60
146	90
148	200
149	40
154	40
155	3423
156	350
157	3313
158	270
160	170
162	80
169	90
170	50
171	90
172	50
182	110
183	9999
184	1011
185	9629
186	861
187	50
190	540
191	70
196	30
197	40
198	100
199	40
200	100
210	90
211	50
212	290
213	80
214	190
215	40
224	70
225	30
226	410
227	200
228	350
229	160
238	621
239	100
240	731
241	270
242	120
243	170
254	1822
255	210
256	1762
257	200
267	40
268	5625
269	2983
270	5775
271	2903
272	410
273	30
