Mass Spectrum: 1-Dimethylisopropylsilyloxy-4-methoxybenzene
Formula: C12 H20 O2 Si
Molecular weight: 224
Origin: Zaikin V.G., TIPS RAS, Moscow, Russia
m/z	RELATIVE INTENSITY
28	50
59	140
73	150
75	190
77	70
89	110
91	180
92	50
95	50
101	30
107	40
110	40
121	140
123	120
135	100
137	50
138	70
149	100
150	80
151	230
152	30
153	90
165	90
166	180
167	120
179	30
181	9999
182	1611
183	490
184	30
193	30
224	4074
225	731
226	210
