Mass Spectrum: 2-Cyclohexyldimethylsilyloxybenzene
Formula: C18 H24 O Si
Molecular weight: 284
Origin: Zaikin V.G., TIPS RAS, Moscow, Russia
m/z	RELATIVE INTENSITY
36	30
59	170
75	130
77	20
81	30
91	110
101	150
115	70
126	40
127	380
128	520
129	50
131	90
141	360
142	40
145	1101
146	150
147	40
159	150
169	50
171	120
173	260
174	30
183	60
185	791
186	130
187	931
188	150
199	60
200	100
201	9999
202	6916
203	1351
204	290
208	30
269	100
284	7857
285	1902
286	480
287	50
