Mass Spectrum: 2-Chlorobenzoic acid, 3-methylphenyl ester
Formula: C14 H11 Cl O2
Molecular weight: 246
Origin: Zaikin V.G., TIPS RAS, Moscow, Russia
m/z	RELATIVE INTENSITY
39	40
50	60
51	70
53	20
65	50
75	460
76	130
77	160
78	40
79	80
85	30
91	30
104	40
107	70
111	1521
112	110
113	480
139	9999
140	811
141	3353
142	250
246	791
247	120
248	280
249	30
