Mass Spectrum: 1-Naphthalenecarboxamide, N-(3-chlorophenyl)-
Formula: C17 H12 Cl N O
Molecular weight: 281
Origin: Zaikin V.G., TIPS RAS, Moscow, Russia
m/z	RELATIVE INTENSITY
28	10
39	40
50	50
51	100
62	30
63	110
64	50
65	40
74	70
75	190
76	80
77	380
78	30
87	30
91	40
99	100
100	50
101	290
102	40
111	30
114	30
115	30
123	280
124	40
125	40
126	621
127	4834
128	631
129	70
139	80
141	70
153	40
154	40
155	9999
156	1131
157	80
216	30
217	60
280	30
281	1702
282	340
283	571
284	100
