Mass Spectrum: o-Toluic acid, 2-naphthyl ester
Formula: C18 H14 O2
Molecular weight: 262
Origin: Zaikin V.G., TIPS RAS, Moscow, Russia
m/z	RELATIVE INTENSITY
28	10
36	40
39	100
41	30
50	30
51	60
62	30
63	160
64	40
65	591
66	30
75	30
77	30
88	30
89	270
90	170
91	2732
92	230
113	30
114	40
115	741
116	90
118	70
119	9999
120	871
121	50
126	30
127	50
144	150
262	1121
263	220
