Mass Spectrum: Thiophene-2-carboxamide, N-(3-chlorophenyl)-
Formula: C11 H8 Cl N O S
Molecular weight: 237
Origin: Zaikin V.G., TIPS RAS, Moscow, Russia
m/z	RELATIVE INTENSITY
28	10
38	40
39	611
45	50
50	30
51	30
57	60
58	40
62	30
63	100
64	60
65	50
73	50
75	80
81	30
82	70
83	440
84	60
85	30
90	40
91	50
92	30
99	120
101	90
111	9999
112	510
113	410
126	30
127	180
128	30
129	60
173	40
237	2702
238	330
239	951
240	120
241	40
