Mass Spectrum: Cyclobutanecarboxylic acid, 4-chlorophenyl ester
Formula: C11 H11 Cl O2
Molecular weight: 210
Origin: Zaikin V.G., TIPS RAS, Moscow, Russia
m/z	RELATIVE INTENSITY
26	60
27	661
28	260
29	671
36	30
38	60
39	460
40	30
50	70
51	60
53	300
54	230
55	9999
56	440
62	50
63	220
64	120
65	240
73	230
74	30
75	200
76	30
82	300
83	6986
84	370
93	30
99	430
100	130
101	140
102	40
111	210
113	80
127	150
128	1601
129	150
130	561
131	30
141	50
154	40
182	30
210	1401
211	170
212	470
213	50
