Mass Spectrum: o-Toluic acid, 4-nitrophenyl ester
Formula: C14 H11 N O4
Molecular weight: 257
Origin: Zaikin V.G., TIPS RAS, Moscow, Russia
m/z	RELATIVE INTENSITY
28	30
30	80
38	40
39	190
41	60
50	50
51	80
52	30
62	40
63	210
64	110
65	871
66	40
89	240
90	190
91	3243
92	280
118	50
119	9999
120	871
121	50
227	30
