Mass Spectrum: 3-Trifluoromethylbenzoic acid, 3-methylphenyl ester
Formula: C15 H11 F3 O2
Molecular weight: 280
Origin: Zaikin V.G., TIPS RAS, Moscow, Russia
m/z	RELATIVE INTENSITY
39	30
75	50
77	110
79	60
95	180
107	50
125	110
126	100
144	50
145	2722
146	210
173	9999
174	901
175	50
261	220
280	1782
281	340
