Mass Spectrum: Pentanamide, N-(3-chlorophenyl)-5-chloro-
Formula: C11 H13 Cl2 N O
Molecular weight: 245
Origin: Zaikin V.G., TIPS RAS, Moscow, Russia
m/z	RELATIVE INTENSITY
27	220
28	120
29	310
36	40
38	40
39	180
41	130
42	30
49	50
50	30
51	40
52	30
53	90
55	1732
56	80
62	50
63	260
64	130
65	210
73	80
75	190
76	30
90	100
91	961
92	250
93	330
99	280
100	100
101	90
102	30
111	280
112	30
113	90
119	420
121	120
125	60
126	190
127	9999
128	751
129	3343
130	210
140	30
151	30
153	120
154	220
155	50
156	70
182	40
209	30
210	400
211	70
212	130
245	1011
246	130
247	671
248	80
249	110
