Mass Spectrum: Benzamide, N-(4-fluorophenyl)-4-methoxy-
Formula: C14 H12 F N O2
Molecular weight: 245
Origin: Zaikin V.G., TIPS RAS, Moscow, Russia
m/z	RELATIVE INTENSITY
28	10
38	20
39	40
50	50
51	50
57	60
63	160
64	280
65	40
75	50
76	100
77	891
78	70
79	50
83	160
84	40
92	751
93	60
95	30
104	60
107	581
108	50
110	70
111	110
133	30
135	9999
136	791
137	70
172	30
185	30
201	40
245	1521
246	240
