Mass Spectrum: 1-Cyclohexyldimethylsilyloxy-3,4-dichlorobenzene
Formula: C14 H20 Cl2 O Si
Molecular weight: 302
Origin: Zaikin V.G., TIPS RAS, Moscow, Russia
m/z	RELATIVE INTENSITY
41	50
55	60
59	440
63	70
67	30
73	40
75	60
77	40
79	120
80	40
81	360
82	40
91	30
93	601
94	40
95	230
97	40
113	420
115	270
117	40
125	130
127	30
141	170
145	60
146	100
147	50
148	100
155	130
157	40
159	40
169	250
170	90
171	90
183	100
184	200
185	160
186	90
187	40
189	150
191	150
193	40
203	60
205	951
206	110
207	681
208	40
209	130
219	9999
220	6886
221	7877
222	4734
223	1882
224	881
225	120
287	220
288	30
289	140
302	3954
303	791
304	2712
305	520
306	540
307	80
