Mass Spectrum: Propanamide, N-(4-fluorophenyl)-3-chloro-
Formula: C9 H9 Cl F N O
Molecular weight: 201
Origin: Zaikin V.G., TIPS RAS, Moscow, Russia
m/z	RELATIVE INTENSITY
26	40
27	430
28	30
36	90
39	40
50	40
51	30
52	30
55	250
56	40
57	270
62	50
63	981
64	80
65	310
69	30
75	160
81	70
82	130
83	711
84	370
89	40
90	30
91	360
92	40
93	120
94	30
95	210
96	40
109	180
110	430
111	9999
112	691
124	40
127	40
137	100
138	140
165	60
166	40
171	100
173	90
201	1912
202	210
203	651
204	60
