Mass Spectrum: Cyclohexanecarboxylic acid, 2-naphthyl ester
Formula: C17 H18 O2
Molecular weight: 254
Origin: Zaikin V.G., TIPS RAS, Moscow, Russia
m/z	RELATIVE INTENSITY
27	120
28	40
29	110
36	80
39	210
41	621
42	30
43	50
44	50
50	30
51	50
53	110
54	90
55	1481
56	70
63	110
65	100
67	200
68	30
75	30
77	70
79	80
81	220
82	60
83	3193
84	200
88	30
89	160
91	40
109	40
110	200
111	260
113	40
114	60
115	1531
116	350
117	30
126	50
127	230
128	40
143	60
144	9999
145	1181
146	80
254	861
255	140
