Mass Spectrum: o-Toluic acid, 3,5-dimethylphenyl ester
Formula: C16 H16 O2
Molecular weight: 240
Origin: Zaikin V.G., TIPS RAS, Moscow, Russia
m/z	RELATIVE INTENSITY
27	30
28	60
39	160
41	60
51	80
52	30
53	50
63	90
64	30
65	621
66	30
77	170
78	40
79	30
89	150
90	140
91	2392
92	220
93	30
107	70
118	50
119	9999
120	851
121	140
122	90
123	60
240	571
241	90
