Mass Spectrum: Acetoxyacetic acid, morpholide
Formula: C8 H13 N O4
Molecular weight: 187
Origin: Zaikin V.G., TIPS RAS, Moscow, Russia
m/z	RELATIVE INTENSITY
26	140
27	480
28	180
29	961
30	490
31	190
36	70
39	30
40	70
41	370
42	2542
43	9999
44	540
45	561
52	30
54	310
55	1091
56	3023
57	2482
58	360
59	70
60	30
68	30
69	110
70	7176
71	400
72	410
73	2873
74	100
83	30
84	100
85	1291
86	3233
87	801
88	420
98	90
99	2662
100	480
101	1261
102	90
114	6236
115	460
116	60
127	1922
128	180
129	30
130	30
144	300
145	280
172	90
187	350
