Mass Spectrum: p-Anisic acid, 4-chlorophenyl ester
Formula: C14 H11 Cl O3
Molecular weight: 262
Origin: Zaikin V.G., TIPS RAS, Moscow, Russia
m/z	RELATIVE INTENSITY
28	30
63	70
64	170
76	50
77	721
78	40
79	40
92	470
93	20
99	40
104	30
107	581
108	50
135	9999
136	901
137	60
152	120
262	70
