Mass Spectrum: 3-Fluorobenzoic acid, 3,5-dimethylphenyl ester
Formula: C15 H13 F O2
Molecular weight: 244
Origin: Zaikin V.G., TIPS RAS, Moscow, Russia
m/z	RELATIVE INTENSITY
27	30
39	60
50	30
51	60
53	50
65	50
69	30
75	270
76	30
77	180
78	50
79	30
91	140
93	30
94	70
95	2052
96	160
107	50
121	90
122	80
123	9999
124	711
125	40
243	40
244	2312
245	380
246	30
