Mass Spectrum: p-Toluic acid, 3,5-dimethylphenyl ester
Formula: C16 H16 O2
Molecular weight: 240
Origin: Zaikin V.G., TIPS RAS, Moscow, Russia
m/z	RELATIVE INTENSITY
39	40
63	30
65	380
77	80
89	90
90	100
91	1732
92	130
118	50
119	9999
120	871
121	100
122	40
240	1161
241	190
