Mass Spectrum: Nicotinic acid, 3-methylphenyl ester
Formula: C13 H11 N O2
Molecular weight: 213
Origin: Zaikin V.G., TIPS RAS, Moscow, Russia
m/z	RELATIVE INTENSITY
28	20
39	50
50	50
51	520
52	60
65	60
77	190
78	2803
79	270
91	40
105	30
106	9999
107	831
108	100
123	50
213	2702
214	380
