Mass Spectrum: 1-Adamantanecarboxylic acid, 4-chlorophenyl ester
Formula: C17 H19 Cl O2
Molecular weight: 290
Origin: Zaikin V.G., TIPS RAS, Moscow, Russia
m/z	RELATIVE INTENSITY
41	80
53	30
55	80
65	30
67	210
69	40
77	170
78	40
79	691
80	60
81	180
91	250
92	80
93	721
94	50
99	40
105	60
107	380
127	40
128	70
135	9999
136	1171
137	40
163	901
164	100
290	50
