Mass Spectrum: 2-Trifluoromethylbenzoic acid, 4-chlorophenyl ester
Formula: C14 H8 Cl F3 O2
Molecular weight: 300
Origin: Zaikin V.G., TIPS RAS, Moscow, Russia
m/z	RELATIVE INTENSITY
75	110
95	230
99	90
125	130
126	70
144	50
145	2212
146	170
151	30
173	9999
174	881
175	50
300	200
302	60
