Mass Spectrum: o-Anisic acid, 4-cyanophenyl ester
Formula: C15 H11 N O3
Molecular weight: 253
Origin: Zaikin V.G., TIPS RAS, Moscow, Russia
m/z	RELATIVE INTENSITY
50	30
51	120
63	100
64	180
76	70
77	1391
78	100
79	120
90	30
92	591
93	30
105	90
119	40
120	140
135	9999
136	911
137	70
