Mass Spectrum: Benzamide, N-(1-naphthyl)-2-methyl-
Formula: C18 H15 N O
Molecular weight: 261
Origin: Zaikin V.G., TIPS RAS, Moscow, Russia
m/z	RELATIVE INTENSITY
26	30
27	30
28	50
39	140
41	70
50	40
51	70
62	30
63	140
64	40
65	631
66	30
75	30
76	30
77	60
88	30
89	250
90	200
91	3093
92	260
113	50
114	90
115	721
116	130
118	80
119	9999
120	731
121	50
126	30
127	70
128	30
140	110
141	60
142	60
143	280
144	70
161	300
162	30
215	30
230	30
244	60
261	3303
262	621
263	60
