Mass Spectrum: 4-Fluorobenzoic acid, 4-nitrophenyl ester
Formula: C13 H8 F N O4
Molecular weight: 261
Origin: Zaikin V.G., TIPS RAS, Moscow, Russia
m/z	RELATIVE INTENSITY
28	30
30	80
38	50
39	40
50	130
51	70
62	40
63	160
64	90
65	30
68	40
69	90
74	80
75	651
76	80
93	20
94	150
95	2652
96	190
122	30
123	9999
124	731
125	40
231	50
