Mass Spectrum: 1-Di(tert-butyl)silyloxy-3-methylbenzene
Formula: C15 H26 O Si
Molecular weight: 250
Origin: Zaikin V.G., TIPS RAS, Moscow, Russia
m/z	RELATIVE INTENSITY
29	60
41	110
45	30
57	380
59	160
61	40
65	150
73	100
75	420
77	50
85	100
91	1441
92	350
93	40
95	70
105	70
109	40
119	190
121	30
123	100
133	70
135	1772
136	240
137	230
138	1411
139	170
140	50
149	581
150	110
151	3763
152	510
153	130
162	140
163	50
164	80
165	9999
166	1521
167	420
177	130
191	90
192	430
193	2192
194	5355
195	911
196	220
235	30
250	4384
251	881
252	220
