Mass Spectrum: Hexanoic acid, morpholide
Formula: C10 H19 N O2
Molecular weight: 185
Origin: Zaikin V.G., TIPS RAS, Moscow, Russia
m/z	RELATIVE INTENSITY
26	100
27	571
28	300
29	771
30	280
31	40
36	40
39	290
40	60
41	1081
42	1151
43	3253
44	591
45	160
53	70
54	130
55	1011
56	2262
57	4504
58	410
59	100
67	30
68	50
69	380
70	1531
71	1431
72	651
73	50
81	40
83	40
84	90
85	340
86	4364
87	3333
88	1351
89	60
97	30
98	350
99	1551
100	300
101	160
112	220
113	80
114	1722
115	170
116	40
126	110
127	30
128	270
129	9999
130	681
131	50
140	40
142	2172
143	601
144	50
156	881
157	100
170	80
184	80
185	1081
186	210
