Mass Spectrum: Cyclopropanecarboxamide, N-(4-fluorophenyl)-
Formula: C10 H10 F N O
Molecular weight: 179
Origin: Zaikin V.G., TIPS RAS, Moscow, Russia
m/z	RELATIVE INTENSITY
26	30
27	60
28	20
38	60
39	721
40	110
41	2102
42	80
50	50
51	40
52	40
55	60
56	30
57	320
62	40
63	110
64	60
65	30
68	80
69	3393
70	170
74	20
75	200
81	80
82	140
83	781
84	310
89	40
91	30
94	30
95	260
96	60
108	30
109	150
110	340
111	9999
112	661
122	40
124	160
135	30
137	60
138	60
148	30
150	30
178	40
179	2542
180	300
