Mass Spectrum: p-Toluic acid, 4-methoxyphenyl ester
Formula: C15 H14 O3
Molecular weight: 242
Origin: Zaikin V.G., TIPS RAS, Moscow, Russia
m/z	RELATIVE INTENSITY
39	50
41	50
63	50
65	440
89	100
90	110
91	2002
92	160
95	60
109	40
118	60
119	9999
120	931
121	50
123	120
124	50
242	1481
243	250
