Mass Spectrum: 1-Cyclohexyldimethylsilyloxy-1-nitrobenzene
Formula: C14 H21 N O3 Si
Molecular weight: 279
Origin: Zaikin V.G., TIPS RAS, Moscow, Russia
m/z	RELATIVE INTENSITY
59	260
65	60
67	110
75	60
77	30
79	20
81	270
82	260
91	320
93	30
109	20
121	220
133	50
135	931
136	250
139	30
149	170
150	1451
151	160
152	40
166	160
167	30
179	30
180	190
181	150
182	961
183	40
196	9999
197	5005
198	3563
199	771
200	140
249	70
263	90
264	190
279	1351
280	170
281	30
