Mass Spectrum: 2-Trifluoromethylbenzoic acid, 2-naphthyl ester
Formula: C18 H11 F3 O2
Molecular weight: 316
Origin: Zaikin V.G., TIPS RAS, Moscow, Russia
m/z	RELATIVE INTENSITY
75	40
89	60
95	150
115	460
116	40
125	90
126	90
127	80
144	60
145	2502
146	180
151	50
173	9999
174	871
175	40
316	1441
317	260
