Mass Spectrum: Benzamide, N-(3-methylphenyl)-2-fluoro-
Formula: C14 H12 F N O
Molecular weight: 229
Origin: Zaikin V.G., TIPS RAS, Moscow, Russia
m/z	RELATIVE INTENSITY
28	20
39	70
50	50
51	80
52	40
53	30
63	40
65	70
69	30
74	30
75	350
76	50
77	220
78	90
79	90
91	60
94	80
95	1672
96	150
104	30
106	110
107	150
108	100
122	40
123	9999
124	601
125	30
132	30
228	40
229	4204
230	581
231	40
