Mass Spectrum: Benzamide, N-(3-chlorophenyl)-2-fluoro-
Formula: C13 H9 Cl F N O
Molecular weight: 249
Origin: Zaikin V.G., TIPS RAS, Moscow, Russia
m/z	RELATIVE INTENSITY
28	10
39	40
50	60
51	50
62	20
63	100
64	60
65	40
69	60
73	40
74	50
75	510
76	50
90	30
91	50
94	110
95	1732
96	150
99	110
101	30
111	40
122	40
123	9999
124	611
125	50
127	140
129	40
249	2522
250	350
251	771
252	110
