Mass Spectrum: 4-Trifluoromethylbenzoic acid, 3-methylphenyl ester
Formula: C15 H11 F3 O2
Molecular weight: 280
Origin: Zaikin V.G., TIPS RAS, Moscow, Russia
m/z	RELATIVE INTENSITY
28	20
39	50
50	50
51	60
53	30
65	30
75	80
76	30
77	140
78	50
79	70
95	200
107	80
108	40
119	20
125	130
126	130
144	60
145	2913
146	240
154	30
173	9999
174	851
175	50
261	190
262	30
280	1501
281	410
