Mass Spectrum: 1-Chloro-4-diphenylmethylsilyloxybenzene
Formula: C19 H17 Cl O Si
Molecular weight: 324
Origin: Zaikin V.G., TIPS RAS, Moscow, Russia
m/z	RELATIVE INTENSITY
28	10
45	30
53	30
63	50
77	50
91	90
93	100
105	350
106	30
111	70
115	40
119	260
120	30
121	40
125	30
137	50
151	50
152	370
153	80
154	30
155	410
156	80
157	70
165	260
166	50
167	60
169	330
170	50
171	120
180	110
181	500
182	120
183	80
188	110
190	30
193	80
195	601
196	170
197	6276
198	1191
199	360
200	30
203	30
211	120
215	30
217	70
231	1131
232	200
233	400
234	60
245	140
246	40
247	671
248	120
249	210
250	30
273	110
274	30
289	30
307	40
309	9999
310	2582
311	3974
312	891
313	200
324	8758
325	2382
326	3413
327	801
328	190
