Mass Spectrum: Acetamide, N-(2,5-dimethoxyphenyl)-2-acetoxy-
Formula: C12 H15 N O5
Molecular weight: 253
Origin: Zaikin V.G., TIPS RAS, Moscow, Russia
m/z	RELATIVE INTENSITY
27	30
28	20
29	50
31	30
36	20
39	110
41	50
42	90
43	2042
44	150
50	40
51	130
52	200
53	100
54	40
55	30
63	60
64	40
65	140
66	70
67	80
68	140
69	60
71	60
73	480
74	60
76	40
77	110
78	80
79	310
80	120
81	50
82	50
90	50
91	30
92	150
93	160
94	80
95	300
96	30
101	400
106	70
107	240
108	120
109	180
110	410
111	70
120	30
121	40
122	250
123	170
124	150
125	140
134	70
135	100
136	150
137	60
138	9999
139	911
140	80
148	40
149	30
150	601
151	180
152	190
153	4084
154	480
155	30
162	200
163	130
164	360
165	1201
166	280
178	80
179	150
180	420
181	40
194	30
196	130
210	130
211	210
238	410
239	50
253	8518
254	1181
255	150
