Mass Spectrum: Benzamide, N-(2-iodo-4-methylphenyl)-2-bromo-
Formula: C14 H11 Br I N O
Molecular weight: 415
Origin: Zaikin V.G., TIPS RAS, Moscow, Russia
m/z	RELATIVE INTENSITY
27	40
28	10
38	30
39	90
44	30
50	300
51	350
52	160
53	30
62	30
63	110
64	50
65	40
74	90
75	520
76	861
77	861
78	410
79	120
80	60
82	60
89	130
90	150
91	30
102	50
103	90
104	621
105	681
106	140
107	40
127	80
128	130
139	60
152	70
153	40
155	1682
156	150
157	1672
158	120
164	30
165	80
166	60
178	30
179	50
180	300
181	90
182	40
183	9999
184	791
185	9759
186	741
187	30
208	340
209	410
210	60
231	30
232	170
233	230
234	210
258	40
259	40
287	30
288	60
289	70
290	60
291	30
321	30
335	50
336	40
415	5665
416	911
417	5525
418	881
419	70
