Mass Spectrum: Propanamide, N-(4-bromophenyl)-3-chloro-
Formula: C9 H9 Br Cl N O
Molecular weight: 261
Origin: Zaikin V.G., TIPS RAS, Moscow, Russia
m/z	RELATIVE INTENSITY
26	80
27	701
28	60
36	160
37	40
38	180
39	210
40	30
41	50
46	60
49	30
50	170
51	80
52	90
55	500
61	60
62	150
63	1972
64	450
65	871
66	70
73	40
74	80
75	210
76	210
77	60
79	30
80	80
81	30
82	80
89	50
90	330
91	1141
92	1041
93	280
104	30
115	60
117	130
118	30
119	150
127	330
128	30
129	100
143	440
144	80
145	250
146	40
147	40
155	140
157	130
169	70
170	270
171	9999
172	991
173	9559
174	701
183	40
184	50
185	30
197	140
198	90
199	120
200	90
219	30
225	100
226	50
227	100
228	50
261	2372
262	250
263	3023
264	330
265	751
266	70
306	20
