Mass Spectrum: 2-Dimethyldodecylsilyloxynaphthalene
Formula: C24 H38 O Si
Molecular weight: 370
Origin: Zaikin V.G., TIPS RAS, Moscow, Russia
m/z	RELATIVE INTENSITY
59	70
75	60
99	60
101	50
113	30
127	90
128	160
141	200
145	320
146	30
159	80
171	30
173	90
185	300
186	40
187	981
188	160
189	40
201	5155
202	2803
203	581
204	110
211	40
215	30
216	40
229	170
230	40
355	100
356	30
370	9999
371	3193
372	821
373	130
