Mass Spectrum: Benzamide, N-(4-methoxyphenyl)-2-methyl-
Formula: C15 H15 N O2
Molecular weight: 241
Origin: Zaikin V.G., TIPS RAS, Moscow, Russia
m/z	RELATIVE INTENSITY
26	40
27	20
28	60
39	160
41	130
50	40
51	100
52	140
53	90
63	130
64	80
65	681
66	40
77	50
78	40
79	60
80	70
81	30
89	180
90	200
91	3173
92	280
95	160
107	80
108	90
109	30
118	90
119	9999
120	761
121	50
122	170
123	90
124	30
180	30
224	80
240	30
241	4004
242	641
243	60
