Mass Spectrum: 2-Chloropropionic acid, 4-methoxyphenyl ester
Formula: C10 H11 Cl O3
Molecular weight: 214
Origin: Zaikin V.G., TIPS RAS, Moscow, Russia
m/z	RELATIVE INTENSITY
27	110
28	10
39	40
41	110
51	30
52	80
53	70
54	50
55	70
63	400
64	80
65	150
77	90
80	60
81	140
92	80
93	30
95	390
107	130
108	40
109	1922
110	130
123	1251
124	9999
125	841
126	60
151	30
214	1441
215	160
216	480
217	50
