Mass Spectrum: p-Anisic acid, 4-methoxyphenyl ester
Formula: C15 H14 O4
Molecular weight: 258
Origin: Zaikin V.G., TIPS RAS, Moscow, Russia
m/z	RELATIVE INTENSITY
63	30
64	100
76	30
77	561
78	30
79	30
92	350
95	30
107	510
108	40
123	80
135	9999
136	871
137	70
152	40
258	691
259	110
