Mass Spectrum: 4-Butylbenzoic acid, 3-methylphenyl ester
Formula: C18 H20 O2
Molecular weight: 268
Origin: Zaikin V.G., TIPS RAS, Moscow, Russia
m/z	RELATIVE INTENSITY
27	30
28	20
39	50
41	50
51	40
55	60
63	30
65	130
77	160
78	60
79	70
89	130
90	390
91	991
92	80
103	100
104	70
105	100
107	70
108	60
115	50
118	340
119	30
131	80
133	130
159	30
161	9999
162	1081
163	70
225	30
268	220
269	40
