Mass Spectrum: 3-Methylbut-2-enoic acid, 4-cyanophenyl ester
Formula: C12 H11 N O2
Molecular weight: 201
Origin: Zaikin V.G., TIPS RAS, Moscow, Russia
m/z	RELATIVE INTENSITY
27	310
28	280
29	711
37	40
38	50
39	561
40	50
50	40
51	70
52	30
53	280
54	100
55	2332
56	100
63	110
64	150
67	60
75	40
82	130
83	9999
84	520
85	30
90	160
91	70
102	60
118	30
119	210
