Mass Spectrum: p-Anisic acid, 2-naphthyl ester
Formula: C18 H14 O3
Molecular weight: 278
Origin: Zaikin V.G., TIPS RAS, Moscow, Russia
m/z	RELATIVE INTENSITY
28	10
63	30
64	60
77	470
78	30
79	20
92	300
107	490
108	40
115	170
127	30
135	9999
136	931
137	70
144	30
152	50
278	1261
279	250
