Mass Spectrum: Benzamide, N-(2-iodo-4-methylphenyl)-4-ethyl-
Formula: C16 H16 I N O
Molecular weight: 365
Origin: Zaikin V.G., TIPS RAS, Moscow, Russia
m/z	RELATIVE INTENSITY
27	70
28	30
39	70
50	50
51	130
52	70
53	40
63	70
64	20
65	60
76	70
77	631
78	260
79	601
80	40
89	130
90	170
91	70
102	40
103	430
104	410
105	861
106	110
118	30
127	60
128	100
131	60
132	60
133	9999
134	821
135	60
222	40
232	70
233	110
237	30
238	70
239	40
365	3043
366	510
367	60
