Mass Spectrum: 1-Naphthoic acid, 4-methoxyphenyl ester
Formula: C18 H14 O3
Molecular weight: 278
Origin: Zaikin V.G., TIPS RAS, Moscow, Russia
m/z	RELATIVE INTENSITY
77	120
95	30
101	80
123	90
126	220
127	3073
128	370
155	9999
156	1191
157	80
161	30
278	1031
279	200
