Mass Spectrum: Benzamide, N-(2-iodo-4-methylphenyl)-4-methoxy-
Formula: C15 H14 I N O2
Molecular weight: 367
Origin: Zaikin V.G., TIPS RAS, Moscow, Russia
m/z	RELATIVE INTENSITY
28	10
39	40
50	40
51	80
52	40
63	90
64	160
65	30
76	100
77	791
78	150
79	80
92	540
93	40
104	210
105	140
106	50
107	450
108	40
127	30
128	50
135	9999
136	801
137	70
232	50
233	110
239	30
240	50
241	30
367	2322
368	380
369	30
