Mass Spectrum: 4-Chloro-1-cyclohexyldimethylsilyloxybenzene
Formula: C14 H21 Cl O Si
Molecular weight: 268
Origin: Zaikin V.G., TIPS RAS, Moscow, Russia
m/z	RELATIVE INTENSITY
41	30
55	30
59	230
75	130
77	40
79	300
80	30
81	220
91	150
93	320
95	140
111	80
112	90
113	30
115	50
117	50
121	80
125	90
129	40
135	220
136	30
141	60
149	210
150	100
151	70
155	150
157	80
169	90
171	991
172	120
173	340
174	30
185	9999
186	4934
187	4214
188	1812
189	300
190	50
253	220
254	30
255	70
268	3934
269	791
270	1451
271	270
272	50
