Mass Spectrum: 2-Bromobenzoic acid, 4-nitrophenyl ester
Formula: C13 H8 Br N O4
Molecular weight: 321
Origin: Zaikin V.G., TIPS RAS, Moscow, Russia
m/z	RELATIVE INTENSITY
30	100
38	40
50	300
51	50
62	30
63	150
64	100
65	30
74	100
75	661
76	851
77	70
80	30
104	140
139	30
155	1641
156	140
157	1581
158	110
183	9999
184	741
185	9649
186	711
187	40
