Mass Spectrum: Thiophene-2-carboxamide, N-(1-naphthyl)-
Formula: C15 H11 N O S
Molecular weight: 253
Origin: Zaikin V.G., TIPS RAS, Moscow, Russia
m/z	RELATIVE INTENSITY
28	130
39	340
50	30
51	30
57	20
63	70
65	40
75	30
77	40
82	30
83	360
84	40
88	40
89	120
111	9999
112	510
113	460
114	140
115	961
116	160
126	50
127	90
140	170
141	90
142	80
143	400
144	360
145	30
169	40
253	5415
254	831
255	290
256	40
