Mass Spectrum: 3-Phenylpropionic acid, 3,5-dimethylphenyl ester
Formula: C17 H18 O2
Molecular weight: 254
Origin: Zaikin V.G., TIPS RAS, Moscow, Russia
m/z	RELATIVE INTENSITY
28	10
51	30
65	110
77	290
78	80
79	220
91	1651
92	120
93	30
103	170
104	180
105	1291
106	110
107	480
108	40
121	280
122	9999
123	951
124	50
128	60
131	110
132	70
133	220
254	1241
255	230
