Mass Spectrum: p-Anisic acid, 3,4-dichlorophenyl ester
Formula: C14 H10 Cl2 O3
Molecular weight: 296
Origin: Zaikin V.G., TIPS RAS, Moscow, Russia
m/z	RELATIVE INTENSITY
28	20
63	50
64	110
76	30
77	540
78	30
79	30
92	380
107	530
108	40
133	30
135	9999
136	931
137	80
152	60
296	30
