Mass Spectrum: Pentanamide, N-(4-fluorophenyl)-5-chloro-
Formula: C11 H13 Cl F N O
Molecular weight: 229
Origin: Zaikin V.G., TIPS RAS, Moscow, Russia
m/z	RELATIVE INTENSITY
27	190
28	100
29	250
36	50
39	130
41	110
42	30
49	40
50	30
51	30
53	90
55	1421
56	70
57	180
62	30
63	150
64	40
65	50
75	140
81	40
82	90
83	571
84	280
89	30
91	530
92	40
93	190
94	30
95	230
96	40
109	160
110	460
111	9999
112	731
119	200
121	70
122	30
124	40
135	40
137	110
138	210
150	20
166	30
193	60
194	270
195	30
229	911
230	120
231	310
232	30
