Mass Spectrum: Acetamide, N-(3-methylphenyl)-2,2-dichloro-
Formula: C9 H9 Cl2 N O
Molecular weight: 217
Origin: Zaikin V.G., TIPS RAS, Moscow, Russia
m/z	RELATIVE INTENSITY
26	30
27	90
28	10
35	30
36	170
38	120
39	360
40	50
41	90
48	60
50	130
51	310
52	220
53	160
62	50
63	220
64	120
65	691
66	80
74	30
75	40
76	100
77	1231
78	520
79	671
80	70
83	190
85	120
89	210
90	160
91	4754
92	400
103	30
104	250
105	70
106	2572
107	671
108	110
116	70
117	70
118	180
119	60
132	170
133	160
134	9999
135	921
136	50
139	40
146	440
147	80
154	130
156	40
180	40
181	60
182	150
183	70
184	50
216	20
217	4024
218	460
219	2682
220	280
221	430
222	40
