Mass Spectrum: Benzamide, N-(2,5-dimethoxyphenyl)-3-fluoro-
Formula: C15 H14 F N O3
Molecular weight: 275
Origin: Zaikin V.G., TIPS RAS, Moscow, Russia
m/z	RELATIVE INTENSITY
28	10
39	60
50	40
51	70
52	110
53	40
65	50
66	30
68	80
69	70
75	260
76	40
77	30
79	110
80	50
82	30
92	60
93	90
94	100
95	2622
96	220
107	90
108	70
109	90
110	50
121	30
122	140
123	9999
124	791
125	180
135	30
136	50
138	290
139	220
150	50
151	40
152	80
153	50
154	100
164	70
200	30
228	40
229	50
232	50
243	50
244	540
245	100
260	1762
261	270
262	30
275	6936
276	1081
277	120
