Mass Spectrum: Dichloroacetic acid, 4-chlorophenyl ester
Formula: C8 H5 Cl3 O2
Molecular weight: 238
Origin: Zaikin V.G., TIPS RAS, Moscow, Russia
m/z	RELATIVE INTENSITY
28	40
36	100
37	30
38	140
39	130
47	50
48	110
49	60
50	130
51	60
61	40
62	100
63	440
64	170
65	120
73	490
74	80
75	490
76	280
78	70
83	1011
84	30
85	671
87	110
92	30
93	40
99	1371
100	140
101	440
102	40
110	30
111	2132
112	160
113	711
114	50
127	1161
128	9999
129	1041
130	3113
131	210
147	50
149	30
155	410
156	30
157	130
159	90
161	60
175	631
176	40
177	400
179	60
238	1521
239	130
240	1491
241	120
242	510
243	30
244	50
