Mass Spectrum: Trifluoroacetic acid, 4-benzyloxyphenyl ester
Formula: C15 H11 F3 O3
Molecular weight: 296
Origin: Zaikin V.G., TIPS RAS, Moscow, Russia
m/z	RELATIVE INTENSITY
39	70
51	40
63	70
64	30
65	591
69	180
89	100
90	70
91	9999
92	801
296	691
297	100
