Mass Spectrum: 2-Butenamide, N-tetrahydrofurfuryl-3-methyl-
Formula: C10 H17 N O2
Molecular weight: 183
Origin: Zaikin V.G., TIPS RAS, Moscow, Russia
m/z	RELATIVE INTENSITY
26	70
27	661
28	50
29	981
30	340
31	40
38	110
39	861
40	130
41	831
42	240
43	1892
44	230
50	40
51	80
52	60
53	520
54	280
55	2352
56	380
57	110
58	60
65	40
66	30
67	180
68	70
69	100
70	220
71	5925
72	290
73	30
80	50
81	60
82	1361
83	9999
84	2973
85	290
92	30
94	30
95	30
96	60
97	50
98	1601
99	170
100	2652
101	260
102	180
110	50
111	60
112	190
113	4374
114	631
115	50
124	80
125	40
128	30
138	60
139	500
140	130
143	50
155	50
168	170
183	310
184	40
