Mass Spectrum: 6-Bromohexanoic acid, 4-cyanophenyl ester
Formula: C13 H14 Br N O2
Molecular weight: 295
Origin: Zaikin V.G., TIPS RAS, Moscow, Russia
m/z	RELATIVE INTENSITY
27	170
28	40
29	100
39	170
41	1792
42	300
43	591
53	50
55	681
63	90
64	110
67	100
69	9999
70	561
75	40
90	260
91	90
97	410
102	240
107	270
109	260
116	80
117	120
118	60
119	671
120	140
121	40
123	30
124	70
127	30
132	60
133	30
135	30
149	671
150	30
151	621
155	40
161	180
172	120
174	30
177	8948
178	611
179	8678
180	561
216	30
