Mass Spectrum: Butanamide, N-(2,5-dimethoxyphenyl)-2,2,3,3,4,4,4-heptafluoro-
Formula: C12 H10 F7 N O3
Molecular weight: 349
Origin: Zaikin V.G., TIPS RAS, Moscow, Russia
m/z	RELATIVE INTENSITY
27	30
28	10
36	30
39	110
41	40
50	60
51	150
52	170
53	100
54	40
55	30
63	60
64	30
65	110
66	70
67	30
68	150
69	410
76	40
77	140
78	120
79	340
80	100
81	60
82	50
90	70
92	90
93	100
94	110
95	80
100	60
104	30
106	200
107	230
108	110
109	280
110	80
111	380
119	70
120	40
121	40
122	210
123	50
124	60
125	90
135	30
136	90
137	150
138	60
139	601
140	50
144	30
150	761
151	220
152	70
163	20
164	260
165	4684
166	450
167	80
169	170
179	110
180	150
184	80
199	50
213	50
234	30
252	50
262	50
274	40
279	30
282	40
299	70
300	30
303	40
306	260
307	30
310	40
315	60
316	40
318	80
330	300
331	40
334	7907
335	1021
336	100
349	9999
350	1331
351	140
