Mass Spectrum: Cyclopentanecarboxylic acid, 3,5-dimethylphenyl ester
Formula: C14 H18 O2
Molecular weight: 218
Origin: Zaikin V.G., TIPS RAS, Moscow, Russia
m/z	RELATIVE INTENSITY
26	30
27	240
28	10
29	30
36	40
39	420
40	120
41	1501
42	70
43	30
44	30
50	30
51	110
52	70
53	220
54	30
55	480
63	50
65	190
66	60
67	400
68	390
69	8978
70	530
77	751
78	180
79	340
81	30
91	440
92	60
93	120
94	80
95	70
96	2762
97	2622
98	170
103	110
104	60
105	220
107	1561
108	140
119	30
120	40
121	871
122	9999
123	1211
124	70
177	40
218	3003
219	490
220	40
