Mass Spectrum: Benzamide, N-(3-methylphenyl)-3-methyl-
Formula: C15 H15 N O
Molecular weight: 225
Origin: Zaikin V.G., TIPS RAS, Moscow, Russia
m/z	RELATIVE INTENSITY
28	10
39	120
41	50
50	30
51	80
52	30
63	100
64	40
65	631
66	40
77	190
78	80
79	90
89	170
90	160
91	2793
92	230
104	20
105	60
106	160
107	210
108	30
111	40
118	40
119	9999
120	721
121	40
132	40
180	40
224	30
225	4134
226	651
227	60
