Mass Spectrum: 1-Diisopropyloctylsilyloxy-4-methoxybenzene
Formula: C21 H38 O2 Si
Molecular weight: 350
Origin: Zaikin V.G., TIPS RAS, Moscow, Russia
m/z	RELATIVE INTENSITY
28	80
59	70
61	70
73	90
75	80
77	100
84	60
85	40
91	711
99	50
107	60
108	100
109	150
119	40
121	30
135	220
137	530
139	50
141	70
151	671
152	40
153	390
155	100
165	70
167	8918
168	1171
169	340
179	110
181	881
182	70
183	350
193	751
194	40
195	9999
196	1611
197	420
207	410
208	30
209	360
221	70
237	310
265	100
279	360
280	50
307	9489
308	2382
309	460
350	6105
351	1611
352	270
