Mass Spectrum: 3-Cyclopentylpropionic acid, 3,4-dichlorophenyl ester
Formula: C14 H16 Cl2 O2
Molecular weight: 286
Origin: Zaikin V.G., TIPS RAS, Moscow, Russia
m/z	RELATIVE INTENSITY
26	40
27	260
28	140
29	360
36	60
39	450
40	90
41	1812
42	150
43	240
44	30
51	30
53	290
54	220
55	6276
56	300
57	120
62	60
63	280
65	70
66	60
67	791
68	200
69	1862
70	90
73	140
74	50
75	80
77	60
79	2482
80	1081
81	2032
82	240
83	621
91	80
95	360
96	110
97	1912
98	220
99	230
100	30
101	70
105	40
106	50
107	6126
108	520
109	130
110	30
111	40
123	60
124	120
125	9999
126	861
127	60
128	50
133	330
134	70
135	210
136	40
137	30
145	160
147	100
159	110
161	170
162	2742
163	280
164	1722
165	140
166	290
204	130
206	80
286	661
287	100
288	440
289	60
290	70
