Mass Spectrum: 3-Trifluoromethylbenzoic acid, 2-naphthyl ester
Formula: C18 H11 F3 O2
Molecular weight: 316
Origin: Zaikin V.G., TIPS RAS, Moscow, Russia
m/z	RELATIVE INTENSITY
63	40
75	60
89	60
95	170
115	450
116	40
125	100
126	140
144	60
145	3273
146	250
173	9999
174	841
175	40
297	210
316	2813
317	561
318	50
