Mass Spectrum: Butanamide, N-(4-methoxyphenyl)-2,2,3,3,4,4,4-heptafluoro-
Formula: C11 H8 F7 N O2
Molecular weight: 319
Origin: Zaikin V.G., TIPS RAS, Moscow, Russia
m/z	RELATIVE INTENSITY
28	10
36	30
38	30
39	60
41	110
50	60
51	110
52	260
53	140
54	80
61	40
62	30
63	130
64	160
65	110
67	40
69	621
75	120
76	60
77	190
78	130
79	190
80	110
81	130
83	30
90	50
91	130
92	160
93	30
95	480
96	30
100	80
106	170
107	170
108	60
109	891
110	60
119	130
121	40
122	5465
123	470
124	230
134	200
135	30
149	260
150	520
151	50
157	30
169	571
172	30
184	30
196	70
199	30
228	40
248	40
252	50
256	40
257	140
272	60
276	30
288	60
300	440
301	50
304	791
305	110
318	40
319	9999
320	1241
321	110
