Mass Spectrum: trans-3-Trifluoromethylcinnamic acid, 4-cyanophenyl ester
Formula: C17 H10 F3 N O2
Molecular weight: 317
Origin: Zaikin V.G., TIPS RAS, Moscow, Russia
m/z	RELATIVE INTENSITY
28	10
36	30
44	30
63	30
75	40
90	60
91	290
95	30
101	30
102	250
119	100
120	40
135	50
145	150
151	1591
152	160
169	60
170	50
171	1922
172	130
199	9999
200	1131
201	50
216	30
298	130
