Mass Spectrum: 5-Bromovaleric acid, 4-nitrophenyl ester
Formula: C11 H12 Br N O4
Molecular weight: 301
Origin: Zaikin V.G., TIPS RAS, Moscow, Russia
m/z	RELATIVE INTENSITY
27	310
28	190
29	490
30	80
39	330
41	290
42	70
50	80
53	150
54	30
55	7046
56	320
63	200
64	210
65	270
75	130
76	140
81	50
83	360
91	30
92	80
93	210
107	260
109	510
110	30
119	40
122	110
123	470
124	40
135	4584
136	180
137	4334
138	190
139	300
140	50
162	30
163	9919
164	591
165	9999
166	520
180	80
222	170
