Mass Spectrum: 4-Butylbenzoic acid, 2-naphthyl ester
Formula: C21 H20 O2
Molecular weight: 304
Origin: Zaikin V.G., TIPS RAS, Moscow, Russia
m/z	RELATIVE INTENSITY
63	30
65	70
77	90
78	30
89	150
90	340
91	861
92	80
103	90
104	60
105	90
115	360
116	70
117	30
118	360
119	40
127	50
131	110
133	160
144	120
159	50
161	9999
162	1301
163	90
304	1281
305	300
306	40
