Mass Spectrum: 2-Bromobenzoic acid, 3-methylphenyl ester
Formula: C14 H11 Br O2
Molecular weight: 290
Origin: Zaikin V.G., TIPS RAS, Moscow, Russia
m/z	RELATIVE INTENSITY
27	40
28	50
39	140
50	320
51	150
52	70
53	80
63	70
64	30
65	120
74	100
75	641
76	911
77	480
78	170
79	180
89	30
91	80
104	260
105	40
107	200
108	130
139	50
152	40
153	40
155	1521
156	130
157	1461
158	110
168	70
181	50
182	30
183	9999
184	751
185	9589
186	731
187	40
210	30
290	631
291	100
292	601
293	90
