Mass Spectrum: Phenylacetic acid, 4-methoxyphenyl ester
Formula: C15 H14 O3
Molecular weight: 242
Origin: Zaikin V.G., TIPS RAS, Moscow, Russia
m/z	RELATIVE INTENSITY
26	20
28	50
39	140
41	140
50	30
51	70
52	80
53	40
54	40
63	110
64	60
65	460
66	30
77	30
80	50
81	90
89	170
90	270
91	2793
92	240
95	200
109	1001
110	90
118	540
119	50
123	470
124	9999
125	751
126	60
242	330
243	50
