Mass Spectrum: 2-Chlorobenzoic acid, 3,4-dichlorophenyl ester
Formula: C13 H7 Cl3 O2
Molecular weight: 300
Origin: Zaikin V.G., TIPS RAS, Moscow, Russia
m/z	RELATIVE INTENSITY
50	80
51	50
63	70
73	30
74	40
75	611
76	150
85	60
104	40
110	40
111	1651
112	110
113	550
114	30
133	90
135	40
139	9999
140	811
141	3373
142	260
161	30
300	120
302	110
304	30
