Mass Spectrum: 4-Chlorobenzoic acid, 4-chlorophenyl ester
Formula: C13 H8 Cl2 O2
Molecular weight: 266
Origin: Zaikin V.G., TIPS RAS, Moscow, Russia
m/z	RELATIVE INTENSITY
50	70
51	40
63	30
73	50
74	30
75	480
76	140
85	40
99	90
104	70
111	1742
112	120
113	561
114	30
127	40
128	30
139	9999
140	781
141	3393
142	250
266	440
267	60
268	280
269	30
270	40
