Mass Spectrum: Benzamide, N-(4-fluorophenyl)-3-methyl-
Formula: C14 H12 F N O
Molecular weight: 229
Origin: Zaikin V.G., TIPS RAS, Moscow, Russia
m/z	RELATIVE INTENSITY
28	10
39	150
41	60
50	40
51	70
57	70
62	30
63	150
64	60
65	781
66	40
75	40
82	30
83	210
84	70
89	230
90	190
91	3353
92	270
95	30
109	30
110	60
111	200
118	50
119	9999
120	711
121	40
185	50
198	30
211	30
228	60
229	3293
230	480
231	40
