Mass Spectrum: 1-Chloro-4-diphenyl(tert-butyl)silyloxybenzene
Formula: C22 H23 Cl O Si
Molecular weight: 366
Origin: Zaikin V.G., TIPS RAS, Moscow, Russia
m/z	RELATIVE INTENSITY
36	30
63	40
77	30
91	30
105	110
111	30
135	30
151	40
152	310
153	40
155	80
180	40
181	250
182	40
183	60
195	40
196	50
197	110
199	60
203	40
215	30
217	80
231	1321
232	260
233	480
234	80
247	50
273	140
274	80
275	30
309	9999
310	2612
311	3964
312	871
313	210
366	370
367	90
368	120
369	30
