Mass Spectrum: Cyclobutanecarboxamide, N-tetrahydrofurfuryl-
Formula: C10 H17 N O2
Molecular weight: 183
Origin: Zaikin V.G., TIPS RAS, Moscow, Russia
m/z	RELATIVE INTENSITY
26	100
27	841
28	50
29	791
30	550
31	70
36	60
39	510
40	80
41	911
42	280
43	2272
44	120
51	50
52	30
53	350
54	250
55	3373
56	921
57	190
58	200
59	40
67	200
68	70
69	100
70	370
71	9999
72	561
73	70
81	80
82	440
83	1862
84	5505
85	1381
86	160
95	30
96	100
98	761
99	80
100	2132
101	200
102	50
110	40
112	611
113	4434
114	1071
115	70
124	70
125	60
128	70
139	230
140	150
155	30
183	60
184	70
