Mass Spectrum: o-Anisic acid, morpholide
Formula: C12 H15 N O3
Molecular weight: 221
Origin: Zaikin V.G., TIPS RAS, Moscow, Russia
m/z	RELATIVE INTENSITY
27	30
28	10
29	70
39	20
42	50
50	40
51	90
55	30
56	130
57	60
63	90
64	140
65	40
76	80
77	971
78	100
79	70
86	210
87	701
88	150
91	30
92	530
93	50
105	120
120	130
121	50
134	90
135	9999
136	721
137	60
161	30
162	30
190	140
206	110
220	1301
221	831
222	120
