Mass Spectrum: 4-Chlorobenzoic acid, 4-cyanophenyl ester
Formula: C14 H8 Cl N O2
Molecular weight: 257
Origin: Zaikin V.G., TIPS RAS, Moscow, Russia
m/z	RELATIVE INTENSITY
28	30
50	90
51	50
63	30
64	30
74	40
75	591
76	160
85	50
90	60
104	60
111	1942
112	140
113	631
114	30
139	9999
140	811
141	3393
142	250
156	50
257	30
