Mass Spectrum: Cyclohexanecarboxylic acid, 4-cyanophenyl ester
Formula: C14 H15 N O2
Molecular weight: 229
Origin: Zaikin V.G., TIPS RAS, Moscow, Russia
m/z	RELATIVE INTENSITY
27	60
28	20
29	50
36	190
38	60
39	210
40	30
41	581
42	30
43	40
44	100
50	30
51	60
52	40
53	140
54	230
55	2372
56	130
63	120
64	150
65	70
67	711
68	80
75	60
76	30
77	70
79	180
81	380
82	170
83	9999
84	751
90	320
91	160
92	20
102	190
109	90
110	80
111	4904
112	420
118	120
119	1061
120	951
121	70
124	200
229	40
