Mass Spectrum: 5-Bromovaleric acid, 4-cyanophenyl ester
Formula: C12 H12 Br N O2
Molecular weight: 281
Origin: Zaikin V.G., TIPS RAS, Moscow, Russia
m/z	RELATIVE INTENSITY
27	420
28	210
29	520
39	390
41	360
42	80
51	70
53	160
54	30
55	7317
56	340
63	210
64	290
65	40
75	120
76	50
83	460
90	530
91	210
93	30
95	30
101	60
102	500
103	30
107	300
109	300
118	70
119	1171
120	240
124	50
135	4994
136	210
137	4994
138	180
139	80
160	100
162	90
163	9989
164	631
165	9999
166	530
202	180
283	40
