Mass Spectrum: 1-Naphthoic acid, 4-cyanophenyl ester
Formula: C18 H11 N O2
Molecular weight: 273
Origin: Zaikin V.G., TIPS RAS, Moscow, Russia
m/z	RELATIVE INTENSITY
51	30
75	50
77	190
101	140
126	370
127	3673
128	440
154	30
155	9999
156	1241
157	80
172	30
273	170
274	30
