Mass Spectrum: 2-Chlorobenzoic acid, 3,5-dimethylphenyl ester
Formula: C15 H13 Cl O2
Molecular weight: 260
Origin: Zaikin V.G., TIPS RAS, Moscow, Russia
m/z	RELATIVE INTENSITY
50	40
51	40
53	30
65	30
75	370
76	110
77	180
78	30
91	110
93	30
104	50
111	1381
112	90
113	460
114	20
121	80
139	9999
140	771
141	3403
142	230
260	1021
261	150
262	330
263	40
