Mass Spectrum: 4-Cyano-1-dimethylisopropylsilyloxybenzene
Formula: C12 H17 N O Si
Molecular weight: 219
Origin: Zaikin V.G., TIPS RAS, Moscow, Russia
m/z	RELATIVE INTENSITY
28	20
59	70
64	40
73	70
75	190
79	70
91	70
102	110
116	90
119	631
120	110
121	70
146	220
160	210
161	20
162	200
164	40
174	30
176	9999
177	1541
178	450
179	30
204	70
219	1241
220	190
221	40
