Mass Spectrum: 2,6-Difluorobenzoic acid, 4-cyanophenyl ester
Formula: C14 H7 F2 N O2
Molecular weight: 259
Origin: Zaikin V.G., TIPS RAS, Moscow, Russia
m/z	RELATIVE INTENSITY
28	20
37	30
39	50
50	20
62	60
63	520
64	110
75	30
90	100
93	70
94	30
112	70
113	1211
114	100
119	60
140	30
141	9999
142	711
143	40
259	40
