Mass Spectrum: 1-Naphthoic acid, 2-naphthyl ester
Formula: C21 H14 O2
Molecular weight: 298
Origin: Zaikin V.G., TIPS RAS, Moscow, Russia
m/z	RELATIVE INTENSITY
77	100
101	70
115	140
126	200
127	3053
128	360
144	40
155	9999
156	1211
157	70
172	30
298	1131
299	240
