Mass Spectrum: 4-Cyano-1-cyclohexyldimethylsilyloxybenzene
Formula: C15 H21 N O Si
Molecular weight: 259
Origin: Zaikin V.G., TIPS RAS, Moscow, Russia
m/z	RELATIVE INTENSITY
36	40
59	150
67	60
74	90
75	150
79	40
81	150
82	90
102	60
116	100
119	30
120	80
121	70
125	40
135	40
139	40
146	220
148	30
149	40
160	280
161	30
162	1091
163	150
164	70
174	50
176	9999
177	5295
178	2452
179	420
180	70
216	40
229	50
244	210
245	30
259	2082
260	440
261	100
