Mass Spectrum: Cyclopropanecarboxamide, N-(3-chlorophenyl)-
Formula: C10 H10 Cl N O
Molecular weight: 195
Origin: Zaikin V.G., TIPS RAS, Moscow, Russia
m/z	RELATIVE INTENSITY
26	30
27	70
28	20
36	70
37	30
38	90
39	791
40	130
41	2252
42	90
50	70
51	80
52	50
55	70
62	70
63	270
64	180
65	230
66	30
68	90
69	5885
70	240
73	120
74	40
75	280
76	50
77	60
85	30
89	40
90	140
91	180
92	210
93	40
99	370
100	120
101	120
102	50
111	290
112	30
113	90
125	60
126	120
127	9999
128	691
129	2993
130	260
131	30
140	140
142	40
153	80
154	70
195	3823
196	430
197	1221
198	140
