Mass Spectrum: Hexanamide, N-(4-fluorophenyl)-
Formula: C12 H16 F N O
Molecular weight: 209
Origin: Zaikin V.G., TIPS RAS, Moscow, Russia
m/z	RELATIVE INTENSITY
27	150
28	80
29	210
39	110
41	310
42	110
43	1191
44	30
55	200
57	100
63	30
64	30
69	30
71	410
75	80
81	20
82	50
83	370
84	210
93	60
95	190
96	40
99	240
109	150
110	470
111	9999
112	691
124	70
137	70
138	180
148	30
152	60
153	550
154	50
166	50
180	30
208	30
209	811
210	130
