Mass Spectrum: 4-Cyano-1-tributylsilyloxybenzene
Formula: C19 H31 N O Si
Molecular weight: 317
Origin: Zaikin V.G., TIPS RAS, Moscow, Russia
m/z	RELATIVE INTENSITY
36	40
55	30
59	50
85	230
102	120
103	30
104	210
143	40
146	911
147	110
148	1021
149	130
150	60
160	50
161	30
162	3123
163	460
164	130
174	210
175	120
176	721
177	120
202	310
203	70
204	8568
205	1611
206	480
207	50
260	9999
261	2342
262	611
263	70
317	1621
318	420
319	110
