Mass Spectrum: Propanamide, N-(4-fluorophenyl)-2,2-dimethyl-
Formula: C11 H14 F N O
Molecular weight: 195
Origin: Zaikin V.G., TIPS RAS, Moscow, Russia
m/z	RELATIVE INTENSITY
26	50
27	230
28	360
29	911
30	40
36	30
38	60
39	561
40	90
41	1792
42	200
43	40
44	40
50	70
51	70
52	80
53	60
54	30
55	170
56	120
57	9999
58	450
62	60
63	160
64	130
65	390
66	50
69	190
70	80
71	20
74	30
75	230
76	30
80	60
81	80
82	180
83	1181
84	561
85	1281
86	60
89	50
90	40
91	90
92	450
93	60
94	50
95	440
96	60
108	90
109	380
110	1061
111	8348
112	641
122	40
124	40
136	60
137	450
138	921
139	130
152	701
153	110
164	30
180	90
195	8067
196	1051
197	70
