Mass Spectrum: Cyclobutanecarboxylic acid, 3,4-dichlorophenyl ester
Formula: C11 H10 Cl2 O2
Molecular weight: 244
Origin: Zaikin V.G., TIPS RAS, Moscow, Russia
m/z	RELATIVE INTENSITY
26	60
27	691
28	270
29	691
36	60
39	370
50	40
51	40
53	300
54	180
55	9999
56	440
61	20
62	90
63	310
72	40
73	150
74	60
75	80
82	150
83	6166
84	350
85	30
91	60
97	50
98	70
99	200
100	30
101	50
107	40
109	120
111	40
126	50
133	270
134	40
135	180
136	20
137	20
145	100
147	70
161	70
162	701
163	90
164	470
165	30
166	80
244	641
245	70
246	430
247	50
248	70
