Mass Spectrum: 2-Furoic acid, 3-methylphenyl ester
Formula: C12 H10 O3
Molecular weight: 202
Origin: Zaikin V.G., TIPS RAS, Moscow, Russia
m/z	RELATIVE INTENSITY
27	10
37	10
38	60
39	440
40	10
51	50
52	10
53	20
63	10
65	30
66	20
67	170
77	80
78	30
79	40
91	40
95	9999
96	550
97	50
107	50
108	20
112	10
115	10
174	10
202	3103
203	420
204	40
