Mass Spectrum: 4-Ethylbenzoic acid, 4-methoxyphenyl ester
Formula: C16 H16 O3
Molecular weight: 256
Origin: Zaikin V.G., TIPS RAS, Moscow, Russia
m/z	RELATIVE INTENSITY
27	70
28	60
39	70
41	60
50	30
51	70
52	40
53	40
63	50
64	30
65	60
76	30
77	470
78	90
79	550
80	50
89	80
90	100
91	30
95	70
102	20
103	350
104	150
105	851
106	80
109	60
123	110
124	70
131	30
132	50
133	9999
134	951
135	60
256	921
257	160
