Mass Spectrum: trans-3-Trifluoromethylcinnamic acid, 3,5-dimethylphenyl ester
Formula: C18 H15 F3 O2
Molecular weight: 320
Origin: Zaikin V.G., TIPS RAS, Moscow, Russia
m/z	RELATIVE INTENSITY
28	10
65	30
77	50
91	280
102	150
107	50
121	80
122	100
135	40
145	80
151	1201
152	140
169	40
170	40
171	1591
172	140
199	9999
200	1101
201	40
301	60
320	661
321	100
