Mass Spectrum: 3-Methyl-1-triisobutylsilyloxybenzene
Formula: C19 H34 O Si
Molecular weight: 306
Origin: Zaikin V.G., TIPS RAS, Moscow, Russia
m/z	RELATIVE INTENSITY
59	70
65	30
77	30
83	50
85	40
91	450
92	80
93	200
105	60
123	40
135	971
136	150
137	2142
138	290
139	90
143	30
149	290
150	80
151	5115
152	721
153	210
164	40
165	100
175	30
177	210
178	30
191	130
192	70
193	9999
194	1832
195	520
196	40
199	50
207	230
208	50
249	7387
250	1982
251	470
252	70
306	3123
307	821
308	210
