Mass Spectrum: Benzamide, N-(3-methylphenyl)-2,3,4-trifluoro-
Formula: C14 H10 F3 N O
Molecular weight: 265
Origin: Zaikin V.G., TIPS RAS, Moscow, Russia
m/z	RELATIVE INTENSITY
28	20
39	70
51	60
52	40
53	40
63	40
65	60
77	270
78	100
79	110
81	340
91	60
104	30
106	110
107	150
108	300
112	40
130	30
131	1511
132	170
158	30
159	9999
160	651
161	30
264	70
265	4534
266	691
267	60
