Mass Spectrum: m-Anisic acid, 3-methylphenyl ester
Formula: C15 H14 O3
Molecular weight: 242
Origin: Zaikin V.G., TIPS RAS, Moscow, Russia
m/z	RELATIVE INTENSITY
51	30
63	80
64	200
65	40
76	70
77	841
78	70
79	60
91	40
92	591
93	30
107	1571
108	130
135	9999
136	891
137	70
152	30
242	1291
243	210
