Mass Spectrum: Cyclopentanecarboxylic acid, 4-chlorophenyl ester
Formula: C12 H13 Cl O2
Molecular weight: 224
Origin: Zaikin V.G., TIPS RAS, Moscow, Russia
m/z	RELATIVE INTENSITY
27	150
28	10
38	30
39	380
40	90
41	1461
42	70
50	40
51	30
53	80
55	480
63	130
64	80
65	250
66	50
67	410
68	240
69	9999
70	530
73	150
75	150
93	30
95	40
96	951
97	4924
98	320
99	290
100	110
101	90
102	30
111	160
113	50
127	110
128	2302
129	200
130	751
131	50
141	30
183	60
224	731
225	110
226	250
227	30
