Mass Spectrum: 1-Allyldimethylsilyloxy-4-methoxybenzene
Formula: C12 H18 O2 Si
Molecular weight: 222
Origin: Zaikin V.G., TIPS RAS, Moscow, Russia
m/z	RELATIVE INTENSITY
36	60
43	50
59	160
61	30
63	50
64	50
73	30
75	280
77	120
78	50
79	60
83	60
89	190
90	280
91	190
92	90
95	90
99	110
105	30
107	70
109	30
110	60
119	350
121	170
122	30
123	230
124	40
133	50
135	130
136	30
137	50
138	90
149	170
150	110
151	280
152	60
153	110
162	490
163	30
164	310
165	210
166	280
167	150
179	130
181	9999
182	1461
183	450
184	30
207	390
208	50
222	2672
223	500
224	120
