Mass Spectrum: Phenylthioacetic acid, 4-cyanophenyl ester
Formula: C15 H11 N O2 S
Molecular weight: 269
Origin: Zaikin V.G., TIPS RAS, Moscow, Russia
m/z	RELATIVE INTENSITY
28	10
39	120
42	30
44	20
45	1091
47	30
50	30
51	250
63	80
64	70
65	440
66	40
69	120
77	520
78	130
79	230
90	110
91	130
102	30
105	350
108	120
109	1401
110	200
111	50
119	320
121	450
122	280
123	9999
124	1101
125	470
150	1611
151	781
152	120
168	40
269	4244
270	741
271	240
