Mass Spectrum: 1-Diphenylmethylsilyloxy-4-nitrobenzene
Formula: C19 H17 N O3 Si
Molecular weight: 335
Origin: Zaikin V.G., TIPS RAS, Moscow, Russia
m/z	RELATIVE INTENSITY
28	10
91	40
93	40
105	180
119	120
120	30
145	130
152	140
153	70
154	90
155	30
165	140
166	40
167	50
169	50
180	80
181	200
182	50
193	40
195	350
196	270
197	3803
198	771
199	230
210	20
211	120
212	120
213	30
228	30
242	210
243	50
244	30
255	30
256	20
257	20
258	410
259	80
273	571
274	530
275	130
276	20
290	40
305	100
306	40
319	110
320	9999
321	2632
322	691
323	90
335	4394
336	1151
337	300
338	40
