Mass Spectrum: 4-Trifluoromethylbenzoic acid, 3,5-dimethylphenyl ester
Formula: C16 H13 F3 O2
Molecular weight: 294
Origin: Zaikin V.G., TIPS RAS, Moscow, Russia
m/z	RELATIVE INTENSITY
28	20
39	50
50	40
51	50
53	40
65	40
75	70
77	150
78	40
91	120
93	30
95	190
107	50
121	60
122	40
125	110
126	120
144	50
145	2652
146	220
154	30
159	30
173	9999
174	851
175	50
275	180
276	30
293	40
294	1992
295	350
296	30
