Mass Spectrum: trans-3-Trifluoromethylcinnamic acid, 3-methylphenyl ester
Formula: C17 H13 F3 O2
Molecular weight: 306
Origin: Zaikin V.G., TIPS RAS, Moscow, Russia
m/z	RELATIVE INTENSITY
28	10
65	40
77	100
79	70
91	250
102	180
107	130
108	80
145	90
151	1241
152	160
169	50
170	50
171	1692
172	140
199	9999
200	1151
201	60
287	140
306	540
307	80
