Mass Spectrum: 4-Fluorobenzoic acid, 4-chlorophenyl ester
Formula: C13 H8 Cl F O2
Molecular weight: 250
Origin: Zaikin V.G., TIPS RAS, Moscow, Russia
m/z	RELATIVE INTENSITY
28	10
39	30
50	70
51	40
63	80
64	30
69	60
73	90
74	50
75	530
76	50
94	110
95	2192
96	160
99	130
101	40
123	9999
124	721
125	40
127	40
128	80
250	410
251	50
252	130
