Mass Spectrum: m-Anisic acid, 2-naphthyl ester
Formula: C18 H14 O3
Molecular weight: 278
Origin: Zaikin V.G., TIPS RAS, Moscow, Russia
m/z	RELATIVE INTENSITY
63	70
64	180
65	40
76	70
77	921
78	60
79	40
89	30
91	230
92	661
93	30
107	1822
108	130
115	300
127	30
135	9999
136	911
137	60
144	30
278	2542
279	490
280	50
