Mass Spectrum: Benzamide, N-(4-fluorophenyl)-4-chloro-
Formula: C13 H9 Cl F N O
Molecular weight: 249
Origin: Zaikin V.G., TIPS RAS, Moscow, Russia
m/z	RELATIVE INTENSITY
28	20
36	60
38	30
39	50
44	40
50	360
51	210
52	40
57	290
61	40
62	40
63	120
64	40
73	40
74	230
75	1712
76	520
77	100
81	70
82	110
83	681
84	140
85	150
87	50
89	30
95	90
104	200
105	30
109	90
110	210
111	3904
112	330
113	1221
114	80
137	40
138	30
139	9999
140	751
141	3403
142	230
157	40
183	110
184	40
185	190
231	80
233	30
249	1762
250	250
251	581
252	70
