Mass Spectrum: Benzamide, N-(4-fluorophenyl)-2,6-difluoro-
Formula: C13 H8 F3 N O
Molecular weight: 251
Origin: Zaikin V.G., TIPS RAS, Moscow, Russia
m/z	RELATIVE INTENSITY
28	50
57	130
62	50
63	380
64	30
74	30
75	60
81	50
82	50
83	280
84	40
93	60
94	40
95	50
109	50
110	70
111	130
112	130
113	1271
114	130
140	60
141	9999
142	621
143	30
251	3443
252	470
253	30
