Mass Spectrum: m-Anisic acid, 3,4-dichlorophenyl ester
Formula: C14 H10 Cl2 O3
Molecular weight: 296
Origin: Zaikin V.G., TIPS RAS, Moscow, Russia
m/z	RELATIVE INTENSITY
63	120
64	240
76	90
77	821
78	50
79	40
92	631
93	30
107	1531
108	110
133	50
135	9999
136	881
137	70
296	250
297	30
298	170
