Mass Spectrum: Benzamide, N-(2-iodo-4-methylphenyl)-4-nitro-
Formula: C14 H11 I N2 O3
Molecular weight: 382
Origin: Zaikin V.G., TIPS RAS, Moscow, Russia
m/z	RELATIVE INTENSITY
26	40
27	70
28	30
30	90
36	70
38	50
39	160
41	50
43	40
44	100
50	480
51	370
52	210
53	60
55	50
57	50
62	50
63	210
64	220
65	220
66	30
69	40
71	30
73	30
74	130
75	470
76	1972
77	681
78	520
79	180
81	40
83	30
89	120
90	140
91	80
92	1251
93	110
95	40
97	40
102	40
103	140
104	4334
105	991
106	220
107	80
109	30
115	30
119	30
120	2162
121	220
122	110
123	40
124	30
127	160
128	250
132	30
133	30
134	330
135	50
149	40
150	9999
151	831
152	140
153	50
165	40
166	40
167	50
178	40
179	40
180	110
181	50
183	40
185	40
191	40
193	30
196	20
197	30
209	310
210	30
230	20
231	30
232	1722
233	320
234	711
235	50
254	40
255	150
256	80
258	40
259	40
272	40
292	40
320	30
321	40
322	30
335	30
352	150
366	30
367	30
382	9208
383	1501
384	160
