Mass Spectrum: 3-Bromobenzoic acid, 3,5-dimethylphenyl ester
Formula: C15 H13 Br O2
Molecular weight: 304
Origin: Zaikin V.G., TIPS RAS, Moscow, Russia
m/z	RELATIVE INTENSITY
27	70
28	30
36	40
38	30
39	150
41	60
44	40
50	410
51	180
52	90
53	160
63	70
65	160
74	140
75	751
76	1181
77	731
78	180
79	100
80	30
82	30
91	470
92	70
93	110
103	80
104	350
105	120
107	170
121	200
122	150
152	40
153	50
154	60
155	2162
156	180
157	2162
158	140
181	30
183	9999
184	781
185	9599
186	751
187	30
304	1692
305	280
306	1641
307	260
