Mass Spectrum: Chloroacetic acid, 3,5-dimethylphenyl ester
Formula: C10 H11 Cl O2
Molecular weight: 198
Origin: Zaikin V.G., TIPS RAS, Moscow, Russia
m/z	RELATIVE INTENSITY
27	150
28	40
36	140
38	90
39	320
40	40
41	140
42	50
44	70
49	290
50	120
51	270
52	160
53	290
55	30
62	40
63	170
64	40
65	300
66	40
67	40
73	30
74	20
75	30
76	30
77	1091
78	290
79	430
80	30
89	30
91	841
92	130
93	230
94	70
99	80
103	120
104	90
105	420
106	30
107	2562
108	230
119	30
120	40
121	1011
122	9999
123	871
124	50
128	350
130	100
162	150
164	90
198	1541
199	160
200	530
201	40
