Mass Spectrum: 1-Dichloromethyldimethylsilyloxy-3-methylbenzene
Formula: C10 H14 Cl2 O Si
Molecular weight: 248
Origin: Zaikin V.G., TIPS RAS, Moscow, Russia
m/z	RELATIVE INTENSITY
59	60
63	30
65	130
75	120
77	50
79	40
82	40
83	30
89	20
91	1111
92	90
93	110
95	70
103	40
105	120
109	90
113	100
115	70
119	60
135	260
136	30
137	60
139	30
147	60
149	400
150	70
161	80
162	90
163	120
164	70
165	9999
166	1571
167	470
168	30
169	30
185	70
197	80
199	30
213	30
248	1161
249	180
250	801
251	120
252	150
