Mass Spectrum: 4-Bromobutyric acid, 4-methoxyphenyl ester
Formula: C11 H13 Br O3
Molecular weight: 272
Origin: Zaikin V.G., TIPS RAS, Moscow, Russia
m/z	RELATIVE INTENSITY
39	40
41	330
42	30
52	30
65	40
77	40
81	90
92	30
95	110
107	50
109	1461
110	100
121	140
123	200
124	9999
125	881
126	60
149	130
151	120
272	230
273	30
274	230
