Mass Spectrum: Benzamide, N-(3-nitrophenyl)-2-fluoro-
Formula: C13 H9 F N2 O3
Molecular weight: 260
Origin: Zaikin V.G., TIPS RAS, Moscow, Russia
m/z	RELATIVE INTENSITY
28	10
38	20
39	40
50	60
51	50
52	30
63	90
64	90
65	50
69	40
74	40
75	410
76	60
91	50
92	30
94	90
95	1631
96	130
122	40
123	9999
124	641
125	40
138	30
230	80
260	1772
261	260
262	20
