Mass Spectrum: 1-Dimethylisopropylsilyloxy-3-methylbenzene
Formula: C12 H20 O Si
Molecular weight: 208
Origin: Zaikin V.G., TIPS RAS, Moscow, Russia
m/z	RELATIVE INTENSITY
59	130
65	70
73	60
75	190
79	30
82	30
83	30
91	821
92	60
95	30
105	140
109	80
135	280
136	30
137	50
149	300
150	60
151	130
163	80
164	30
165	9999
166	1571
167	470
168	30
177	40
193	130
208	2392
209	981
210	120
