Mass Spectrum: 2-Trifluoromethylbenzoic acid, 4-benzyloxyphenyl ester
Formula: C21 H15 F3 O3
Molecular weight: 372
Origin: Zaikin V.G., TIPS RAS, Moscow, Russia
m/z	RELATIVE INTENSITY
39	30
65	330
89	50
90	40
91	9999
92	821
95	110
125	60
126	80
145	2222
146	160
173	9238
174	851
175	40
372	3974
373	911
374	110
