Mass Spectrum: 4-Chloro-1-triisobutylsilyloxybenzene
Formula: C18 H31 Cl O Si
Molecular weight: 326
Origin: Zaikin V.G., TIPS RAS, Moscow, Russia
m/z	RELATIVE INTENSITY
41	40
59	150
63	40
77	160
78	30
85	190
86	40
87	50
91	80
92	40
93	50
101	40
111	130
112	50
113	140
115	100
117	40
121	200
122	30
125	30
135	180
136	80
143	100
149	80
155	851
156	100
157	1231
158	140
159	330
160	20
163	60
169	70
170	40
171	7166
172	941
173	2602
174	300
175	90
184	30
185	190
186	30
187	60
197	160
199	140
211	80
212	90
213	9999
214	1692
215	3843
216	571
217	140
227	410
228	60
229	140
245	40
269	8998
270	2022
271	3503
272	701
273	150
326	3383
327	841
328	1271
329	280
330	60
