Mass Spectrum: 2-Diphenylvinylsilyloxynaphthalene
Formula: C24 H20 O Si
Molecular weight: 352
Origin: Zaikin V.G., TIPS RAS, Moscow, Russia
m/z	RELATIVE INTENSITY
77	70
105	571
106	50
107	60
115	30
123	40
124	30
125	30
126	40
127	420
128	130
130	30
131	200
137	240
138	60
152	80
153	210
154	2823
155	410
162	30
163	120
165	30
171	330
172	40
176	50
180	60
181	571
182	100
183	2963
184	510
185	120
196	460
197	410
198	90
199	190
200	30
201	30
202	530
203	270
204	280
205	50
207	310
208	60
209	1862
210	350
211	90
215	140
217	60
219	160
220	30
221	70
228	150
229	80
230	40
231	30
245	70
246	60
247	2552
248	901
249	290
250	50
255	20
256	40
259	60
261	40
273	1852
274	7237
275	2282
276	571
277	80
295	30
307	30
323	180
324	90
325	991
326	280
327	70
337	260
338	70
351	190
352	9999
353	3203
354	791
355	140
