Mass Spectrum: 3-Phenylpropionic acid, 3,4-dichlorophenyl ester
Formula: C15 H12 Cl2 O2
Molecular weight: 294
Origin: Zaikin V.G., TIPS RAS, Moscow, Russia
m/z	RELATIVE INTENSITY
27	50
28	20
39	50
51	130
63	100
65	360
73	30
77	661
78	240
79	601
89	50
90	40
91	8007
92	611
99	30
102	30
103	591
104	781
105	9999
106	881
109	30
131	911
132	2002
133	9388
134	951
135	170
145	40
147	30
161	80
162	1261
163	120
164	841
165	50
166	120
294	601
295	80
296	400
297	50
298	60
