Mass Spectrum: 1-Dimethyldodecylsilyloxy-4-methoxybenzene
Formula: C21 H38 O2 Si
Molecular weight: 350
Origin: Zaikin V.G., TIPS RAS, Moscow, Russia
m/z	RELATIVE INTENSITY
59	160
75	40
89	30
91	50
99	70
108	30
113	50
121	110
123	20
137	80
138	30
151	90
165	30
166	60
167	1071
168	150
169	40
181	5135
182	881
183	270
193	20
211	50
227	30
335	80
350	9999
351	2953
352	781
353	120
