Mass Spectrum: Benzamide, N-(4-methoxyphenyl)-3-bromo-
Formula: C14 H12 Br N O2
Molecular weight: 305
Origin: Zaikin V.G., TIPS RAS, Moscow, Russia
m/z	RELATIVE INTENSITY
26	80
27	70
28	90
36	50
38	70
39	150
41	350
44	100
49	30
50	591
51	330
52	530
53	330
54	50
55	50
57	40
62	40
63	190
64	200
65	270
66	40
67	110
68	30
69	30
71	30
73	30
74	210
75	1081
76	2232
77	500
78	210
79	330
80	490
81	170
82	130
85	20
90	70
91	150
92	110
93	50
95	951
96	70
102	40
103	70
104	801
105	210
106	180
107	170
108	280
109	250
115	40
122	1922
123	370
124	1401
125	110
126	30
127	60
128	40
129	30
131	30
134	160
135	60
139	40
140	30
143	200
149	70
153	40
154	130
155	3003
156	250
157	2943
158	220
166	30
167	60
181	20
182	90
183	9999
184	801
185	9989
186	771
187	40
200	260
201	30
202	30
227	40
233	30
261	110
291	30
305	4654
306	771
307	4734
308	721
309	120
311	60
