Mass Spectrum: Acetamide, N-(2,5-dimethoxyphenyl)-2-phenyl-
Formula: C16 H17 N O3
Molecular weight: 271
Origin: Zaikin V.G., TIPS RAS, Moscow, Russia
m/z	RELATIVE INTENSITY
28	60
39	150
41	70
44	50
50	40
51	120
52	140
53	60
63	120
64	50
65	500
66	60
67	60
68	90
69	40
77	90
78	50
79	200
80	80
81	40
82	40
89	190
90	250
91	2702
92	360
93	130
94	50
95	220
105	20
106	40
107	180
108	90
109	150
110	380
111	60
118	160
119	30
122	190
123	110
124	130
125	170
136	100
137	40
138	8137
139	691
140	60
150	270
151	70
152	190
153	5005
154	500
155	40
162	40
164	500
165	1261
166	120
167	30
179	460
180	400
181	50
210	30
228	130
239	20
240	140
241	30
256	80
271	9999
272	1712
273	200
