Mass Spectrum: Benzamide, N-(3-chlorophenyl)-4-methoxy-
Formula: C14 H12 Cl N O2
Molecular weight: 261
Origin: Zaikin V.G., TIPS RAS, Moscow, Russia
m/z	RELATIVE INTENSITY
28	10
39	30
50	40
51	30
63	140
64	220
65	50
75	40
76	80
77	731
78	60
79	40
91	30
92	621
93	40
99	60
104	40
107	430
108	40
113	160
127	90
129	30
135	9999
136	771
137	60
261	1041
262	170
263	340
264	50
