Mass Spectrum: 2,6-Difluorobenzoic acid, 4-benzyloxyphenyl ester
Formula: C20 H14 F2 O3
Molecular weight: 340
Origin: Zaikin V.G., TIPS RAS, Moscow, Russia
m/z	RELATIVE INTENSITY
28	80
39	60
41	30
44	50
51	40
54	40
62	30
63	290
64	40
65	430
89	90
90	60
91	9999
92	751
93	60
110	40
112	40
113	851
114	100
140	20
141	6266
142	480
143	20
340	2522
341	581
342	70
