Mass Spectrum: 4-Cyanophenol, TBDMS derivative
Formula: C13 H19 N O Si
Molecular weight: 233
Origin: Zaikin V.G., TIPS RAS, Moscow, Russia
m/z	RELATIVE INTENSITY
28	120
44	40
73	80
75	100
91	30
102	60
115	110
116	110
119	440
120	80
121	40
144	550
145	30
146	150
160	170
162	230
176	9999
177	2102
178	581
179	50
233	921
234	160
235	30
