Mass Spectrum: Cyclobutanecarboxylic acid, 4-methoxyphenyl ester
Formula: C12 H14 O3
Molecular weight: 206
Origin: Zaikin V.G., TIPS RAS, Moscow, Russia
m/z	RELATIVE INTENSITY
26	40
27	230
28	90
29	220
39	170
41	120
51	50
52	90
53	160
54	90
55	2813
56	120
63	50
64	50
65	70
77	60
80	60
81	150
82	50
83	540
92	60
95	230
107	50
109	1141
110	100
123	510
124	9999
125	751
126	60
178	40
206	1291
207	210
