Mass Spectrum: Cyclobutanecarboxylic acid, 4-cyanophenyl ester
Formula: C12 H11 N O2
Molecular weight: 201
Origin: Zaikin V.G., TIPS RAS, Moscow, Russia
m/z	RELATIVE INTENSITY
26	90
27	911
28	330
29	831
36	30
37	70
38	60
39	611
40	40
41	40
50	70
51	110
52	50
53	380
54	170
55	9999
56	410
62	50
63	210
64	310
65	40
75	90
76	60
82	50
83	5775
84	320
90	300
91	180
92	30
102	230
118	70
119	691
120	70
201	140
202	30
