Mass Spectrum: 4-Trifluoromethylbenzoic acid, 2-naphthyl ester
Formula: C18 H11 F3 O2
Molecular weight: 316
Origin: Zaikin V.G., TIPS RAS, Moscow, Russia
m/z	RELATIVE INTENSITY
28	10
50	40
63	60
65	40
75	80
89	80
95	160
114	30
115	530
116	60
125	100
126	150
127	40
143	30
144	150
145	3123
146	250
154	40
173	9999
174	821
175	40
269	40
297	130
316	2823
317	550
318	60
