Mass Spectrum: m-Anisic acid, 4-chlorophenyl ester
Formula: C14 H11 Cl O3
Molecular weight: 262
Origin: Zaikin V.G., TIPS RAS, Moscow, Russia
m/z	RELATIVE INTENSITY
39	40
50	50
51	60
63	230
64	490
65	30
73	40
75	60
76	180
77	1521
78	100
79	70
92	1081
93	60
99	80
104	30
107	2372
108	160
127	20
135	9999
136	851
137	60
262	180
264	70
