Mass Spectrum: Cyclobutanecarboxylic acid, 3-methylphenyl ester
Formula: C12 H14 O2
Molecular weight: 190
Origin: Zaikin V.G., TIPS RAS, Moscow, Russia
m/z	RELATIVE INTENSITY
26	60
27	701
28	220
29	550
38	30
39	520
40	40
41	50
50	60
51	190
52	120
53	420
54	320
55	9999
56	400
63	80
64	30
65	230
77	651
78	220
79	440
80	180
81	40
82	701
83	6256
84	310
89	50
90	140
91	591
92	50
93	50
105	40
107	1191
108	3363
109	290
119	80
121	250
134	140
162	80
190	3493
191	450
192	30
