Mass Spectrum: 5-Chlorovaleric acid, 4-cyanophenyl ester
Formula: C12 H12 Cl N O2
Molecular weight: 237
Origin: Zaikin V.G., TIPS RAS, Moscow, Russia
m/z	RELATIVE INTENSITY
26	70
27	671
28	360
29	921
36	80
37	90
38	80
39	641
40	60
41	440
42	250
43	40
49	140
50	90
51	160
52	60
53	250
54	60
55	7086
56	350
61	30
62	150
63	721
64	490
65	190
69	30
75	220
76	110
77	40
83	340
89	90
90	591
91	5605
92	280
93	1762
94	70
102	540
103	60
116	50
117	40
118	210
119	9999
120	751
121	2913
122	160
124	40
132	30
146	50
237	50
