Mass Spectrum: 6-Chlorohexanoic acid, 4-methoxyphenyl ester
Formula: C13 H17 Cl O3
Molecular weight: 256
Origin: Zaikin V.G., TIPS RAS, Moscow, Russia
m/z	RELATIVE INTENSITY
27	20
28	10
39	30
41	260
43	90
55	100
60	30
63	30
65	30
69	490
77	40
81	70
83	30
92	30
95	70
108	30
109	1111
110	70
123	120
124	9999
125	861
126	60
133	80
256	260
257	30
258	80
