Mass Spectrum: 2-Chlorobenzoic acid, 4-nitrophenyl ester
Formula: C13 H8 Cl N O4
Molecular weight: 277
Origin: Zaikin V.G., TIPS RAS, Moscow, Russia
m/z	RELATIVE INTENSITY
50	90
51	50
63	50
64	40
74	30
75	581
76	170
85	50
104	30
110	30
111	1712
112	120
113	571
114	30
135	30
139	9999
140	811
141	3363
142	240
