Mass Spectrum: Phenylacetic acid, 3,4-dichlorophenyl ester
Formula: C14 H10 Cl2 O2
Molecular weight: 280
Origin: Zaikin V.G., TIPS RAS, Moscow, Russia
m/z	RELATIVE INTENSITY
28	20
36	50
38	30
39	250
41	80
50	60
51	130
52	30
61	20
62	100
63	410
64	80
65	1021
66	50
73	100
74	50
75	60
89	370
90	731
91	9999
92	791
97	30
98	40
99	90
107	30
109	50
118	8057
119	941
120	60
133	180
135	110
161	80
162	310
163	60
164	190
166	30
280	30
