Mass Spectrum: Phenylacetic acid, 4-nitrophenyl ester
Formula: C14 H11 N O4
Molecular weight: 257
Origin: Zaikin V.G., TIPS RAS, Moscow, Russia
m/z	RELATIVE INTENSITY
28	30
30	80
38	50
39	240
41	60
50	70
51	110
52	40
53	20
62	60
63	280
64	140
65	841
66	40
75	30
76	20
80	30
89	330
90	460
91	9999
92	781
93	60
108	50
109	380
110	30
118	1762
119	1792
120	150
123	70
139	80
257	30
