Mass Spectrum: Benzamide, N-(3-chlorophenyl)-3-methyl-
Formula: C14 H12 Cl N O
Molecular weight: 245
Origin: Zaikin V.G., TIPS RAS, Moscow, Russia
m/z	RELATIVE INTENSITY
28	10
39	140
41	60
50	40
51	70
62	30
63	170
64	80
65	741
66	40
75	40
89	200
90	190
91	2943
92	250
99	90
101	30
104	50
105	30
118	40
119	9999
120	741
121	40
122	30
127	190
129	60
245	2252
246	350
247	721
248	110
