Mass Spectrum: 2-Chlorobenzoic acid, 4-cyanophenyl ester
Formula: C14 H8 Cl N O2
Molecular weight: 257
Origin: Zaikin V.G., TIPS RAS, Moscow, Russia
m/z	RELATIVE INTENSITY
39	30
50	130
51	80
63	50
64	60
74	50
75	841
76	220
85	80
90	90
104	30
110	30
111	1982
112	140
113	701
114	40
118	30
139	9999
140	831
141	3453
142	260
