Mass Spectrum: Benzamide, N-(1-naphthyl)-4-ethyl-
Formula: C19 H17 N O
Molecular weight: 275
Origin: Zaikin V.G., TIPS RAS, Moscow, Russia
m/z	RELATIVE INTENSITY
26	30
27	80
28	20
39	70
50	40
51	80
53	30
63	80
65	80
75	30
76	50
77	581
78	110
79	651
80	40
89	150
90	130
91	70
102	40
103	440
104	170
105	761
106	70
113	40
114	70
115	601
116	110
118	30
127	40
131	50
132	60
133	9999
134	791
135	130
140	80
141	50
142	60
143	250
144	100
161	30
275	2983
276	571
277	90
