Mass Spectrum: 4-Chloro-1-dimethylisopropylsilyloxybenzene
Formula: C11 H17 Cl O Si
Molecular weight: 228
Origin: Zaikin V.G., TIPS RAS, Moscow, Russia
m/z	RELATIVE INTENSITY
28	40
59	100
73	110
75	170
77	30
79	330
81	80
91	120
92	60
93	360
95	150
101	30
111	120
113	40
117	40
121	80
125	70
129	50
131	30
135	150
149	250
150	90
151	30
155	180
157	120
169	90
171	150
173	40
185	9999
186	1481
187	3703
188	500
189	140
197	30
213	120
215	40
228	2432
229	410
230	881
231	140
232	30
