Mass Spectrum: o-Anisic acid, 4-benzyloxyphenyl ester
Formula: C21 H18 O4
Molecular weight: 334
Origin: Zaikin V.G., TIPS RAS, Moscow, Russia
m/z	RELATIVE INTENSITY
28	10
51	30
64	40
65	100
77	721
78	40
79	60
91	801
92	330
105	50
119	190
120	90
135	9999
136	891
137	60
334	390
335	80
