Mass Spectrum: Hexanamide, N-(3-methylphenyl)-
Formula: C13 H19 N O
Molecular weight: 205
Origin: Zaikin V.G., TIPS RAS, Moscow, Russia
m/z	RELATIVE INTENSITY
27	130
28	60
29	170
39	130
41	260
42	40
43	711
51	50
52	40
53	50
55	160
63	30
65	170
71	200
77	300
78	110
79	220
80	60
89	40
90	30
91	410
92	40
93	70
99	90
104	70
105	60
106	1051
107	9999
108	871
109	30
120	60
132	40
133	60
134	170
144	30
148	130
149	741
150	70
162	60
176	30
204	30
205	1371
206	220
