Mass Spectrum: m-Toluic acid, 3,4-dichlorophenyl ester
Formula: C14 H10 Cl2 O2
Molecular weight: 280
Origin: Zaikin V.G., TIPS RAS, Moscow, Russia
m/z	RELATIVE INTENSITY
28	60
39	150
41	50
50	30
51	60
62	40
63	190
64	40
65	691
66	30
73	40
89	190
90	140
91	2592
92	210
99	30
118	40
119	9999
120	851
121	50
133	70
135	50
162	80
164	50
280	130
282	80
