Mass Spectrum: 5-Chlorovaleric acid, 3-methylphenyl ester
Formula: C12 H15 Cl O2
Molecular weight: 226
Origin: Zaikin V.G., TIPS RAS, Moscow, Russia
m/z	RELATIVE INTENSITY
27	230
28	100
29	250
36	20
39	230
41	120
42	30
49	30
50	30
51	100
52	60
53	160
55	1772
56	80
63	130
65	170
77	410
78	130
79	280
80	130
83	40
89	40
90	120
91	1111
92	50
93	270
107	801
108	9999
109	851
110	40
119	470
121	150
226	220
228	70
