Mass Spectrum: 4-Benzyloxy-1-di(tert-butyl)silyloxybenzene
Formula: C21 H30 O2 Si
Molecular weight: 342
Origin: Zaikin V.G., TIPS RAS, Moscow, Russia
m/z	RELATIVE INTENSITY
28	10
29	40
36	80
41	100
45	40
57	160
58	70
59	1141
60	40
65	230
73	9599
74	771
75	510
77	40
83	60
85	40
87	30
91	9999
92	761
93	50
96	40
99	30
101	891
102	60
109	40
110	30
119	100
121	30
123	50
124	80
135	90
136	40
137	60
138	50
151	150
152	60
153	80
165	90
166	90
167	420
168	40
179	120
191	80
193	130
194	40
195	320
196	50
200	30
207	190
209	410
227	200
228	50
235	30
243	50
251	9649
252	1992
253	510
257	761
258	120
285	130
286	460
287	90
327	30
342	9669
343	2702
344	671
345	80
