Mass Spectrum: Benzamide, N-(3-methylphenyl)-4-fluoro-
Formula: C14 H12 F N O
Molecular weight: 229
Origin: Zaikin V.G., TIPS RAS, Moscow, Russia
m/z	RELATIVE INTENSITY
28	20
39	60
50	50
51	80
52	40
53	30
63	40
65	60
69	30
74	30
75	360
76	50
77	220
78	90
79	100
91	50
94	80
95	2432
96	200
104	30
106	150
107	210
108	60
122	30
123	9999
124	691
125	40
132	30
185	30
228	30
229	4484
230	691
231	50
