Mass Spectrum: 2-Furoic acid, 4-chlorophenyl ester
Formula: C11 H7 Cl O3
Molecular weight: 222
Origin: Zaikin V.G., TIPS RAS, Moscow, Russia
m/z	RELATIVE INTENSITY
36	10
38	40
39	330
50	10
51	30
53	10
63	40
64	10
65	10
66	10
67	180
73	60
75	50
95	9999
96	581
97	50
99	110
101	30
111	70
112	10
113	10
127	30
128	40
129	10
130	10
222	1942
223	230
224	671
225	70
