Mass Spectrum: p-Toluic acid, 3,4-dichlorophenyl ester
Formula: C14 H10 Cl2 O2
Molecular weight: 280
Origin: Zaikin V.G., TIPS RAS, Moscow, Russia
m/z	RELATIVE INTENSITY
39	70
41	30
51	30
63	90
65	530
89	140
90	110
91	2132
92	150
118	50
119	9999
120	901
121	50
133	40
135	30
280	90
282	50
