Mass Spectrum: Dichloroacetic acid, 4-benzyloxyphenyl ester
Formula: C15 H12 Cl2 O3
Molecular weight: 310
Origin: Zaikin V.G., TIPS RAS, Moscow, Russia
m/z	RELATIVE INTENSITY
26	30
36	100
38	70
39	130
41	50
48	30
50	40
51	70
52	40
53	30
54	70
63	130
64	70
65	681
66	30
76	50
77	40
78	30
81	40
82	40
83	230
85	130
89	130
90	80
91	9999
92	811
93	30
109	70
110	90
141	50
183	300
184	40
200	20
310	370
311	50
312	240
313	30
314	30
