Mass Spectrum: 1-(3-Cyanopropyl)dimethylsilyloxy-3,4-dichlorobenzene
Formula: C12 H15 Cl2 N O Si
Molecular weight: 287
Origin: Zaikin V.G., TIPS RAS, Moscow, Russia
m/z	RELATIVE INTENSITY
43	40
58	30
59	60
63	80
70	110
72	30
75	40
77	40
84	40
85	40
93	480
95	190
98	3974
99	400
100	140
109	260
110	200
111	60
113	300
115	190
117	30
122	30
125	80
126	9999
127	1351
128	450
129	30
145	150
147	110
148	30
149	40
155	100
157	30
159	90
161	30
169	150
170	30
171	50
182	30
183	130
184	160
185	60
186	50
189	230
191	180
193	40
203	1061
204	130
205	781
206	80
207	190
217	50
219	4214
220	611
221	2833
222	400
223	591
224	100
231	50
233	40
244	490
245	70
246	390
247	40
248	60
259	150
261	90
272	300
273	30
274	180
287	1321
288	250
289	891
290	160
291	170
