Mass Spectrum: Cyclopentanecarboxylic acid, 4-nitrophenyl ester
Formula: C12 H13 N O4
Molecular weight: 235
Origin: Zaikin V.G., TIPS RAS, Moscow, Russia
m/z	RELATIVE INTENSITY
26	30
27	180
28	10
29	30
30	100
38	50
39	450
40	110
41	1992
42	100
50	60
51	40
52	30
53	120
54	30
55	510
63	150
64	130
65	220
66	50
67	691
68	360
69	9999
70	571
75	70
76	70
81	30
92	30
93	80
95	40
96	90
97	5795
98	390
109	300
110	30
123	70
124	80
139	150
140	50
194	100
