Mass Spectrum: 4-Trifluoromethylbenzoic acid, 4-chlorophenyl ester
Formula: C14 H8 Cl F3 O2
Molecular weight: 300
Origin: Zaikin V.G., TIPS RAS, Moscow, Russia
m/z	RELATIVE INTENSITY
50	60
63	70
73	70
74	30
75	160
76	40
95	250
99	160
101	40
119	30
125	160
126	130
127	50
128	60
144	70
145	2853
146	230
154	50
173	9999
174	861
175	50
281	120
283	40
300	591
301	90
302	200
