Mass Spectrum: Benzamide, N-(1-naphthyl)-2,3,4-trifluoro-
Formula: C17 H10 F3 N O
Molecular weight: 301
Origin: Zaikin V.G., TIPS RAS, Moscow, Russia
m/z	RELATIVE INTENSITY
28	10
39	40
51	30
62	40
63	100
65	50
75	40
77	30
81	300
87	30
88	60
89	150
112	40
113	100
114	150
115	1782
116	260
126	30
127	60
131	1381
132	140
140	190
141	90
142	280
143	300
144	1541
145	170
157	30
158	60
159	9999
160	681
161	40
169	30
252	40
253	40
281	30
282	30
300	40
301	5865
302	1051
303	100
