Mass Spectrum: 4-Chlorobenzoic acid, 4-nitrophenyl ester
Formula: C13 H8 Cl N O4
Molecular weight: 277
Origin: Zaikin V.G., TIPS RAS, Moscow, Russia
m/z	RELATIVE INTENSITY
28	20
50	60
51	30
63	30
75	400
76	130
85	30
104	60
111	1641
112	110
113	550
114	30
139	9999
140	791
141	3393
142	250
