Mass Spectrum: 4-Benzyloxy-1-dimethylisopropylsilyloxybenzene
Formula: C18 H24 O2 Si
Molecular weight: 300
Origin: Zaikin V.G., TIPS RAS, Moscow, Russia
m/z	RELATIVE INTENSITY
28	40
36	110
44	50
58	30
59	1051
60	40
65	190
73	3323
74	240
75	180
79	40
91	6256
92	440
95	30
101	6236
102	611
103	190
110	80
123	180
135	70
138	130
139	60
151	30
165	50
166	200
167	140
193	40
200	90
207	210
209	9999
210	1702
211	430
257	571
258	90
285	170
300	8297
301	2062
302	530
303	50
