Mass Spectrum: m-Toluic acid, 4-methoxyphenyl ester
Formula: C15 H14 O3
Molecular weight: 242
Origin: Zaikin V.G., TIPS RAS, Moscow, Russia
m/z	RELATIVE INTENSITY
28	40
39	110
41	90
51	50
52	50
54	30
63	90
64	40
65	550
66	30
80	30
81	30
89	130
90	140
91	2492
92	210
95	80
109	80
118	60
119	9999
120	811
121	40
123	130
124	80
242	1511
243	240
