Mass Spectrum: 2-Furoic acid, 4-methoxyphenyl ester
Formula: C12 H10 O4
Molecular weight: 218
Origin: Zaikin V.G., TIPS RAS, Moscow, Russia
m/z	RELATIVE INTENSITY
38	20
39	240
41	60
51	30
52	40
53	20
54	20
63	20
64	20
65	30
66	10
67	130
77	20
79	10
80	30
81	10
82	10
92	20
95	9999
96	530
97	40
108	10
109	50
111	80
123	310
124	50
218	3833
219	500
220	50
