Mass Spectrum: Phenylthioacetic acid, 4-methoxyphenyl ester
Formula: C15 H14 O3 S
Molecular weight: 274
Origin: Zaikin V.G., TIPS RAS, Moscow, Russia
m/z	RELATIVE INTENSITY
28	10
39	40
41	70
45	540
51	80
52	40
65	140
77	220
78	50
79	110
80	40
81	40
91	30
95	220
105	280
108	50
109	781
110	90
121	200
122	190
123	2953
124	9999
125	861
126	60
147	30
150	490
151	40
274	651
275	110
276	30
