Mass Spectrum: Trifluoroacetic acid, 2-naphthyl ester
Formula: C12 H7 F3 O2
Molecular weight: 240
Origin: Zaikin V.G., TIPS RAS, Moscow, Russia
m/z	RELATIVE INTENSITY
39	40
63	150
65	100
69	210
75	50
77	30
88	60
89	230
113	90
114	220
115	4374
116	420
126	50
127	500
128	50
143	1531
144	170
212	170
239	50
240	9999
241	1371
242	110
