Mass Spectrum: Dichloroacetic acid, 3,5-dimethylphenyl ester
Formula: C10 H10 Cl2 O2
Molecular weight: 232
Origin: Zaikin V.G., TIPS RAS, Moscow, Russia
m/z	RELATIVE INTENSITY
27	90
28	20
36	60
39	200
41	100
48	50
50	50
51	150
52	100
53	220
63	70
65	210
66	30
67	30
76	50
77	1021
78	250
79	470
80	30
83	250
85	160
89	30
91	771
92	100
93	300
94	50
103	240
104	70
105	2793
106	240
107	851
108	60
120	30
121	791
122	9999
123	831
124	80
141	100
143	30
149	50
153	130
155	40
169	160
171	50
232	1742
233	190
234	1211
235	110
236	190
