Mass Spectrum: o-Anisic acid, 4-nitrophenyl ester
Formula: C14 H11 N O5
Molecular weight: 273
Origin: Zaikin V.G., TIPS RAS, Moscow, Russia
m/z	RELATIVE INTENSITY
51	70
63	70
64	120
76	60
77	1131
78	80
79	90
92	460
105	50
120	120
135	9999
136	911
137	70
