Mass Spectrum: 3-Phenylpropionic acid, 4-benzyloxyphenyl ester
Formula: C22 H20 O3
Molecular weight: 332
Origin: Zaikin V.G., TIPS RAS, Moscow, Russia
m/z	RELATIVE INTENSITY
28	110
36	60
44	110
57	20
65	200
73	40
77	120
78	40
79	130
81	30
91	9999
92	791
95	30
97	30
103	120
104	160
105	1061
106	50
110	100
131	80
132	50
133	130
135	170
144	100
150	50
173	110
191	30
200	8778
201	1201
202	70
332	340
333	90
