Mass Spectrum: Benzamide, N-(3-chlorophenyl)-2-methyl-
Formula: C14 H12 Cl N O
Molecular weight: 245
Origin: Zaikin V.G., TIPS RAS, Moscow, Russia
m/z	RELATIVE INTENSITY
26	30
28	10
36	30
38	30
39	210
41	80
50	50
51	100
52	30
62	40
63	220
64	100
65	811
66	50
73	30
75	70
76	30
77	40
89	240
90	220
91	3133
92	270
99	100
101	30
104	50
105	30
111	40
118	60
119	9999
120	741
121	40
127	130
129	40
180	40
228	40
245	1441
246	230
247	460
248	70
