Mass Spectrum: Benzamide, N-(2-iodo-4-methylphenyl)-3-methyl-
Formula: C15 H14 I N O
Molecular weight: 351
Origin: Zaikin V.G., TIPS RAS, Moscow, Russia
m/z	RELATIVE INTENSITY
28	20
39	90
41	30
50	40
51	100
52	60
63	90
64	30
65	480
66	30
76	40
77	140
78	150
79	50
89	170
90	180
91	2442
92	210
104	240
105	180
106	60
118	40
119	9999
120	751
121	40
127	60
128	110
194	30
222	30
223	80
224	80
225	70
226	30
232	70
233	170
234	50
351	5895
352	911
353	80
