Mass Spectrum: Propanamide, N-tetrahydrofurfuryl-2,2-dimethyl-
Formula: C10 H19 N O2
Molecular weight: 185
Origin: Zaikin V.G., TIPS RAS, Moscow, Russia
m/z	RELATIVE INTENSITY
26	60
27	510
28	380
29	971
30	681
31	90
36	60
38	30
39	591
40	130
41	2252
42	530
43	2302
44	170
53	110
54	90
55	480
56	591
57	4144
58	330
59	70
60	280
67	330
68	80
69	400
70	510
71	9999
72	530
73	2242
74	80
82	350
83	250
84	5345
85	1441
86	190
92	50
98	110
99	30
100	1511
101	130
102	2983
103	180
110	90
114	360
115	2762
116	1151
117	70
126	120
127	60
128	380
140	30
141	420
142	651
143	60
157	50
170	150
185	140
186	110
