Mass Spectrum: 2-Fluorobenzoic acid, 3,4-dichlorophenyl ester
Formula: C13 H7 Cl2 F O2
Molecular weight: 284
Origin: Zaikin V.G., TIPS RAS, Moscow, Russia
m/z	RELATIVE INTENSITY
63	30
75	300
94	60
95	1301
96	80
123	9999
124	791
125	40
133	60
135	30
284	280
285	30
286	210
