Mass Spectrum: 1-Adamantanecarboxylic acid, 4-nitrophenyl ester
Formula: C17 H19 N O4
Molecular weight: 301
Origin: Zaikin V.G., TIPS RAS, Moscow, Russia
m/z	RELATIVE INTENSITY
41	110
53	40
55	120
65	30
67	250
69	60
77	170
78	40
79	761
80	60
81	200
91	210
92	80
93	751
94	60
105	50
107	380
135	9999
136	1111
137	40
163	571
164	60
