Mass Spectrum: 3,5-Dimethyl-1-diphenyl(tert-butyl)silyloxybenzene
Formula: C24 H28 O Si
Molecular weight: 360
Origin: Zaikin V.G., TIPS RAS, Moscow, Russia
m/z	RELATIVE INTENSITY
28	10
36	40
77	50
91	140
105	140
119	70
165	170
166	170
179	100
181	140
183	60
195	90
197	80
199	140
200	30
210	80
211	50
224	40
225	1571
226	310
227	70
301	30
302	40
303	9999
304	2702
305	651
306	90
360	460
361	120
