Mass Spectrum: Propanamide, N-(1-naphthyl)-2-chloro-
Formula: C13 H12 Cl N O
Molecular weight: 233
Origin: Zaikin V.G., TIPS RAS, Moscow, Russia
m/z	RELATIVE INTENSITY
26	70
27	400
28	160
36	140
38	40
39	150
40	30
42	30
44	90
50	90
51	130
52	50
55	200
56	40
57	30
58	80
61	30
62	140
63	921
64	90
65	340
71	150
74	90
75	160
76	110
77	230
78	30
86	50
87	100
88	180
89	500
90	90
91	70
99	30
100	30
101	130
102	50
113	330
114	611
115	5935
116	931
117	90
126	300
127	1251
128	350
129	80
138	30
139	40
140	701
141	400
142	2422
143	9999
144	3413
145	300
152	60
153	200
154	310
155	240
156	40
166	30
167	70
168	130
169	561
170	2302
171	270
180	30
182	90
183	40
196	80
197	260
198	500
199	90
233	5525
234	801
235	1852
236	240
