Mass Spectrum: 1-Benzyloxy-4-diphenyl(tert-butyl)silyloxybenzene
Formula: C29 H30 O2 Si
Molecular weight: 438
Origin: Zaikin V.G., TIPS RAS, Moscow, Russia
m/z	RELATIVE INTENSITY
36	40
38	30
71	30
73	40
91	1451
92	60
97	30
105	100
119	50
135	2452
136	240
137	50
181	180
183	140
184	40
195	40
197	791
198	90
199	170
213	40
234	40
239	601
240	80
259	130
265	30
290	330
291	240
347	350
348	80
381	9999
382	3353
383	751
384	60
438	4084
439	1301
440	320
