Mass Spectrum: Benzamide, N-(3-methylphenyl)-4-trifluoromethyl-
Formula: C15 H12 F3 N O
Molecular weight: 279
Origin: Zaikin V.G., TIPS RAS, Moscow, Russia
m/z	RELATIVE INTENSITY
28	20
39	60
50	60
51	80
52	40
53	30
63	30
65	70
75	100
76	50
77	260
78	90
79	130
91	60
95	260
104	30
106	130
107	200
108	160
119	30
125	180
126	180
144	50
145	3843
146	310
154	30
159	40
173	9999
174	791
175	40
260	300
261	40
278	60
279	4784
280	761
