Mass Spectrum: Chloroacetic acid, 4-chlorophenyl ester
Formula: C8 H6 Cl2 O2
Molecular weight: 204
Origin: Zaikin V.G., TIPS RAS, Moscow, Russia
m/z	RELATIVE INTENSITY
28	60
35	30
36	190
37	60
38	220
39	240
42	140
44	90
47	40
48	40
49	681
50	190
51	230
52	40
53	40
61	70
62	170
63	581
64	230
65	370
72	30
73	611
74	120
75	380
76	80
77	731
78	70
79	220
85	30
91	30
92	60
93	100
99	1081
100	260
101	350
102	70
107	110
108	591
109	50
111	440
112	20
113	160
122	50
127	350
128	9999
129	771
130	3343
131	210
155	30
204	711
205	50
206	460
