Mass Spectrum: Acetoxyacetic acid, 4-methoxyphenyl ester
Formula: C11 H12 O5
Molecular weight: 224
Origin: Zaikin V.G., TIPS RAS, Moscow, Russia
m/z	RELATIVE INTENSITY
26	30
28	20
39	60
41	100
42	70
43	1802
44	40
51	40
52	90
53	60
54	60
63	60
64	60
65	90
73	581
77	70
80	60
81	180
82	30
92	60
95	200
101	591
107	40
108	30
109	1802
110	150
123	380
124	9999
125	701
126	50
224	460
225	50
