Mass Spectrum: Valeric acid, 4-benzyloxyphenyl ester
Formula: C18 H20 O3
Molecular weight: 284
Origin: Zaikin V.G., TIPS RAS, Moscow, Russia
m/z	RELATIVE INTENSITY
28	50
29	130
36	210
38	30
39	40
41	170
44	190
55	30
57	761
65	230
73	20
85	430
91	9999
92	701
109	10
110	100
144	100
200	5905
201	801
202	20
284	290
285	10
