Mass Spectrum: Cyclopentanecarboxamide, N-(2,5-dimethoxyphenyl)-
Formula: C14 H19 N O3
Molecular weight: 249
Origin: Zaikin V.G., TIPS RAS, Moscow, Russia
m/z	RELATIVE INTENSITY
26	40
27	100
28	30
39	240
40	80
41	1221
42	70
50	30
51	90
52	150
53	110
54	40
55	190
63	40
65	140
66	70
67	350
68	150
69	2392
70	130
77	70
78	50
79	190
80	80
81	40
82	40
90	30
92	90
93	100
94	50
95	280
96	100
97	150
106	40
107	140
108	80
109	100
110	300
111	70
122	160
123	100
124	90
125	110
136	70
137	30
138	7036
139	601
140	40
150	160
151	50
152	90
153	9999
154	861
155	70
164	180
165	410
166	50
179	70
180	90
207	60
208	90
218	120
249	1631
250	230
