Mass Spectrum: 3-Phenylpropionic acid, 4-cyanophenyl ester
Formula: C16 H13 N O2
Molecular weight: 251
Origin: Zaikin V.G., TIPS RAS, Moscow, Russia
m/z	RELATIVE INTENSITY
27	50
28	10
39	80
51	150
52	20
63	70
64	50
65	380
77	751
78	270
79	641
80	30
89	60
90	140
91	7987
92	611
102	120
103	621
104	631
105	9288
106	851
119	120
120	30
124	70
131	310
132	250
133	9999
134	1011
135	80
150	50
251	300
252	50
