Mass Spectrum: Benzamide, N-(2-iodo-4-methylphenyl)-4-fluoro-
Formula: C14 H11 F I N O
Molecular weight: 355
Origin: Zaikin V.G., TIPS RAS, Moscow, Russia
m/z	RELATIVE INTENSITY
28	20
39	50
50	80
51	130
52	80
63	50
69	30
74	30
75	300
76	80
77	170
78	180
79	70
89	30
90	30
94	90
95	2152
96	170
104	280
105	170
106	50
107	30
122	40
123	9999
124	711
125	40
127	60
128	110
198	40
227	60
228	70
229	50
230	40
232	120
233	140
234	90
355	6126
356	931
357	70
