Mass Spectrum: 4-Ethylbenzoic acid, 4-chlorophenyl ester
Formula: C15 H13 Cl O2
Molecular weight: 260
Origin: Zaikin V.G., TIPS RAS, Moscow, Russia
m/z	RELATIVE INTENSITY
27	60
28	40
39	70
50	40
51	90
53	30
63	90
64	40
65	70
73	40
75	40
76	40
77	550
78	110
79	591
80	30
89	120
90	120
91	30
99	80
101	30
102	40
103	390
104	160
105	891
106	80
127	40
128	90
132	40
133	9999
134	941
135	60
260	120
262	40
