Mass Spectrum: Benzamide, N-(4-bromophenyl)-2,6-difluoro-
Formula: C13 H8 Br F2 N O
Molecular weight: 311
Origin: Zaikin V.G., TIPS RAS, Moscow, Russia
m/z	RELATIVE INTENSITY
28	10
38	30
39	40
50	40
62	60
63	440
64	130
65	60
74	30
75	40
76	30
90	60
91	190
92	40
93	60
94	30
112	70
113	1061
114	120
140	60
141	9999
142	621
143	100
145	70
170	30
171	80
172	80
173	70
174	50
231	30
311	1972
312	280
313	1922
314	270
