Mass Spectrum: Acetamide, N-(3-methylphenyl)-2-phenylthio-
Formula: C15 H15 N O S
Molecular weight: 257
Origin: Zaikin V.G., TIPS RAS, Moscow, Russia
m/z	RELATIVE INTENSITY
26	30
27	70
28	10
38	30
39	300
40	30
41	60
42	40
43	30
44	40
45	1231
46	60
47	60
50	130
51	470
52	140
53	110
63	140
64	60
65	651
66	160
69	120
74	40
75	40
76	70
77	1541
78	871
79	791
80	100
82	40
84	50
89	110
90	90
91	2022
92	240
93	350
94	50
95	50
97	40
103	40
104	220
105	340
106	1171
107	7717
108	721
109	490
110	390
111	90
117	30
118	150
119	130
120	1231
121	480
122	230
123	2472
124	4534
125	490
126	210
129	60
132	150
133	330
134	831
135	90
137	40
138	270
139	30
146	110
147	130
148	60
150	170
162	170
163	70
164	110
180	30
183	370
184	60
210	40
215	30
257	9999
258	1782
259	621
260	80
261	30
271	80
