Mass Spectrum: Acetamide, N-tetrahydrofurfuryl-2-chloro-
Formula: C7 H12 Cl N O2
Molecular weight: 177
Origin: Zaikin V.G., TIPS RAS, Moscow, Russia
m/z	RELATIVE INTENSITY
26	40
27	370
28	60
29	300
30	701
31	50
36	130
38	30
39	310
40	70
41	1061
42	681
43	2923
44	280
49	380
51	120
53	70
54	150
55	190
56	250
57	60
58	60
60	60
67	70
68	30
69	70
70	210
71	9999
72	1101
73	60
76	50
77	310
79	100
82	80
83	90
84	1822
85	140
94	40
98	50
100	70
106	250
107	380
108	200
109	130
110	50
112	130
118	30
119	60
128	50
134	30
142	90
