Mass Spectrum: p-Toluic acid, 2-naphthyl ester
Formula: C18 H14 O2
Molecular weight: 262
Origin: Zaikin V.G., TIPS RAS, Moscow, Russia
m/z	RELATIVE INTENSITY
28	10
39	40
63	50
65	470
89	140
90	110
91	2222
92	160
115	370
116	30
118	40
119	9999
120	891
121	40
144	50
262	1702
263	310
