Mass Spectrum: 3-Trifluoromethylbenzoic acid, 4-chlorophenyl ester
Formula: C14 H8 Cl F3 O2
Molecular weight: 300
Origin: Zaikin V.G., TIPS RAS, Moscow, Russia
m/z	RELATIVE INTENSITY
63	40
73	50
75	120
95	240
99	140
101	40
125	150
126	120
127	40
144	60
145	2903
146	230
173	9999
174	921
175	50
281	150
283	50
300	701
301	100
302	250
