Mass Spectrum: 4-Trifluoromethylbenzoic acid, 4-nitrophenyl ester
Formula: C14 H8 F3 N O4
Molecular weight: 311
Origin: Zaikin V.G., TIPS RAS, Moscow, Russia
m/z	RELATIVE INTENSITY
30	40
50	50
63	70
64	40
75	100
76	40
95	200
125	130
126	130
144	60
145	2632
146	200
154	40
173	9999
174	821
175	50
292	160
