Mass Spectrum: Acetoxyacetic acid, 4-chlorophenyl ester
Formula: C10 H9 Cl O4
Molecular weight: 228
Origin: Zaikin V.G., TIPS RAS, Moscow, Russia
m/z	RELATIVE INTENSITY
28	30
29	70
30	30
36	50
38	90
39	190
42	260
43	7827
44	190
49	30
50	110
51	60
61	30
62	80
63	350
64	180
65	370
72	40
73	4064
74	190
75	350
76	40
77	30
92	40
93	70
99	811
100	330
101	9999
102	500
103	70
111	290
113	110
127	380
128	7367
129	661
130	2492
131	170
141	100
143	30
228	561
229	60
230	190
