Mass Spectrum: Benzamide, N-(4-methoxyphenyl)-3-methyl-
Formula: C15 H15 N O2
Molecular weight: 241
Origin: Zaikin V.G., TIPS RAS, Moscow, Russia
m/z	RELATIVE INTENSITY
28	20
39	90
41	80
51	60
52	80
53	50
63	90
64	50
65	520
66	30
77	30
78	30
79	40
80	60
89	130
90	150
91	2752
92	240
95	150
107	40
108	80
109	60
118	40
119	9999
120	741
121	50
122	160
123	80
124	100
240	50
241	5815
242	891
243	90
