Mass Spectrum: 3-Bromobenzoic acid, 3,4-dichlorophenyl ester
Formula: C13 H7 Br Cl2 O2
Molecular weight: 344
Origin: Zaikin V.G., TIPS RAS, Moscow, Russia
m/z	RELATIVE INTENSITY
28	40
36	50
44	40
50	470
51	70
57	30
61	30
62	80
63	280
72	30
73	150
74	270
75	1011
76	1321
77	130
83	30
85	20
97	50
98	60
99	90
104	230
105	100
107	60
109	80
126	40
129	40
131	30
133	250
135	150
137	30
139	60
155	2502
156	200
157	2432
158	170
161	50
162	140
163	40
164	90
183	9999
184	821
185	9609
186	771
187	40
344	330
345	40
346	540
347	70
348	240
349	20
350	30
