Mass Spectrum: Benzamide, N-(4-bromophenyl)-4-fluoro-
Formula: C13 H9 Br F N O
Molecular weight: 293
Origin: Zaikin V.G., TIPS RAS, Moscow, Russia
m/z	RELATIVE INTENSITY
28	10
38	30
39	50
50	70
51	40
62	30
63	150
64	110
65	80
69	50
74	50
75	430
76	70
90	60
91	210
92	60
94	110
95	2262
96	190
122	30
123	9999
124	691
125	40
143	70
145	70
170	30
171	120
172	50
173	100
185	50
213	90
293	1742
294	260
295	1702
296	250
