Mass Spectrum: 1-Adamantanecarboxylic acid, 3,5-dimethylphenyl ester
Formula: C19 H24 O2
Molecular weight: 284
Origin: Zaikin V.G., TIPS RAS, Moscow, Russia
m/z	RELATIVE INTENSITY
41	130
53	40
55	140
65	50
67	250
69	30
77	280
78	50
79	791
80	40
81	160
91	390
92	70
93	731
94	50
105	70
107	420
121	80
122	260
123	40
135	9999
136	1021
139	40
163	641
164	50
256	190
284	280
285	50
