Mass Spectrum: m-Toluic acid, 4-nitrophenyl ester
Formula: C14 H11 N O4
Molecular weight: 257
Origin: Zaikin V.G., TIPS RAS, Moscow, Russia
m/z	RELATIVE INTENSITY
28	20
30	70
38	30
39	190
41	70
44	40
50	60
51	80
52	30
62	40
63	220
64	100
65	831
66	40
89	230
90	180
91	3243
92	260
118	50
119	9999
120	881
121	50
136	30
227	50
