Mass Spectrum: 5-Bromovaleric acid, 4-methoxyphenyl ester
Formula: C12 H15 Br O3
Molecular weight: 286
Origin: Zaikin V.G., TIPS RAS, Moscow, Russia
m/z	RELATIVE INTENSITY
27	50
29	50
39	50
41	80
53	30
55	540
65	40
77	40
81	90
92	40
95	110
109	1271
110	90
123	160
124	9999
125	891
126	70
135	140
137	130
163	40
165	40
286	180
288	180
