Mass Spectrum: Monobenzone, TBDMS derivative
Formula: C19 H26 O2 Si
Molecular weight: 314
Origin: Zaikin V.G., TIPS RAS, Moscow, Russia
m/z	RELATIVE INTENSITY
28	20
36	30
44	40
59	120
65	130
73	861
74	60
75	40
91	6726
92	440
95	30
109	30
110	70
115	3143
116	300
117	40
123	200
135	150
138	170
139	50
165	60
166	250
167	210
223	9699
224	1672
225	410
257	2102
258	540
259	100
299	100
314	9999
315	2342
316	591
317	50
