Mass Spectrum: 4-Chloro-1-tributylsilyloxybenzene
Formula: C18 H31 Cl O Si
Molecular weight: 326
Origin: Zaikin V.G., TIPS RAS, Moscow, Russia
m/z	RELATIVE INTENSITY
45	30
55	70
57	30
59	140
63	40
77	170
78	30
83	40
85	290
86	30
87	50
93	70
101	50
111	120
112	30
113	150
115	40
121	180
122	30
135	50
143	110
149	150
155	811
156	100
157	1982
158	220
159	611
160	50
169	40
171	2332
172	290
173	851
174	90
183	220
184	60
185	601
186	90
187	180
199	110
211	550
212	110
213	9999
214	1651
215	3593
216	561
217	130
269	8528
270	1822
271	3273
272	621
273	140
326	3833
327	941
328	1481
329	340
330	70
