Mass Spectrum: 2-Dimethylisopropylsilyloxynaphthalene
Formula: C15 H20 O Si
Molecular weight: 244
Origin: Zaikin V.G., TIPS RAS, Moscow, Russia
m/z	RELATIVE INTENSITY
28	20
36	60
59	60
65	40
73	80
75	130
77	30
79	30
101	390
115	90
119	60
126	50
127	420
128	120
139	200
141	300
142	30
144	60
145	1001
146	130
147	40
155	30
171	100
173	290
174	30
183	50
185	681
186	110
187	110
199	40
200	50
201	9999
202	1942
203	510
204	40
229	90
244	4514
245	951
246	220
