Mass Spectrum: Phenylthioacetic acid, 4-chlorophenyl ester
Formula: C14 H11 Cl O2 S
Molecular weight: 278
Origin: Zaikin V.G., TIPS RAS, Moscow, Russia
m/z	RELATIVE INTENSITY
28	50
39	140
42	30
45	1591
46	30
47	60
50	50
51	300
63	120
64	40
65	490
66	30
69	130
73	110
75	70
77	611
78	170
79	290
91	90
99	380
100	30
101	110
105	1441
106	100
108	130
109	1171
110	140
111	100
121	631
122	881
123	8648
124	771
125	430
127	370
128	651
129	150
130	200
139	30
150	9999
151	1041
152	500
153	40
173	30
278	2112
279	310
280	791
282	30
