Mass Spectrum: 1-Adamantanecarboxamide, N-(3-methylphenyl)-
Formula: C18 H23 N O
Molecular weight: 269
Origin: Zaikin V.G., TIPS RAS, Moscow, Russia
m/z	RELATIVE INTENSITY
27	40
28	20
29	50
39	120
40	30
41	270
43	40
51	50
52	30
53	120
55	230
57	30
65	160
66	40
67	390
68	20
69	80
77	470
78	150
79	1121
80	110
81	310
91	601
92	140
93	931
94	80
104	40
105	130
106	390
107	801
108	110
119	40
120	40
132	30
133	110
134	70
135	9999
136	1071
137	50
146	40
147	120
163	50
184	1621
185	270
198	60
240	40
241	300
242	50
268	80
269	4134
270	841
271	80
