Mass Spectrum: Octanoic acid, 4-benzyloxyphenyl ester
Formula: C21 H26 O3
Molecular weight: 326
Origin: Zaikin V.G., TIPS RAS, Moscow, Russia
m/z	RELATIVE INTENSITY
27	70
29	150
39	80
41	330
42	70
43	420
55	250
56	40
57	1001
58	30
63	30
65	290
67	40
69	40
81	50
83	50
89	50
90	40
91	9999
92	791
93	30
98	30
109	80
110	170
127	250
128	30
159	30
200	5405
201	761
202	70
326	160
327	30
