Mass Spectrum: Acetamide, N-(2-iodo-4-methylphenyl)-2-phenyl-
Formula: C15 H14 I N O
Molecular weight: 351
Origin: Zaikin V.G., TIPS RAS, Moscow, Russia
m/z	RELATIVE INTENSITY
27	30
28	60
39	170
41	50
44	50
50	80
51	210
52	130
53	30
62	40
63	180
64	80
65	540
66	40
75	30
76	70
77	430
78	330
79	260
89	400
90	550
91	4254
92	571
93	30
103	60
104	621
105	510
106	741
107	180
108	30
118	260
119	40
127	90
128	160
132	70
133	60
180	30
181	40
194	50
217	90
224	110
225	80
226	30
230	50
231	50
232	661
233	9999
234	801
259	751
260	330
333	30
351	8117
352	1321
353	120
