Mass Spectrum: 6-Chlorohexanoic acid, 2-naphthyl ester
Formula: C16 H17 Cl O2
Molecular weight: 276
Origin: Zaikin V.G., TIPS RAS, Moscow, Russia
m/z	RELATIVE INTENSITY
28	20
41	320
43	120
55	100
63	40
69	831
70	30
89	30
109	30
115	591
116	160
127	150
133	110
143	30
144	9999
145	1211
146	70
172	40
177	200
179	180
276	340
277	40
278	110
