Mass Spectrum: m-Anisic acid, 4-nitrophenyl ester
Formula: C14 H11 N O5
Molecular weight: 273
Origin: Zaikin V.G., TIPS RAS, Moscow, Russia
m/z	RELATIVE INTENSITY
50	30
63	110
64	240
76	100
77	881
78	60
79	40
92	661
93	40
104	30
107	1752
108	130
135	9999
136	911
137	70
273	330
274	40
