Mass Spectrum: 1-Adamantanecarboxamide, N-(4-methoxyphenyl)-
Formula: C18 H23 N O2
Molecular weight: 285
Origin: Zaikin V.G., TIPS RAS, Moscow, Russia
m/z	RELATIVE INTENSITY
27	30
28	10
29	40
39	90
41	250
43	40
51	30
52	60
53	130
55	240
57	30
65	100
66	30
67	410
68	30
69	100
77	340
78	110
79	1051
80	170
81	330
91	360
92	140
93	971
94	90
95	120
105	100
106	50
107	490
108	410
109	90
119	30
121	30
122	400
123	250
124	110
133	40
134	110
135	9999
136	1051
137	50
149	240
150	30
163	90
200	1071
201	180
214	40
256	40
257	510
258	90
284	30
285	6666
286	1301
287	140
