Mass Spectrum: Cyclohexanecarboxylic acid, 3,5-dimethylphenyl ester
Formula: C15 H20 O2
Molecular weight: 232
Origin: Zaikin V.G., TIPS RAS, Moscow, Russia
m/z	RELATIVE INTENSITY
26	30
27	290
28	80
29	220
36	50
39	450
40	70
41	1201
42	60
43	80
50	40
51	140
52	90
53	410
54	210
55	2612
56	120
63	50
65	210
66	50
67	741
68	90
69	50
77	1021
78	250
79	591
80	60
81	410
82	360
83	8898
84	591
91	591
92	110
93	170
94	80
95	40
103	150
104	70
105	190
107	1842
108	190
109	40
110	4864
111	1702
112	110
119	40
120	40
121	991
122	9999
123	1231
124	70
232	1932
233	300
