Mass Spectrum: Acetamide, N-(3-nitrophenyl)-2,2-dichloro-
Formula: C8 H6 Cl2 N2 O3
Molecular weight: 248
Origin: Zaikin V.G., TIPS RAS, Moscow, Russia
m/z	RELATIVE INTENSITY
27	40
28	50
30	140
35	30
36	180
37	30
38	190
39	180
40	30
41	80
48	80
49	40
50	240
51	180
52	220
53	40
54	80
61	30
62	110
63	540
64	661
65	320
66	30
74	80
75	410
76	671
77	140
78	180
79	160
80	90
83	470
85	300
87	40
89	20
90	230
91	601
92	681
93	60
102	120
103	70
104	110
105	30
106	70
107	60
108	40
111	50
112	30
118	70
119	130
120	40
122	330
123	30
131	40
132	130
135	50
137	1321
138	450
139	280
140	50
141	80
149	50
164	40
165	9999
166	901
167	230
168	50
169	40
177	30
185	140
187	40
202	80
204	40
248	1421
249	160
250	941
251	100
252	150
