Mass Spectrum: Nicotinic acid, 4-nitrophenyl ester
Formula: C12 H8 N2 O4
Molecular weight: 244
Origin: Zaikin V.G., TIPS RAS, Moscow, Russia
m/z	RELATIVE INTENSITY
28	40
36	100
50	30
51	581
52	40
77	30
78	2823
79	170
91	150
105	80
106	9999
107	611
108	40
123	230
135	30
139	30
214	50
244	40
