Mass Spectrum: 5-Bromovaleric acid, 3,5-dimethylphenyl ester
Formula: C13 H17 Br O2
Molecular weight: 284
Origin: Zaikin V.G., TIPS RAS, Moscow, Russia
m/z	RELATIVE INTENSITY
27	70
29	70
39	50
41	50
53	60
55	741
65	40
77	240
78	50
79	90
91	160
93	50
103	40
105	70
107	661
108	50
121	330
122	9999
123	1071
124	70
135	280
137	260
163	150
165	150
284	310
285	40
286	310
287	40
