Mass Spectrum: 5-Bromovaleric acid, 4-benzyloxyphenyl ester
Formula: C18 H19 Br O3
Molecular weight: 362
Origin: Zaikin V.G., TIPS RAS, Moscow, Russia
m/z	RELATIVE INTENSITY
41	40
55	681
65	290
91	9999
92	791
110	80
135	310
137	250
139	80
163	110
165	120
200	7747
201	1071
202	80
362	150
364	160
