Mass Spectrum: Benzamide, N-tetrahydrofurfuryl-2,6-difluoro-
Formula: C12 H13 F2 N O2
Molecular weight: 241
Origin: Zaikin V.G., TIPS RAS, Moscow, Russia
m/z	RELATIVE INTENSITY
27	220
28	30
29	160
30	60
39	180
40	40
41	751
42	210
43	2532
44	90
50	50
53	40
54	60
55	70
56	170
57	50
61	30
62	70
63	721
64	40
68	70
69	100
70	230
71	7617
72	340
74	50
75	60
81	40
82	30
83	50
84	2082
85	130
87	30
88	30
93	130
94	120
95	50
112	150
113	1962
114	320
120	80
122	40
123	430
124	30
127	70
128	30
139	40
140	240
141	9999
142	771
143	50
150	100
151	190
152	2803
153	350
154	60
155	50
157	30
158	1281
159	100
170	631
171	9769
172	1391
173	100
182	250
183	80
196	40
197	50
198	70
242	80
