Mass Spectrum: Benzamide, N-(2,5-dimethoxyphenyl)-2-bromo-
Formula: C15 H14 Br N O3
Molecular weight: 335
Origin: Zaikin V.G., TIPS RAS, Moscow, Russia
m/z	RELATIVE INTENSITY
27	30
28	40
39	100
41	50
44	50
50	190
51	190
52	200
53	90
54	40
55	40
63	50
64	30
65	100
66	50
67	40
68	110
69	50
74	60
75	410
76	601
77	510
78	90
79	220
80	160
81	40
82	110
90	30
91	30
92	80
93	120
94	50
95	120
103	30
104	60
105	370
106	60
107	150
108	100
109	90
110	60
115	70
122	110
123	130
124	80
125	170
127	40
128	30
135	110
136	150
137	30
138	320
139	210
140	40
141	30
149	40
150	80
151	70
152	150
153	110
154	320
155	1722
156	150
157	1661
158	130
164	180
165	50
167	30
169	50
170	70
182	130
183	9999
184	831
185	9719
186	751
187	40
196	40
197	90
198	160
199	30
210	110
211	60
212	90
224	40
225	300
226	240
227	40
240	220
241	120
255	50
256	240
257	80
292	30
304	601
305	130
306	621
307	110
320	1041
321	180
322	1031
323	160
335	6936
336	1211
337	6956
338	1181
339	120
