Mass Spectrum: Pentanamide, N-(2,5-dimethoxyphenyl)-5-chloro-
Formula: C13 H18 Cl N O3
Molecular weight: 271
Origin: Zaikin V.G., TIPS RAS, Moscow, Russia
m/z	RELATIVE INTENSITY
29	100
39	80
41	70
51	70
52	130
53	100
55	901
63	80
65	80
67	70
68	100
79	210
80	80
91	240
92	110
93	180
95	290
107	170
108	70
109	120
110	450
111	70
122	180
123	80
124	100
125	110
136	100
138	9999
139	921
140	70
150	180
151	70
152	130
153	7917
154	1131
155	70
164	270
165	410
179	90
180	70
235	80
236	130
240	130
256	70
271	4614
272	711
273	1591
274	230
