Mass Spectrum: 4-Ethylbenzoic acid, 3-methylphenyl ester
Formula: C16 H16 O2
Molecular weight: 240
Origin: Zaikin V.G., TIPS RAS, Moscow, Russia
m/z	RELATIVE INTENSITY
27	80
28	90
39	110
50	50
51	140
52	40
53	70
63	80
65	100
76	40
77	761
78	180
79	751
80	50
89	130
90	140
91	80
102	30
103	420
104	170
105	881
106	80
107	100
108	80
132	50
133	9999
134	961
135	60
240	400
241	70
