Mass Spectrum: Pentanamide, N-(3-methylphenyl)-5-chloro-
Formula: C12 H16 Cl N O
Molecular weight: 225
Origin: Zaikin V.G., TIPS RAS, Moscow, Russia
m/z	RELATIVE INTENSITY
27	160
28	70
29	180
36	50
39	170
41	110
50	30
51	90
52	60
53	110
55	851
56	40
63	110
64	30
65	200
66	30
76	30
77	400
78	150
79	250
80	60
89	60
90	50
91	631
92	50
93	120
104	90
105	50
106	1081
107	9999
108	841
109	30
111	150
118	40
119	90
120	50
121	20
131	40
132	60
133	90
134	190
146	30
162	40
189	80
190	420
191	50
225	1381
226	200
227	460
228	60
