Mass Spectrum: Benzamide, N-(1-naphthyl)-3-fluoro-
Formula: C17 H12 F N O
Molecular weight: 265
Origin: Zaikin V.G., TIPS RAS, Moscow, Russia
m/z	RELATIVE INTENSITY
28	10
39	50
50	50
51	50
62	30
63	100
65	50
69	30
74	40
75	340
76	60
77	30
88	50
89	140
94	70
95	3013
96	240
113	90
114	150
115	1311
116	210
122	50
123	9999
124	701
125	40
126	40
127	60
140	190
141	100
142	110
143	410
144	941
145	100
169	40
234	40
264	40
265	5515
266	971
267	90
