Mass Spectrum: 3-Methylbut-2-enoic acid, 3-methylphenyl ester
Formula: C12 H14 O2
Molecular weight: 190
Origin: Zaikin V.G., TIPS RAS, Moscow, Russia
m/z	RELATIVE INTENSITY
27	180
28	140
29	360
39	320
40	30
50	20
51	70
52	50
53	210
54	100
55	1431
56	60
63	30
65	70
67	40
77	230
78	80
79	130
82	490
83	9999
84	510
85	20
90	30
91	80
107	290
108	430
109	40
190	631
191	80
