Mass Spectrum: Cyclopentanecarboxylic acid, 2-naphthyl ester
Formula: C16 H16 O2
Molecular weight: 240
Origin: Zaikin V.G., TIPS RAS, Moscow, Russia
m/z	RELATIVE INTENSITY
27	50
28	50
39	130
40	30
41	661
42	30
55	150
63	70
65	70
67	170
68	80
69	2913
70	160
77	30
89	110
96	110
97	540
98	30
113	30
114	50
115	1101
116	270
126	40
127	220
128	30
143	50
144	9999
145	1091
146	70
240	1281
241	220
