Mass Spectrum: 2-Fluorobenzoic acid, 4-nitrophenyl ester
Formula: C13 H8 F N O4
Molecular weight: 261
Origin: Zaikin V.G., TIPS RAS, Moscow, Russia
m/z	RELATIVE INTENSITY
75	280
94	60
95	1301
96	80
123	9999
124	771
125	40
