Mass Spectrum: Benzamide, N-(3-nitrophenyl)-3-fluoro-
Formula: C13 H9 F N2 O3
Molecular weight: 260
Origin: Zaikin V.G., TIPS RAS, Moscow, Russia
m/z	RELATIVE INTENSITY
28	20
38	30
39	60
44	30
50	90
51	70
52	50
62	30
63	130
64	120
65	80
68	30
69	70
74	60
75	621
76	100
80	30
90	30
91	70
92	40
93	30
94	130
95	3613
96	270
122	40
123	9999
124	711
125	40
138	30
184	30
185	40
213	50
230	280
231	40
260	1611
261	240
