Mass Spectrum: 4-Trifluoromethylbenzoic acid, 4-methoxyphenyl ester
Formula: C15 H11 F3 O3
Molecular weight: 296
Origin: Zaikin V.G., TIPS RAS, Moscow, Russia
m/z	RELATIVE INTENSITY
39	30
41	80
50	40
51	30
52	50
54	40
63	30
65	30
75	70
80	40
95	310
109	30
123	240
124	40
125	110
126	130
144	50
145	2843
146	240
154	50
173	9999
174	861
175	50
277	210
278	30
296	2442
297	410
298	40
