Mass Spectrum: 1-Adamantanecarboxamide, N-(4-fluorophenyl)-
Formula: C17 H20 F N O
Molecular weight: 273
Origin: Zaikin V.G., TIPS RAS, Moscow, Russia
m/z	RELATIVE INTENSITY
27	40
28	20
29	50
39	100
41	260
43	40
51	30
53	110
55	220
57	80
65	90
66	30
67	370
69	90
77	350
78	90
79	971
80	80
81	290
82	30
83	140
84	60
91	370
92	110
93	911
94	80
95	80
105	100
107	450
108	40
109	40
110	200
111	310
112	30
119	30
133	30
135	9999
136	1061
137	60
138	40
151	30
163	190
188	500
189	70
245	90
273	2042
274	400
275	40
