Mass Spectrum: Cyclopentanecarboxamide, N-(4-bromophenyl)-
Formula: C12 H14 Br N O
Molecular weight: 267
Origin: Zaikin V.G., TIPS RAS, Moscow, Russia
m/z	RELATIVE INTENSITY
26	70
27	270
28	20
29	50
37	30
38	110
39	641
40	200
41	2632
42	150
43	30
50	130
51	90
52	70
53	140
54	40
55	571
62	70
63	400
64	310
65	631
66	130
67	540
68	240
69	9388
70	500
73	30
74	50
75	160
76	190
77	70
79	30
80	90
81	30
82	90
90	240
91	641
92	731
93	290
94	40
95	90
96	190
97	1431
98	90
117	100
119	100
130	120
131	30
133	30
143	180
145	180
146	40
155	160
157	160
169	50
170	290
171	9999
172	941
173	9739
174	661
184	40
197	130
198	90
199	140
200	90
226	180
228	170
267	1972
268	310
269	2002
270	290
