Mass Spectrum: 4-Ethylbenzoic acid, 2-naphthyl ester
Formula: C19 H16 O2
Molecular weight: 276
Origin: Zaikin V.G., TIPS RAS, Moscow, Russia
m/z	RELATIVE INTENSITY
27	70
28	210
36	30
39	90
40	40
44	80
50	50
51	110
53	40
62	30
63	120
65	100
75	40
76	50
77	651
78	130
79	771
80	50
89	200
90	130
91	80
102	40
103	480
104	190
105	1011
106	100
114	30
115	550
116	80
118	30
127	40
131	50
132	50
133	9999
134	941
135	80
144	150
276	951
277	190
