Mass Spectrum: Cyclopropanecarboxylic acid, 3-methylphenyl ester
Formula: C11 H12 O2
Molecular weight: 176
Origin: Zaikin V.G., TIPS RAS, Moscow, Russia
m/z	RELATIVE INTENSITY
27	100
28	20
36	40
38	50
39	771
40	110
41	2302
42	80
44	30
50	80
51	200
52	120
53	140
55	90
63	100
64	40
65	190
68	60
69	9999
70	450
77	611
78	190
79	340
80	70
89	50
90	80
91	290
92	30
105	30
107	701
108	901
109	70
133	60
148	130
176	2472
177	290
