Mass Spectrum: Acetamide, N-tetrahydrofurfuryl-2-phenyl-
Formula: C13 H17 N O2
Molecular weight: 219
Origin: Zaikin V.G., TIPS RAS, Moscow, Russia
m/z	RELATIVE INTENSITY
26	80
27	410
28	70
29	490
30	1071
31	80
36	50
38	50
39	641
40	140
41	1211
42	310
43	2752
44	290
50	100
51	250
52	80
53	90
54	70
55	440
56	420
57	200
58	190
59	30
62	80
63	330
64	120
65	1531
66	100
67	450
68	50
69	100
70	290
71	9999
72	500
73	60
74	30
76	20
77	130
78	90
79	40
82	500
83	290
84	6296
85	661
86	100
89	631
90	611
91	7747
92	2562
93	170
98	80
99	40
100	280
101	70
102	30
103	40
104	140
105	190
106	831
107	510
108	60
110	120
111	50
116	40
117	80
118	911
119	180
120	110
128	611
129	50
130	30
131	30
132	70
134	110
135	40
136	3994
137	370
147	30
148	1491
149	8037
150	1571
151	120
160	80
161	80
175	510
176	230
191	50
201	40
217	30
219	280
220	160
