Mass Spectrum: o-Toluic acid, 4-cyanophenyl ester
Formula: C15 H11 N O2
Molecular weight: 237
Origin: Zaikin V.G., TIPS RAS, Moscow, Russia
m/z	RELATIVE INTENSITY
28	80
39	210
41	60
50	30
51	80
62	30
63	180
64	110
65	841
66	40
89	230
90	250
91	3243
92	260
118	70
119	9999
120	831
121	40
