Mass Spectrum: Phenylacetic acid, 3-methylphenyl ester
Formula: C15 H14 O2
Molecular weight: 226
Origin: Zaikin V.G., TIPS RAS, Moscow, Russia
m/z	RELATIVE INTENSITY
27	30
28	80
39	210
41	60
50	40
51	120
52	50
53	50
63	130
64	50
65	691
66	40
77	220
78	70
79	130
89	260
90	711
91	4844
92	390
107	340
108	941
109	70
118	9999
119	861
120	50
226	80
