Mass Spectrum: Benzamide, N-(3-chlorophenyl)-4-ethyl-
Formula: C15 H14 Cl N O
Molecular weight: 259
Origin: Zaikin V.G., TIPS RAS, Moscow, Russia
m/z	RELATIVE INTENSITY
27	80
28	30
39	90
50	50
51	110
52	30
53	40
63	120
64	50
65	100
75	50
76	60
77	631
78	130
79	601
80	40
89	140
90	170
91	100
99	80
101	30
102	50
103	420
104	310
105	731
106	70
118	30
127	130
129	70
131	50
132	40
133	9999
134	811
135	50
259	1351
260	230
261	450
262	70
