Mass Spectrum: 1-Diisopropyloctylsilyloxy-4-nitrobenzene
Formula: C20 H35 N O3 Si
Molecular weight: 365
Origin: Zaikin V.G., TIPS RAS, Moscow, Russia
m/z	RELATIVE INTENSITY
41	30
43	30
59	70
69	30
71	30
73	50
85	50
87	30
97	30
99	150
111	70
113	100
120	60
121	390
122	150
127	130
135	90
136	631
137	90
141	190
149	70
150	130
151	30
152	50
155	290
156	20
163	30
164	1181
165	210
166	691
167	80
168	70
176	30
178	30
180	140
181	30
182	5015
183	1511
184	260
185	30
190	50
192	130
193	30
194	110
196	781
197	100
208	60
210	2803
211	420
212	150
222	220
223	30
224	330
225	30
236	150
238	100
250	160
252	240
253	30
266	40
276	40
278	70
280	140
292	60
294	520
295	90
306	70
322	9999
323	2392
324	631
325	80
335	80
349	40
