Mass Spectrum: 2-Trifluoromethylbenzoic acid, 3,5-dimethylphenyl ester
Formula: C16 H13 F3 O2
Molecular weight: 294
Origin: Zaikin V.G., TIPS RAS, Moscow, Russia
m/z	RELATIVE INTENSITY
75	30
77	120
91	70
95	150
121	50
125	80
126	50
144	40
145	2072
146	150
151	70
173	9999
174	911
175	50
294	1431
295	240
