Mass Spectrum: Acetamide, N-(4-bromophenyl)-2-methoxy-
Formula: C9 H10 Br N O2
Molecular weight: 243
Origin: Zaikin V.G., TIPS RAS, Moscow, Russia
m/z	RELATIVE INTENSITY
26	40
27	50
28	210
29	540
30	50
31	210
36	60
37	70
38	230
39	300
40	50
41	90
42	120
43	70
44	80
45	9999
46	370
50	350
51	180
52	160
61	70
62	250
63	1111
64	791
65	480
66	60
74	150
75	460
76	540
77	310
78	160
79	100
80	110
81	40
82	120
88	40
89	50
90	681
91	1922
92	460
93	130
102	60
103	50
104	360
105	530
106	140
107	40
117	200
119	320
120	70
121	40
122	50
132	80
133	300
134	40
135	60
136	90
143	510
144	40
145	510
146	30
149	40
155	510
156	50
157	510
158	40
165	30
169	280
170	1742
171	1461
172	1832
173	1151
174	100
182	250
183	1782
184	5415
185	2242
186	5165
187	500
195	140
197	1041
198	681
199	1101
200	691
201	70
210	20
212	230
213	4044
214	801
215	4084
216	591
217	80
243	6546
244	721
245	6426
246	711
247	50
