Mass Spectrum: 1-Diphenyl(tert-butyl)silyloxy-4-nitrobenzene
Formula: C22 H23 N O3 Si
Molecular weight: 377
Origin: Zaikin V.G., TIPS RAS, Moscow, Russia
m/z	RELATIVE INTENSITY
105	70
135	40
152	100
153	40
168	20
181	110
182	30
183	30
196	230
197	320
198	60
199	40
228	30
242	210
243	80
244	50
245	30
255	30
258	60
273	681
274	751
275	190
276	40
290	50
304	100
320	9999
321	2552
322	681
323	90
