Mass Spectrum: o-Anisic acid, 4-chlorophenyl ester
Formula: C14 H11 Cl O3
Molecular weight: 262
Origin: Zaikin V.G., TIPS RAS, Moscow, Russia
m/z	RELATIVE INTENSITY
51	80
63	80
64	140
76	50
77	1131
78	80
79	100
92	490
93	30
99	50
105	80
120	120
127	30
135	9999
136	891
137	70
262	30
