Mass Spectrum: 2-Furancarboxamide, N-(3-nitrophenyl)-
Formula: C11 H8 N2 O4
Molecular weight: 232
Origin: Zaikin V.G., TIPS RAS, Moscow, Russia
m/z	RELATIVE INTENSITY
28	10
30	30
38	90
39	550
40	30
50	50
51	70
52	50
53	30
63	130
64	120
65	80
66	30
67	160
75	40
76	70
90	40
91	70
92	50
95	9999
96	490
97	40
129	30
138	30
141	30
173	20
185	30
186	50
187	40
202	70
232	3343
233	410
234	50
