Mass Spectrum: o-Anisic acid, 3,4-dichlorophenyl ester
Formula: C14 H10 Cl2 O3
Molecular weight: 296
Origin: Zaikin V.G., TIPS RAS, Moscow, Russia
m/z	RELATIVE INTENSITY
51	80
63	90
64	120
76	50
77	1101
78	80
79	90
92	470
105	80
120	120
133	40
135	9999
136	901
137	70
