Mass Spectrum: 3-Methylbut-2-enoic acid, 4-benzyloxyphenyl ester
Formula: C18 H18 O3
Molecular weight: 282
Origin: Zaikin V.G., TIPS RAS, Moscow, Russia
m/z	RELATIVE INTENSITY
26	40
27	190
28	190
29	480
38	30
39	440
40	40
41	70
44	40
50	40
51	100
52	50
53	210
54	110
55	1732
56	70
63	130
64	50
65	721
66	30
67	30
77	30
81	30
82	140
83	9999
84	520
85	30
89	130
90	70
91	7216
92	591
109	30
110	50
200	4494
201	641
202	50
282	591
283	120
