Mass Spectrum: Benzamide, N-(4-fluorophenyl)-2-methyl-
Formula: C14 H12 F N O
Molecular weight: 229
Origin: Zaikin V.G., TIPS RAS, Moscow, Russia
m/z	RELATIVE INTENSITY
26	30
27	30
28	80
39	220
41	80
50	50
51	110
52	30
57	100
62	40
63	190
64	70
65	871
66	50
75	60
77	30
82	30
83	240
84	60
89	270
90	210
91	3583
92	280
95	60
109	30
110	80
111	140
118	70
119	9999
120	721
121	40
198	40
212	100
228	30
229	1782
230	270
