Mass Spectrum: Cyclopropanecarboxylic acid, 2-naphthyl ester
Formula: C14 H12 O2
Molecular weight: 212
Origin: Zaikin V.G., TIPS RAS, Moscow, Russia
m/z	RELATIVE INTENSITY
26	60
27	90
28	190
35	50
36	550
38	220
39	941
40	120
41	3203
42	100
44	370
50	130
51	150
52	60
55	80
62	140
63	430
64	70
65	260
68	80
69	9438
70	380
74	80
75	140
76	50
77	140
79	80
86	30
87	90
88	130
89	510
90	40
91	110
101	40
105	30
109	40
113	140
114	200
115	3473
116	601
117	40
119	110
126	120
127	360
128	100
143	90
144	9999
145	1071
146	50
184	310
185	30
212	4024
213	581
214	40
