Mass Spectrum: Pentafluorobenzoic acid, morpholide
Formula: C11 H8 F5 N O2
Molecular weight: 281
Origin: Zaikin V.G., TIPS RAS, Moscow, Russia
m/z	RELATIVE INTENSITY
27	110
28	671
29	170
30	80
31	40
36	50
41	80
42	480
43	50
44	200
45	30
54	100
55	110
56	1331
57	80
70	80
72	110
79	50
86	811
87	40
93	170
98	130
99	100
114	30
117	961
118	60
129	30
148	240
149	70
162	30
167	2472
168	290
176	110
177	80
181	80
190	490
191	150
193	30
194	50
195	9999
196	861
197	50
202	70
203	60
204	90
205	40
218	90
221	60
222	60
223	50
224	160
231	631
232	1892
233	300
234	40
236	80
238	110
239	60
251	110
252	60
253	30
260	30
262	1351
263	180
266	2212
267	260
279	30
280	110
281	2032
282	290
