Mass Spectrum: Benzamide, N-(3-chlorophenyl)-2,6-difluoro-
Formula: C13 H8 Cl F2 N O
Molecular weight: 267
Origin: Zaikin V.G., TIPS RAS, Moscow, Russia
m/z	RELATIVE INTENSITY
28	10
39	40
50	30
62	50
63	430
64	70
65	30
73	40
74	30
75	70
90	40
91	40
93	60
94	30
99	110
101	40
111	40
112	70
113	1181
114	120
127	120
128	30
129	30
140	50
141	9999
142	621
143	30
267	2332
268	320
269	791
270	100
