Mass Spectrum: 3-Fluorobenzoic acid, 4-cyanophenyl ester
Formula: C14 H8 F N O2
Molecular weight: 241
Origin: Zaikin V.G., TIPS RAS, Moscow, Russia
m/z	RELATIVE INTENSITY
28	20
37	60
38	40
39	140
50	190
51	160
62	60
63	190
64	210
68	90
69	210
74	140
75	1411
76	150
90	180
91	90
93	40
94	220
95	4234
96	310
118	30
119	130
122	30
123	9999
124	751
125	30
140	30
241	60
