Mass Spectrum: Propanamide, N-(3-chlorophenyl)-3-chloro-
Formula: C9 H9 Cl2 N O
Molecular weight: 217
Origin: Zaikin V.G., TIPS RAS, Moscow, Russia
m/z	RELATIVE INTENSITY
26	50
27	490
28	50
36	130
38	100
39	100
41	30
49	30
50	60
51	50
52	40
55	260
61	40
62	70
63	1301
64	190
65	490
66	30
73	110
74	40
75	210
76	50
77	30
89	40
90	150
91	651
92	260
93	180
99	340
100	130
101	110
102	50
111	260
113	80
125	70
126	150
127	9999
128	691
129	2913
130	210
153	100
154	120
155	40
156	30
181	80
182	60
183	30
217	2082
218	220
219	1391
220	140
221	220
