Mass Spectrum: Phenylacetic acid, 4-chlorophenyl ester
Formula: C14 H11 Cl O2
Molecular weight: 246
Origin: Zaikin V.G., TIPS RAS, Moscow, Russia
m/z	RELATIVE INTENSITY
28	10
38	40
39	250
41	70
50	60
51	110
62	50
63	260
64	110
65	921
66	50
73	110
75	90
89	330
90	771
91	7907
92	621
93	30
99	200
100	40
101	60
111	30
118	9999
119	991
120	60
127	110
128	520
129	70
130	160
246	50
