Mass Spectrum: 4-Methyl-1-tripropylsilyloxybenzene
Formula: C16 H28 O Si
Molecular weight: 264
Origin: Zaikin V.G., TIPS RAS, Moscow, Russia
m/z	RELATIVE INTENSITY
45	90
65	50
73	40
75	30
76	90
77	70
83	150
90	30
91	601
92	90
93	290
105	50
115	30
135	1201
136	180
137	4054
138	490
139	160
149	140
151	741
152	100
157	90
163	190
164	40
177	160
178	50
179	9999
180	1601
181	440
182	30
221	6546
222	1381
223	340
224	30
264	4294
265	941
266	240
