Mass Spectrum: Thiophene-2-carboxamide, N-(3-methylphenyl)-
Formula: C12 H11 N O S
Molecular weight: 217
Origin: Zaikin V.G., TIPS RAS, Moscow, Russia
m/z	RELATIVE INTENSITY
39	500
45	30
50	30
51	70
52	50
53	40
57	40
58	30
63	40
65	90
77	230
78	100
79	100
82	40
83	390
84	50
91	100
104	40
106	170
107	190
108	100
111	9999
112	510
113	390
132	50
217	4724
218	621
219	230
