Mass Spectrum: Benzamide, N-(3-nitrophenyl)-2-methyl-
Formula: C14 H12 N2 O3
Molecular weight: 256
Origin: Zaikin V.G., TIPS RAS, Moscow, Russia
m/z	RELATIVE INTENSITY
26	30
28	10
30	30
38	30
39	170
41	80
50	50
51	90
52	40
62	30
63	180
64	120
65	741
66	40
76	50
77	40
89	200
90	180
91	3173
92	280
118	60
119	9999
120	791
121	50
138	30
180	40
209	30
226	50
239	30
256	761
257	130
