Mass Spectrum: 4-Chlorobenzoic acid, 3,5-dimethylphenyl ester
Formula: C15 H13 Cl O2
Molecular weight: 260
Origin: Zaikin V.G., TIPS RAS, Moscow, Russia
m/z	RELATIVE INTENSITY
50	30
51	30
75	230
76	80
77	150
78	30
91	80
93	30
104	70
111	1331
112	90
113	440
121	70
139	9999
140	731
141	3393
142	240
260	1191
261	180
262	380
263	50
