Mass Spectrum: 1-Diphenyl(tert-butyl)silyloxy-3-methylbenzene
Formula: C23 H26 O Si
Molecular weight: 346
Origin: Zaikin V.G., TIPS RAS, Moscow, Russia
m/z	RELATIVE INTENSITY
45	70
65	50
77	70
91	280
105	180
121	30
135	110
152	210
165	300
166	90
167	60
181	200
182	30
183	110
185	30
195	30
197	60
199	150
210	90
211	1982
212	350
213	90
227	30
287	30
288	30
289	9999
290	2472
291	611
292	70
346	230
347	70
