Mass Spectrum: Benzamide, N-(3-nitrophenyl)-2-methoxy-
Formula: C14 H12 N2 O4
Molecular weight: 272
Origin: Zaikin V.G., TIPS RAS, Moscow, Russia
m/z	RELATIVE INTENSITY
28	10
39	40
50	40
51	60
63	90
64	150
65	70
76	70
77	931
78	80
79	80
91	50
92	540
93	50
105	90
120	130
121	50
135	9999
136	711
137	60
138	60
242	70
272	801
273	130
