Mass Spectrum: 4-Fluorobenzoic acid, 3-methylphenyl ester
Formula: C14 H11 F O2
Molecular weight: 230
Origin: Zaikin V.G., TIPS RAS, Moscow, Russia
m/z	RELATIVE INTENSITY
28	20
39	60
50	50
51	70
52	20
53	30
63	30
65	40
69	40
75	320
76	30
77	150
78	50
79	70
94	80
95	1902
96	140
107	90
108	50
123	9999
124	691
125	40
230	1071
231	160
