Mass Spectrum: 3-Trifluoromethylbenzoic acid, 3,4-dichlorophenyl ester
Formula: C14 H7 Cl2 F3 O2
Molecular weight: 334
Origin: Zaikin V.G., TIPS RAS, Moscow, Russia
m/z	RELATIVE INTENSITY
63	50
75	80
95	220
125	130
126	120
133	90
135	50
144	50
145	2662
146	200
173	9999
174	861
175	40
315	120
317	80
334	390
335	50
336	250
338	40
