Mass Spectrum: Cyclohexanecarboxylic acid, 4-methoxyphenyl ester
Formula: C14 H18 O3
Molecular weight: 234
Origin: Zaikin V.G., TIPS RAS, Moscow, Russia
m/z	RELATIVE INTENSITY
26	50
27	170
28	60
29	150
36	30
39	320
40	40
41	1051
42	40
43	60
50	30
51	80
52	140
53	240
54	170
55	2162
56	90
63	80
64	90
65	150
66	30
67	280
68	50
69	40
77	150
79	130
80	80
81	530
82	80
83	3523
84	210
92	90
93	30
95	220
107	30
108	30
109	1792
110	250
111	190
123	260
124	9999
125	781
126	60
234	370
235	50
