Mass Spectrum: Benzamide, N-(2,5-dimethoxyphenyl)-4-bromo-
Formula: C15 H14 Br N O3
Molecular weight: 335
Origin: Zaikin V.G., TIPS RAS, Moscow, Russia
m/z	RELATIVE INTENSITY
28	10
38	20
39	100
41	50
50	250
51	160
52	210
53	80
54	30
55	30
63	60
64	40
65	110
66	50
67	40
68	120
69	50
74	90
75	540
76	1031
77	220
78	60
79	220
80	170
81	40
82	110
90	40
91	40
92	80
93	110
94	50
95	130
103	70
104	1001
105	170
106	40
107	140
108	80
109	100
110	70
122	110
123	130
124	90
125	160
135	40
136	90
137	30
138	631
139	210
150	50
151	60
152	160
153	90
154	270
155	2132
156	190
157	2102
158	160
164	80
170	50
182	40
183	9999
184	821
185	9909
186	761
187	40
197	20
198	40
213	130
225	210
226	60
231	40
241	40
256	100
257	40
290	20
292	30
303	30
304	530
305	150
306	530
307	110
320	1261
321	210
322	1251
323	190
335	7136
336	1241
337	7036
338	1231
339	130
