Mass Spectrum: Acetoxyacetic acid, 4-nitrophenyl ester
Formula: C10 H9 N O6
Molecular weight: 239
Origin: Zaikin V.G., TIPS RAS, Moscow, Russia
m/z	RELATIVE INTENSITY
26	30
28	30
29	80
30	250
36	40
38	130
39	220
42	390
43	9999
44	240
50	150
51	70
52	60
53	70
54	40
62	90
63	440
64	340
65	390
66	30
73	4144
74	190
75	150
76	130
77	30
79	30
80	40
81	80
92	80
93	240
94	50
101	8348
102	370
103	50
106	50
108	40
109	661
110	60
122	80
123	230
134	60
139	561
140	70
152	70
