Mass Spectrum: Octanoic acid, 4-methoxyphenyl ester
Formula: C15 H22 O3
Molecular weight: 250
Origin: Zaikin V.G., TIPS RAS, Moscow, Russia
m/z	RELATIVE INTENSITY
27	50
29	100
39	50
41	240
42	40
43	230
53	30
55	190
57	510
65	30
69	30
77	40
81	80
83	30
92	40
95	70
109	741
110	70
121	40
123	130
124	9999
125	831
126	70
127	70
166	40
250	300
251	50
