Mass Spectrum: Propanamide, N-(2-iodo-4-methylphenyl)-3-chloro-
Formula: C10 H11 Cl I N O
Molecular weight: 323
Origin: Zaikin V.G., TIPS RAS, Moscow, Russia
m/z	RELATIVE INTENSITY
26	50
27	370
28	40
36	110
38	70
39	110
50	100
51	250
52	180
53	50
54	40
55	250
62	50
63	971
64	80
65	320
66	30
74	30
75	40
76	100
77	601
78	430
79	400
80	50
89	180
90	210
91	450
92	60
93	140
103	60
104	681
105	470
106	1171
107	200
108	40
117	50
118	30
127	130
128	210
132	50
133	50
138	230
146	40
147	30
160	70
161	40
196	40
197	30
217	50
228	30
230	50
231	20
232	540
233	9999
234	881
235	30
259	80
260	120
287	200
288	60
323	4894
324	530
325	1651
326	160
