Mass Spectrum: 3-Methyl-1-trihexylsilyloxybenzene
Formula: C25 H46 O Si
Molecular weight: 390
Origin: Zaikin V.G., TIPS RAS, Moscow, Russia
m/z	RELATIVE INTENSITY
55	20
59	40
83	90
85	350
91	150
93	150
111	40
113	2362
114	260
115	110
135	741
136	100
137	1621
138	200
139	60
149	80
151	400
152	50
163	220
164	40
165	370
166	50
177	120
179	180
189	110
191	360
192	60
193	80
197	50
199	40
205	30
219	200
220	60
221	9999
222	1922
223	480
224	40
283	50
305	9879
306	2572
307	651
308	80
390	3173
391	971
392	240
393	30
