Mass Spectrum: 3-Trifluoromethylbenzoic acid, 4-benzyloxyphenyl ester
Formula: C21 H15 F3 O3
Molecular weight: 372
Origin: Zaikin V.G., TIPS RAS, Moscow, Russia
m/z	RELATIVE INTENSITY
65	280
89	40
90	30
91	9999
92	771
95	70
125	40
126	70
145	1571
146	120
173	3063
174	260
353	150
372	2432
373	550
374	60
