Mass Spectrum: 1-Adamantanecarboxylic acid, 3,4-dichlorophenyl ester
Formula: C17 H18 Cl2 O2
Molecular weight: 324
Origin: Zaikin V.G., TIPS RAS, Moscow, Russia
m/z	RELATIVE INTENSITY
41	150
53	60
55	160
65	40
67	330
69	80
77	220
78	60
79	961
80	70
81	260
91	290
92	90
93	931
94	70
105	70
107	450
108	30
133	80
135	9999
136	1071
137	40
163	831
164	80
