Mass Spectrum: Benzamide, N-(2-iodo-4-methylphenyl)-2-fluoro-
Formula: C14 H11 F I N O
Molecular weight: 355
Origin: Zaikin V.G., TIPS RAS, Moscow, Russia
m/z	RELATIVE INTENSITY
28	20
39	50
50	80
51	130
52	80
63	50
69	30
74	30
75	300
76	80
77	180
78	190
79	70
89	40
90	30
94	90
95	1431
96	130
103	30
104	300
105	190
106	50
107	30
122	70
123	9999
124	661
125	40
127	70
128	120
173	30
227	60
228	90
229	70
232	240
233	130
234	180
355	8067
356	1141
357	100
