Mass Spectrum: 4-Ethylbenzoic acid, 4-benzyloxyphenyl ester
Formula: C22 H20 O3
Molecular weight: 332
Origin: Zaikin V.G., TIPS RAS, Moscow, Russia
m/z	RELATIVE INTENSITY
28	10
39	30
51	40
63	40
65	180
77	310
78	70
79	410
80	20
89	90
90	90
91	1351
92	110
103	300
104	120
105	671
106	60
110	30
131	30
132	60
133	9999
134	1021
135	70
332	1631
333	400
334	50
