Mass Spectrum: Valeric acid, 4-cyanophenyl ester
Formula: C12 H13 N O2
Molecular weight: 203
Origin: Zaikin V.G., TIPS RAS, Moscow, Russia
m/z	RELATIVE INTENSITY
27	190
28	430
29	1081
30	10
36	60
37	10
38	10
39	200
41	1571
42	140
43	90
44	30
50	10
51	40
52	10
53	20
55	651
56	160
57	6816
58	280
62	10
63	130
64	180
65	20
69	30
73	10
75	70
76	30
77	10
79	10
83	40
84	60
85	9999
86	550
87	20
90	330
91	150
92	20
102	370
103	20
109	30
116	90
117	110
118	70
119	861
120	180
124	230
125	10
132	20
146	60
160	10
161	20
174	10
203	210
204	40
