Mass Spectrum: Cyclopentanecarboxylic acid, 4-cyanophenyl ester
Formula: C13 H13 N O2
Molecular weight: 215
Origin: Zaikin V.G., TIPS RAS, Moscow, Russia
m/z	RELATIVE INTENSITY
26	30
27	210
28	10
29	30
37	40
38	40
39	530
40	130
41	2122
42	110
50	30
51	60
52	30
53	120
55	530
62	30
63	140
64	190
65	110
66	40
67	631
68	340
69	9999
70	550
75	60
76	40
90	240
91	150
92	30
95	30
96	90
97	4854
98	330
102	170
118	60
119	951
120	530
121	30
143	30
174	90
215	50
216	60
