Mass Spectrum: 3-Phenylpropionic acid, 4-methoxyphenyl ester
Formula: C16 H16 O3
Molecular weight: 256
Origin: Zaikin V.G., TIPS RAS, Moscow, Russia
m/z	RELATIVE INTENSITY
28	10
51	20
65	90
77	160
78	50
79	130
81	50
91	1091
92	90
95	60
103	120
104	100
105	671
106	50
109	871
110	50
123	170
124	9999
125	791
126	60
131	30
133	40
256	550
257	90
