Mass Spectrum: Benzamide, N-tetrahydrofurfuryl-2-methoxy-
Formula: C13 H17 N O3
Molecular weight: 235
Origin: Zaikin V.G., TIPS RAS, Moscow, Russia
m/z	RELATIVE INTENSITY
26	30
27	120
28	20
29	70
30	40
39	130
41	240
42	80
43	671
44	80
50	70
51	150
53	30
55	30
56	60
63	110
64	170
65	90
70	60
71	1712
72	80
75	20
76	120
77	1351
78	150
79	120
84	520
85	40
91	60
92	681
93	80
104	50
105	300
106	80
107	90
118	40
119	80
120	190
121	180
132	30
133	110
134	561
135	9999
136	831
137	80
148	30
149	30
150	180
152	3473
153	310
164	4354
165	3203
166	480
167	40
176	60
177	30
191	290
192	110
204	30
207	110
217	30
235	400
236	90
