Mass Spectrum: Heptafluorobutyric acid, 4-benzyloxyphenyl ester
Formula: C17 H11 F7 O3
Molecular weight: 396
Origin: Zaikin V.G., TIPS RAS, Moscow, Russia
m/z	RELATIVE INTENSITY
28	90
36	30
39	70
44	40
63	30
65	490
69	160
89	50
90	50
91	9999
92	781
109	40
119	70
127	30
139	90
155	50
169	160
172	100
183	30
396	641
397	100
