Mass Spectrum: Acetamide, N-tetrahydrofurfuryl-2-phenylthio-
Formula: C13 H17 N O2 S
Molecular weight: 251
Origin: Zaikin V.G., TIPS RAS, Moscow, Russia
m/z	RELATIVE INTENSITY
26	60
27	340
28	50
29	350
30	981
31	70
36	30
38	30
39	390
40	50
41	901
42	300
43	2382
44	130
45	1491
46	90
47	80
50	130
51	470
52	70
53	70
54	110
55	350
56	260
57	160
58	120
63	70
65	500
66	210
67	340
68	60
69	210
70	140
71	9999
72	4464
73	210
74	60
75	40
76	50
77	821
78	500
79	320
80	40
81	60
82	350
83	230
84	4084
85	460
86	60
89	30
91	420
92	100
93	871
94	80
95	50
96	30
97	70
98	70
99	30
100	210
101	30
102	120
105	120
106	60
108	150
109	1021
110	911
111	130
112	140
114	30
118	180
119	350
120	160
121	480
122	230
123	2783
124	2252
125	300
126	100
128	280
134	60
135	40
140	30
142	721
143	50
147	420
148	50
150	140
151	50
152	110
167	6706
168	2262
169	510
170	100
180	70
181	701
182	100
183	30
193	30
208	80
249	50
251	1141
252	220
253	70
