Mass Spectrum: 3-Fluorobenzoic acid, 4-benzyloxyphenyl ester
Formula: C20 H15 F O3
Molecular weight: 322
Origin: Zaikin V.G., TIPS RAS, Moscow, Russia
m/z	RELATIVE INTENSITY
26	30
28	30
39	110
41	50
44	110
50	70
51	80
52	40
54	40
55	30
63	90
64	30
65	530
69	70
74	30
75	340
76	40
77	30
79	30
81	30
89	90
90	50
91	9999
92	811
93	30
94	80
95	2112
96	190
110	30
123	4934
124	380
140	70
322	1992
323	400
324	50
