Mass Spectrum: Benzamide, N-(3-methylphenyl)-4-methoxy-
Formula: C15 H15 N O2
Molecular weight: 241
Origin: Zaikin V.G., TIPS RAS, Moscow, Russia
m/z	RELATIVE INTENSITY
28	20
39	60
50	40
51	60
52	30
53	30
63	110
64	220
65	70
76	90
77	1001
78	120
79	120
91	50
92	671
93	50
104	70
106	130
107	651
108	60
120	90
121	80
132	30
135	9999
136	781
137	60
197	30
241	2943
242	490
243	50
