Mass Spectrum: 1-Diisopropyloctylsilyloxy-3,5-dimethylbenzene
Formula: C22 H40 O Si
Molecular weight: 348
Origin: Zaikin V.G., TIPS RAS, Moscow, Russia
m/z	RELATIVE INTENSITY
28	10
79	80
105	330
119	110
139	80
141	30
149	460
150	40
151	300
163	550
165	5535
166	731
167	130
177	80
179	480
183	90
191	210
192	30
193	7257
194	1201
195	250
205	60
207	410
219	100
235	180
263	90
277	280
305	9999
306	2602
307	480
348	1882
349	400
350	60
