Mass Spectrum: Benzamide, N-(4-fluorophenyl)-4-trifluoromethyl-
Formula: C14 H9 F4 N O
Molecular weight: 283
Origin: Zaikin V.G., TIPS RAS, Moscow, Russia
m/z	RELATIVE INTENSITY
28	30
50	90
51	40
57	160
63	50
69	40
74	40
75	240
76	70
81	50
82	50
83	380
84	60
94	30
95	470
96	40
99	30
109	50
110	90
111	190
112	40
119	50
125	290
126	230
143	20
144	80
145	4784
146	380
154	50
173	9999
174	821
175	50
185	40
264	390
265	70
282	50
283	4314
284	681
285	60
