Mass Spectrum: Acetamide, N-(3-methylphenyl)-2-acetoxy-
Formula: C11 H13 N O3
Molecular weight: 207
Origin: Zaikin V.G., TIPS RAS, Moscow, Russia
m/z	RELATIVE INTENSITY
27	50
28	10
29	40
31	30
39	180
40	30
41	60
42	90
43	2973
44	80
50	50
51	150
52	100
53	80
63	100
64	60
65	360
66	50
73	530
74	410
76	30
77	661
78	270
79	390
80	70
89	100
90	80
91	1101
92	110
93	50
101	320
104	160
105	60
106	1311
107	9999
108	851
109	30
117	30
118	100
119	130
120	160
132	80
133	200
134	641
135	60
146	50
147	30
148	20
164	40
165	250
207	4014
208	631
209	30
