Mass Spectrum: 1-Adamantanecarboxylic acid, 3-methylphenyl ester
Formula: C18 H22 O2
Molecular weight: 270
Origin: Zaikin V.G., TIPS RAS, Moscow, Russia
m/z	RELATIVE INTENSITY
39	30
41	120
53	60
55	140
65	60
67	270
69	50
77	260
78	70
79	881
80	70
81	210
91	370
92	100
93	771
94	50
105	70
107	470
108	230
133	40
135	9999
136	1071
137	40
163	981
164	100
242	100
270	140
