Mass Spectrum: Cyclobutanecarboxylic acid, morpholide
Formula: C9 H15 N O2
Molecular weight: 169
Origin: Zaikin V.G., TIPS RAS, Moscow, Russia
m/z	RELATIVE INTENSITY
26	220
27	1281
28	400
29	1011
30	290
31	60
36	50
39	500
40	80
41	310
42	1091
43	230
44	160
45	160
50	30
51	70
52	60
53	561
54	540
55	9999
56	3633
57	2502
58	260
59	70
67	80
68	180
69	350
70	1661
71	110
72	661
73	30
80	30
81	200
82	601
83	2843
84	470
85	500
86	8798
87	2182
88	781
89	30
94	30
95	40
96	641
97	190
98	240
99	100
100	80
109	310
110	500
111	831
112	1381
113	400
114	2692
115	170
124	360
125	270
126	1111
127	130
128	120
138	360
139	170
140	2222
141	2732
142	370
152	50
154	1371
155	120
168	310
169	5305
170	631
171	50
