Mass Spectrum: 2,6-Difluorobenzoic acid, 4-nitrophenyl ester
Formula: C13 H7 F2 N O4
Molecular weight: 279
Origin: Zaikin V.G., TIPS RAS, Moscow, Russia
m/z	RELATIVE INTENSITY
28	10
30	30
62	40
63	340
64	50
93	40
112	60
113	921
114	70
140	30
141	9999
142	701
143	40
