Mass Spectrum: 2-Trifluoromethylbenzoic acid, 4-methoxyphenyl ester
Formula: C15 H11 F3 O3
Molecular weight: 296
Origin: Zaikin V.G., TIPS RAS, Moscow, Russia
m/z	RELATIVE INTENSITY
41	50
75	40
95	250
123	190
125	90
126	60
144	40
145	2092
146	160
151	50
173	9999
174	911
175	50
296	1661
297	260
