Mass Spectrum: Cyclobutanecarboxamide, N-(4-bromophenyl)-
Formula: C11 H12 Br N O
Molecular weight: 253
Origin: Zaikin V.G., TIPS RAS, Moscow, Russia
m/z	RELATIVE INTENSITY
26	90
27	571
28	210
29	530
38	80
39	410
40	40
41	70
43	50
50	120
51	90
52	70
53	310
54	150
55	6166
56	270
62	70
63	350
64	280
65	390
66	40
71	540
74	40
75	140
76	160
77	60
79	30
80	90
81	70
82	190
83	1621
84	641
85	90
89	30
90	220
91	561
92	480
93	140
104	30
105	50
107	40
112	120
113	50
114	60
117	130
118	30
119	70
123	40
130	40
140	30
143	190
145	200
146	70
155	140
157	140
166	60
169	50
170	210
171	9999
172	851
173	9619
174	631
182	90
184	170
186	140
196	30
197	120
198	60
199	120
200	50
225	90
227	90
236	100
253	2512
254	340
255	2512
256	330
