Mass Spectrum: Benzamide, N-(3-nitrophenyl)-3-bromo-
Formula: C13 H9 Br N2 O3
Molecular weight: 320
Origin: Zaikin V.G., TIPS RAS, Moscow, Russia
m/z	RELATIVE INTENSITY
28	30
38	50
39	80
41	40
44	60
50	370
51	140
52	90
53	60
54	30
55	40
57	30
62	40
63	180
64	160
65	150
71	30
74	180
75	851
76	1371
77	240
78	60
79	100
80	240
81	70
82	80
83	30
84	30
90	50
91	160
92	90
97	140
102	30
103	60
104	330
105	180
106	60
107	30
108	70
109	90
115	30
128	30
129	40
133	50
134	40
137	30
138	50
139	60
140	40
154	40
155	3353
156	250
157	3293
158	230
165	30
166	90
167	40
182	30
183	9999
184	801
185	9549
186	781
187	40
193	30
195	30
200	60
202	40
210	40
211	30
261	30
262	50
263	30
264	50
273	40
275	60
277	30
288	30
289	60
290	1041
291	200
292	1001
293	140
320	1591
321	230
322	1571
323	240
