Mass Spectrum: Thiophene-2-carboxamide, N-(4-bromophenyl)-
Formula: C11 H8 Br N O S
Molecular weight: 281
Origin: Zaikin V.G., TIPS RAS, Moscow, Russia
m/z	RELATIVE INTENSITY
28	20
38	60
39	631
45	50
50	50
51	30
57	70
58	40
62	40
63	170
64	120
65	80
75	50
76	40
80	30
81	30
82	70
83	430
84	60
90	70
91	210
92	70
111	9999
112	550
113	420
117	30
119	30
143	80
145	80
155	20
157	30
170	50
171	130
172	80
173	160
201	70
233	40
281	2182
282	280
283	2172
284	280
285	110
