Mass Spectrum: 2-Chloropropionic acid, 3-methylphenyl ester
Formula: C10 H11 Cl O2
Molecular weight: 198
Origin: Zaikin V.G., TIPS RAS, Moscow, Russia
m/z	RELATIVE INTENSITY
27	180
28	40
39	110
51	80
52	60
53	70
55	110
56	50
63	651
64	30
65	260
77	380
78	120
79	340
80	180
89	30
90	200
91	530
92	50
106	30
107	1401
108	9999
109	821
110	40
135	110
198	1431
199	150
200	480
201	40
