Mass Spectrum: 1-Allyldimethylsilyloxy-3-methylbenzene
Formula: C12 H18 O Si
Molecular weight: 206
Origin: Zaikin V.G., TIPS RAS, Moscow, Russia
m/z	RELATIVE INTENSITY
43	30
59	130
65	90
75	200
77	30
79	30
82	120
83	40
89	30
91	1021
92	70
95	50
99	40
105	160
109	110
135	320
136	30
137	70
145	30
147	30
149	490
150	80
151	70
161	30
163	180
164	60
165	9999
166	1481
167	410
168	30
175	30
191	200
193	30
206	1611
207	310
208	90
