Mass Spectrum: Butanamide, N-(3-methylphenyl)-2,2,3,3,4,4,4-heptafluoro-
Formula: C11 H8 F7 N O
Molecular weight: 303
Origin: Zaikin V.G., TIPS RAS, Moscow, Russia
m/z	RELATIVE INTENSITY
26	30
27	90
28	30
29	80
30	30
31	30
36	110
38	90
39	300
40	40
41	100
44	20
50	130
51	280
52	220
53	250
54	30
56	40
57	110
62	50
63	190
64	100
65	821
66	80
67	120
69	550
75	30
76	70
77	1001
78	500
79	701
80	230
81	40
86	40
87	100
89	230
90	230
91	5405
92	440
100	130
104	290
105	130
106	2372
107	390
108	811
109	110
119	100
123	450
124	30
132	190
133	230
134	5275
135	510
136	50
150	40
169	170
183	80
236	30
241	30
256	50
264	30
284	931
285	110
301	30
302	260
303	9999
304	1291
305	90
