Mass Spectrum: Cyclopropanecarboxylic acid, 4-cyanophenyl ester
Formula: C11 H9 N O2
Molecular weight: 187
Origin: Zaikin V.G., TIPS RAS, Moscow, Russia
m/z	RELATIVE INTENSITY
26	30
27	80
28	30
36	90
37	100
38	160
39	1161
40	170
41	2973
42	110
44	50
50	80
51	90
52	40
53	30
55	70
62	90
63	290
64	390
65	60
68	100
69	9999
70	460
74	30
75	130
76	80
88	30
90	350
91	170
92	30
102	190
103	30
115	80
118	60
119	470
120	40
144	170
187	270
188	30
