Mass Spectrum: 1-Naphthalenecarboxamide, N-(4-fluorophenyl)-
Formula: C17 H12 F N O
Molecular weight: 265
Origin: Zaikin V.G., TIPS RAS, Moscow, Russia
m/z	RELATIVE INTENSITY
28	20
50	50
51	100
57	60
63	70
74	70
75	180
76	80
77	390
78	30
83	140
84	50
87	30
100	20
101	270
102	40
110	60
111	140
115	30
125	40
126	661
127	5175
128	691
129	40
153	60
154	50
155	9999
156	1151
157	80
234	30
235	80
236	30
264	60
265	2342
266	450
267	40
