Mass Spectrum: 4-Cyano-1-dimethyldodecylsilyloxybenzene
Formula: C21 H35 N O Si
Molecular weight: 345
Origin: Zaikin V.G., TIPS RAS, Moscow, Russia
m/z	RELATIVE INTENSITY
28	10
36	40
41	40
43	90
55	30
57	120
59	320
71	50
73	70
75	100
85	30
91	80
97	40
99	210
111	40
113	170
116	60
119	30
120	30
121	30
127	140
133	50
135	20
141	70
146	120
160	140
162	1301
163	170
164	90
167	40
176	9999
177	1742
178	460
179	50
190	60
191	30
202	150
204	100
205	170
206	40
211	230
218	200
219	190
220	40
221	80
227	90
230	60
232	210
233	100
234	40
246	80
247	70
248	30
260	50
261	90
274	50
275	220
276	50
288	110
289	430
290	100
291	30
302	300
303	540
304	140
305	30
316	350
317	340
318	80
330	751
331	150
332	30
336	50
344	470
345	1531
346	420
347	70
