Mass Spectrum: Benzamide, N-(4-fluorophenyl)-2-methoxy-
Formula: C14 H12 F N O2
Molecular weight: 245
Origin: Zaikin V.G., TIPS RAS, Moscow, Russia
m/z	RELATIVE INTENSITY
28	10
39	40
50	40
51	90
57	60
63	110
64	160
65	40
75	40
76	70
77	1081
78	90
79	80
82	30
83	160
84	40
92	611
93	60
95	30
105	90
109	40
110	60
111	180
120	140
121	70
135	9999
136	711
137	80
185	30
229	30
245	2102
246	310
247	30
