Mass Spectrum: Propanamide, N-(3-methylphenyl)-2-methyl-
Formula: C11 H15 N O
Molecular weight: 177
Origin: Zaikin V.G., TIPS RAS, Moscow, Russia
m/z	RELATIVE INTENSITY
27	220
28	40
39	230
40	40
41	430
42	70
43	1872
44	60
50	40
51	120
52	80
53	70
55	40
63	80
64	40
65	290
66	40
70	40
71	330
77	490
78	200
79	310
80	80
89	80
90	60
91	591
92	70
93	30
104	120
105	60
106	1481
107	9999
108	811
109	30
118	40
119	40
132	80
133	140
134	370
135	30
148	30
160	20
176	30
177	2943
178	390
