Mass Spectrum: Cyclohexanecarboxylic acid, 3,4-dichlorophenyl ester
Formula: C13 H14 Cl2 O2
Molecular weight: 272
Origin: Zaikin V.G., TIPS RAS, Moscow, Russia
m/z	RELATIVE INTENSITY
27	549
28	220
29	549
36	137
39	907
40	137
41	3049
42	165
43	192
51	82
53	522
54	632
55	7856
56	385
62	137
63	604
65	110
67	1456
68	220
73	302
74	110
75	165
77	110
79	330
81	879
82	275
83	82
84	1868
97	82
98	137
99	412
101	110
107	82
109	247
110	797
111	9999
112	769
126	110
133	632
134	82
135	412
145	192
147	137
161	192
162	4752
163	440
164	3077
165	220
166	467
272	604
273	82
274	385
