Mass Spectrum: 4-Chlorobenzoic acid, 3,4-dichlorophenyl ester
Formula: C13 H7 Cl3 O2
Molecular weight: 300
Origin: Zaikin V.G., TIPS RAS, Moscow, Russia
m/z	RELATIVE INTENSITY
50	60
51	30
63	40
74	30
75	430
76	130
85	30
104	70
111	1641
112	120
113	571
114	30
133	60
135	40
139	9999
140	801
141	3393
142	250
300	210
302	200
304	60
