Mass Spectrum: Cyclopropanecarboxylic acid, 4-benzyloxyphenyl ester
Formula: C17 H16 O3
Molecular weight: 268
Origin: Zaikin V.G., TIPS RAS, Moscow, Russia
m/z	RELATIVE INTENSITY
26	40
27	40
28	100
35	30
36	250
38	100
39	480
40	60
41	1391
42	50
44	200
50	50
51	100
52	50
54	60
55	60
63	140
64	50
65	731
66	30
68	30
69	4374
70	180
77	60
79	40
81	50
89	140
90	80
91	9999
92	821
93	30
105	30
109	40
110	70
133	30
200	2712
201	380
268	2102
269	380
270	30
