Mass Spectrum: 2,6-Difluorobenzoic acid, 3,5-dimethylphenyl ester
Formula: C15 H12 F2 O2
Molecular weight: 262
Origin: Zaikin V.G., TIPS RAS, Moscow, Russia
m/z	RELATIVE INTENSITY
28	20
39	50
51	40
53	40
63	230
65	40
77	140
78	40
91	110
93	50
107	30
112	40
113	861
114	70
121	60
122	40
140	30
141	9999
142	711
143	40
262	1712
263	270
