Mass Spectrum: Cyclopropanecarboxylic acid, 4-methoxyphenyl ester
Formula: C11 H12 O3
Molecular weight: 192
Origin: Zaikin V.G., TIPS RAS, Moscow, Russia
m/z	RELATIVE INTENSITY
26	100
27	90
28	30
36	90
38	130
39	871
40	110
41	3323
42	120
44	50
50	80
51	150
52	300
53	200
54	210
55	120
62	60
63	250
64	180
65	200
67	30
68	80
69	8137
70	380
77	150
79	100
80	170
81	320
82	90
92	140
95	561
96	40
107	80
108	60
109	2152
110	180
115	170
116	40
123	861
124	9999
125	791
126	60
144	380
145	30
164	30
192	3043
193	370
194	30
