Mass Spectrum: 1-Adamantanecarboxylic acid, 4-cyanophenyl ester
Formula: C18 H19 N O2
Molecular weight: 281
Origin: Zaikin V.G., TIPS RAS, Moscow, Russia
m/z	RELATIVE INTENSITY
39	30
41	120
53	50
55	130
65	30
67	270
69	50
77	200
78	50
79	831
80	60
81	230
90	40
91	260
92	90
93	831
94	60
105	60
107	420
119	50
135	9999
136	1171
137	50
163	621
164	60
