Mass Spectrum: p-Toluic acid, 4-benzyloxyphenyl ester
Formula: C21 H18 O3
Molecular weight: 318
Origin: Zaikin V.G., TIPS RAS, Moscow, Russia
m/z	RELATIVE INTENSITY
28	10
39	30
65	410
89	60
90	70
91	2993
92	220
118	30
119	9999
120	831
121	30
318	1732
319	370
320	30
