Mass Spectrum: Phenylthioacetic acid, 4-nitrophenyl ester
Formula: C14 H11 N O4 S
Molecular weight: 289
Origin: Zaikin V.G., TIPS RAS, Moscow, Russia
m/z	RELATIVE INTENSITY
28	20
36	60
39	120
42	10
44	100
45	1211
47	20
50	50
51	240
52	10
63	90
64	50
65	520
66	60
69	80
75	10
76	10
77	520
78	160
79	240
80	10
82	10
91	130
93	30
97	10
105	350
108	150
109	1491
110	350
111	30
115	10
119	10
121	631
122	330
123	9999
124	961
125	470
126	10
139	230
144	20
150	1091
151	611
152	90
165	100
168	100
218	30
289	3803
290	601
291	200
292	10
