Mass Spectrum: Acetoxyacetic acid, 4-cyanophenyl ester
Formula: C11 H9 N O4
Molecular weight: 219
Origin: Zaikin V.G., TIPS RAS, Moscow, Russia
m/z	RELATIVE INTENSITY
27	30
28	30
29	80
30	30
36	30
37	110
38	80
39	230
41	30
42	400
43	9999
44	220
50	90
51	110
52	50
62	90
63	370
64	490
65	70
73	4064
74	160
75	160
76	90
77	30
88	30
89	20
90	671
91	260
92	50
101	6996
102	611
103	80
104	50
118	160
119	2552
120	280
124	50
132	190
133	50
