Mass Spectrum: 4-Cyano-1-triisobutylsilyloxybenzene
Formula: C19 H31 N O Si
Molecular weight: 317
Origin: Zaikin V.G., TIPS RAS, Moscow, Russia
m/z	RELATIVE INTENSITY
28	10
36	40
59	70
85	110
91	330
102	100
103	40
104	140
116	30
143	30
146	831
147	110
148	520
149	70
160	120
161	80
162	6626
163	961
164	300
174	30
175	100
176	300
177	50
188	150
189	30
191	130
193	80
200	70
202	80
203	90
204	8177
205	1301
206	430
218	661
219	110
260	9999
261	2292
262	621
263	70
317	1221
318	310
319	70
