Mass Spectrum: 1-Adamantanecarboxamide, N-tetrahydrofurfuryl-
Formula: C16 H25 N O2
Molecular weight: 263
Origin: Zaikin V.G., TIPS RAS, Moscow, Russia
m/z	RELATIVE INTENSITY
26	30
27	140
28	10
29	170
30	70
39	180
40	50
41	571
42	100
43	591
44	30
51	40
52	30
53	170
54	40
55	410
56	120
57	70
58	40
65	130
66	60
67	581
68	60
69	140
70	210
71	2903
72	130
73	40
77	510
78	140
79	1371
80	150
81	410
82	80
83	50
84	3073
85	330
86	40
91	661
92	240
93	1201
94	130
95	60
99	30
100	60
105	220
106	50
107	490
108	60
117	30
119	80
120	30
121	30
133	110
134	140
135	9999
136	1221
137	80
138	60
150	50
161	30
162	110
163	190
164	60
178	40
179	70
180	8187
181	1011
182	60
192	70
193	3984
194	1291
195	130
204	60
205	20
219	360
220	210
232	30
235	120
263	200
264	80
