Mass Spectrum: Benzamide, N-tetrahydrofurfuryl-4-fluoro-
Formula: C12 H14 F N O2
Molecular weight: 223
Origin: Zaikin V.G., TIPS RAS, Moscow, Russia
m/z	RELATIVE INTENSITY
26	50
27	360
28	50
29	230
30	100
31	30
36	80
39	260
40	50
41	911
42	240
43	3243
44	230
50	190
51	140
53	50
54	50
55	80
56	250
57	60
63	40
68	100
69	250
70	280
71	9368
72	440
73	30
74	140
75	1441
76	160
77	30
81	20
82	40
83	70
84	4524
85	280
93	60
94	360
95	5075
96	510
97	50
107	20
109	70
121	100
122	320
123	9999
124	821
125	50
134	40
135	160
136	50
139	40
140	771
141	70
151	50
152	4354
153	5525
154	901
155	60
164	150
165	90
178	30
179	270
180	160
221	30
223	140
224	80
