Mass Spectrum: 3,5-Dimethyl-1-dimethylisopropylsilyloxybenzene
Formula: C13 H22 O Si
Molecular weight: 222
Origin: Zaikin V.G., TIPS RAS, Moscow, Russia
m/z	RELATIVE INTENSITY
28	10
36	30
59	50
73	30
75	160
77	50
79	80
82	60
91	40
103	40
105	1011
106	90
109	30
119	80
149	330
150	40
151	30
163	360
164	100
165	140
177	150
178	50
179	9999
180	1802
181	530
182	40
191	40
222	3173
223	651
224	180
