Mass Spectrum: Benzamide, N-(4-fluorophenyl)-4-bromo-
Formula: C13 H9 Br F N O
Molecular weight: 293
Origin: Zaikin V.G., TIPS RAS, Moscow, Russia
m/z	RELATIVE INTENSITY
28	10
38	30
39	40
50	450
51	130
52	30
57	230
62	30
63	80
64	40
74	200
75	1021
76	1381
77	190
80	50
81	50
82	140
83	661
84	130
95	80
103	40
104	681
105	100
109	90
110	150
111	320
112	40
129	30
131	30
143	40
154	40
155	2452
156	240
157	2372
158	190
171	30
183	9999
184	821
185	9629
186	761
187	40
213	60
293	3383
294	540
295	3373
296	500
297	40
