Mass Spectrum: Acetamide, N-(4-bromophenyl)-2-acetoxy-
Formula: C10 H10 Br N O3
Molecular weight: 271
Origin: Zaikin V.G., TIPS RAS, Moscow, Russia
m/z	RELATIVE INTENSITY
26	30
27	40
28	30
29	80
30	40
31	80
36	40
37	40
38	130
39	210
40	30
41	60
42	210
43	6646
44	180
45	30
46	30
50	200
51	110
52	100
61	40
62	140
63	631
64	510
65	550
66	60
73	1852
74	470
75	300
76	320
77	130
78	50
79	40
80	110
81	30
82	100
89	30
90	420
91	1151
92	811
93	180
101	2342
102	150
103	40
104	140
105	160
108	30
117	110
119	180
120	30
123	80
132	70
133	210
143	360
144	30
145	340
146	20
149	40
150	30
155	290
156	30
157	280
169	90
170	661
171	9999
172	1381
173	9599
174	721
182	100
183	160
184	200
185	160
186	100
197	270
198	270
199	270
200	270
213	30
223	50
229	601
230	80
231	581
232	60
271	3343
272	400
273	3353
274	400
275	40
