Mass Spectrum: Thiophene-2-carboxamide, N-(3-nitrophenyl)-
Formula: C11 H8 N2 O3 S
Molecular weight: 248
Origin: Zaikin V.G., TIPS RAS, Moscow, Russia
m/z	RELATIVE INTENSITY
28	10
38	40
39	530
45	40
50	40
51	30
52	30
57	40
58	30
63	90
64	90
65	50
76	40
82	50
83	430
84	40
91	50
92	50
111	9999
112	510
113	400
138	30
218	70
248	1601
249	220
250	90
