Mass Spectrum: Hexanamide, N-(3-chlorophenyl)-
Formula: C12 H16 Cl N O
Molecular weight: 225
Origin: Zaikin V.G., TIPS RAS, Moscow, Russia
m/z	RELATIVE INTENSITY
26	30
27	210
28	120
29	300
36	40
39	160
41	430
42	90
43	1732
44	50
50	30
51	30
53	30
55	300
63	110
64	80
65	170
69	40
71	701
72	40
73	40
75	140
76	40
77	30
90	90
91	170
92	210
93	110
98	40
99	550
100	110
101	80
102	30
111	280
112	30
113	90
125	50
126	240
127	9999
128	801
129	3383
130	230
140	60
153	70
154	200
155	40
156	60
168	120
169	901
170	120
171	310
182	60
196	30
225	961
226	150
227	320
228	40
