Mass Spectrum: Acetamide, N-(2-iodo-4-methylphenyl)-2-acetoxy-
Formula: C11 H12 I N O3
Molecular weight: 333
Origin: Zaikin V.G., TIPS RAS, Moscow, Russia
m/z	RELATIVE INTENSITY
27	40
28	10
29	40
31	30
38	30
39	110
42	100
43	3223
44	90
50	100
51	260
52	180
53	40
62	40
63	140
64	70
65	70
73	911
74	230
75	50
76	110
77	571
78	450
79	300
80	30
89	260
90	400
91	130
92	30
101	931
102	70
103	80
104	821
105	581
106	821
107	160
108	30
116	30
117	210
118	130
119	110
127	150
128	250
132	60
133	140
134	70
146	160
147	100
163	50
164	50
217	120
230	60
231	40
232	821
233	9999
234	821
235	30
244	50
245	120
246	60
259	190
260	621
261	50
273	20
290	30
291	831
292	90
333	6766
334	811
335	80
