Mass Spectrum: 1-Allyldimethylsilyloxy-3,5-dimethylbenzene
Formula: C13 H20 O Si
Molecular weight: 220
Origin: Zaikin V.G., TIPS RAS, Moscow, Russia
m/z	RELATIVE INTENSITY
59	120
75	280
77	120
78	30
79	110
82	180
83	30
89	80
91	70
97	30
99	30
103	90
104	30
105	1682
106	140
109	40
119	100
123	40
135	30
145	40
149	410
150	60
151	50
159	30
161	50
162	20
163	621
164	160
165	60
175	40
177	270
178	100
179	9999
180	1641
181	450
182	30
205	220
206	30
220	2242
221	420
222	100
