Mass Spectrum: 2,6-Difluorobenzoic acid, 4-methoxyphenyl ester
Formula: C14 H10 F2 O3
Molecular weight: 264
Origin: Zaikin V.G., TIPS RAS, Moscow, Russia
m/z	RELATIVE INTENSITY
28	20
41	70
52	50
54	40
63	240
64	30
65	30
80	40
93	30
95	130
112	40
113	741
114	70
123	210
124	30
140	30
141	9999
142	681
143	40
264	1942
265	290
266	30
