Mass Spectrum: 5-Chlorovaleric acid, 3,4-dichlorophenyl ester
Formula: C11 H11 Cl3 O2
Molecular weight: 280
Origin: Zaikin V.G., TIPS RAS, Moscow, Russia
m/z	RELATIVE INTENSITY
26	90
27	851
28	490
29	1241
36	210
38	100
39	520
40	50
41	571
42	230
43	40
44	40
49	210
50	70
51	150
53	360
54	90
55	9999
56	450
61	90
62	310
63	1411
64	90
65	170
69	60
72	110
73	460
74	200
75	340
77	30
81	60
82	50
83	490
84	40
85	90
89	90
90	30
91	5685
92	250
93	1802
94	60
96	40
97	120
98	170
99	440
100	80
101	120
107	90
109	290
110	60
111	80
118	180
119	5465
120	320
121	1842
122	80
124	100
126	90
127	30
128	70
133	450
134	60
135	280
136	30
137	40
144	30
145	170
147	100
148	30
161	60
162	2652
163	220
164	1712
165	120
166	270
280	140
282	140
284	40
