Mass Spectrum: p-Toluic acid, 4-chlorophenyl ester
Formula: C14 H11 Cl O2
Molecular weight: 246
Origin: Zaikin V.G., TIPS RAS, Moscow, Russia
m/z	RELATIVE INTENSITY
39	80
41	30
51	30
63	80
64	30
65	561
89	150
90	120
91	2242
92	170
99	60
118	50
119	9999
120	921
121	50
127	30
128	40
246	220
247	30
248	60
