Mass Spectrum: Propanamide, N-(1-naphthyl)-3-chloro-
Formula: C13 H12 Cl N O
Molecular weight: 233
Origin: Zaikin V.G., TIPS RAS, Moscow, Russia
m/z	RELATIVE INTENSITY
26	30
27	200
28	20
36	70
39	50
50	30
51	40
55	140
58	30
62	40
63	450
64	40
65	140
71	30
74	30
75	50
76	40
77	70
87	30
88	60
89	180
90	40
91	130
93	40
101	30
113	110
114	220
115	1722
116	460
117	70
126	90
127	220
128	60
138	70
140	260
141	160
142	280
143	9999
144	1311
145	80
154	40
155	30
169	140
170	70
197	150
198	50
233	2742
234	400
235	931
236	130
