Mass Spectrum: Benzamide, N-(4-bromophenyl)-2-methoxy-
Formula: C14 H12 Br N O2
Molecular weight: 305
Origin: Zaikin V.G., TIPS RAS, Moscow, Russia
m/z	RELATIVE INTENSITY
28	10
39	50
50	50
51	90
63	140
64	170
65	100
75	30
76	80
77	1051
78	90
79	70
90	40
91	130
92	581
93	60
105	90
120	130
121	70
135	9999
136	721
137	60
143	30
145	30
170	30
171	130
172	40
173	120
211	30
305	1061
306	170
307	1041
308	160
