Mass Spectrum: 3,4-Dichloro-1-tripropylsilyloxybenzene
Formula: C15 H24 Cl2 O Si
Molecular weight: 318
Origin: Zaikin V.G., TIPS RAS, Moscow, Russia
m/z	RELATIVE INTENSITY
45	160
59	90
63	30
65	130
71	80
73	210
77	50
79	70
87	70
102	150
103	100
109	130
110	70
111	200
112	80
113	100
115	280
137	60
139	40
145	170
146	60
147	290
148	50
149	120
155	310
156	100
157	400
158	30
159	30
163	30
169	40
170	50
183	130
185	40
189	951
190	200
191	4174
192	480
193	2442
194	260
195	420
196	40
197	30
199	30
203	30
205	2182
206	260
207	1351
208	210
209	390
217	160
219	120
231	120
232	70
233	9999
234	1461
235	6586
236	961
237	1281
238	160
247	40
275	8478
276	1661
277	5935
278	1111
279	1161
280	190
318	4384
319	921
320	3023
321	601
322	571
323	100
