Mass Spectrum: 4-Fluorobenzoic acid, 4-cyanophenyl ester
Formula: C14 H8 F N O2
Molecular weight: 241
Origin: Zaikin V.G., TIPS RAS, Moscow, Russia
m/z	RELATIVE INTENSITY
28	10
37	30
38	20
39	70
50	110
51	80
62	30
63	90
64	110
68	40
69	110
74	70
75	731
76	80
90	110
91	60
94	140
95	2642
96	200
118	30
119	80
123	9999
124	751
125	40
241	40
