Mass Spectrum: 2-Fluorobenzoic acid, 3,5-dimethylphenyl ester
Formula: C15 H13 F O2
Molecular weight: 244
Origin: Zaikin V.G., TIPS RAS, Moscow, Russia
m/z	RELATIVE INTENSITY
28	70
75	190
77	100
91	70
94	40
95	1101
96	70
121	50
122	30
123	9999
124	791
125	40
244	2132
245	350
