Mass Spectrum: 4-Trifluoromethylbenzoic acid, 3,4-dichlorophenyl ester
Formula: C14 H7 Cl2 F3 O2
Molecular weight: 334
Origin: Zaikin V.G., TIPS RAS, Moscow, Russia
m/z	RELATIVE INTENSITY
50	50
63	90
73	40
74	30
75	120
76	30
95	220
99	40
125	140
126	130
133	100
135	70
144	60
145	2662
146	200
154	50
159	30
162	50
164	30
173	9999
174	761
175	40
315	80
317	50
334	280
335	30
336	180
338	30
