Mass Spectrum: Benzamide, N-(4-bromophenyl)-2-methyl-
Formula: C14 H12 Br N O
Molecular weight: 289
Origin: Zaikin V.G., TIPS RAS, Moscow, Russia
m/z	RELATIVE INTENSITY
26	30
28	10
38	30
39	180
41	70
50	50
51	80
52	30
62	40
63	230
64	130
65	731
66	40
75	40
76	50
77	40
80	30
89	220
90	240
91	2943
92	280
105	30
118	60
119	9999
120	731
121	40
143	50
145	50
170	30
171	90
172	30
173	90
180	60
193	60
209	30
289	891
290	140
291	901
292	130
