Mass Spectrum: 2-Fluorobenzoic acid, 4-cyanophenyl ester
Formula: C14 H8 F N O2
Molecular weight: 241
Origin: Zaikin V.G., TIPS RAS, Moscow, Russia
m/z	RELATIVE INTENSITY
69	40
75	430
76	40
90	60
94	70
95	1551
96	90
123	9999
124	761
125	40
241	40
