Mass Spectrum: 3-Methylbut-2-enoic acid, 4-nitrophenyl ester
Formula: C11 H11 N O4
Molecular weight: 221
Origin: Zaikin V.G., TIPS RAS, Moscow, Russia
m/z	RELATIVE INTENSITY
27	210
28	220
29	550
30	60
38	40
39	390
40	30
50	40
51	40
52	20
53	230
54	90
55	1972
56	80
63	110
64	80
65	50
67	50
82	130
83	9999
84	520
85	20
109	60
139	30
