Mass Spectrum: 5-Bromovaleric acid, 3-methylphenyl ester
Formula: C12 H15 Br O2
Molecular weight: 270
Origin: Zaikin V.G., TIPS RAS, Moscow, Russia
m/z	RELATIVE INTENSITY
27	100
28	40
29	120
39	110
41	70
53	70
55	1311
56	60
63	30
65	90
77	250
78	70
79	190
80	70
83	50
90	70
91	330
93	50
107	691
108	9999
109	1041
110	60
119	200
121	80
122	400
123	30
135	530
137	510
163	310
165	310
270	390
271	40
272	390
273	50
