Mass Spectrum: Pentanamide, N-(4-methoxyphenyl)-5-chloro-
Formula: C12 H16 Cl N O2
Molecular weight: 241
Origin: Zaikin V.G., TIPS RAS, Moscow, Russia
m/z	RELATIVE INTENSITY
26	40
27	200
28	90
29	240
36	90
38	30
39	170
41	240
42	30
49	30
50	40
51	110
52	220
53	230
54	40
55	1041
56	50
62	30
63	170
64	120
65	180
66	30
67	40
75	30
76	30
77	140
78	110
79	130
80	310
81	70
89	30
90	50
91	300
92	170
93	130
94	40
95	350
96	30
106	120
107	110
108	4114
109	370
117	20
118	30
119	80
120	50
121	110
122	941
123	9999
124	871
125	50
127	40
132	30
134	230
135	40
136	50
141	30
143	30
147	60
149	170
150	110
160	30
162	30
167	30
169	40
178	30
190	90
205	230
206	340
240	30
241	2582
242	380
243	861
244	120
