Mass Spectrum: Benzamide, N-(4-bromophenyl)-2,3,4-trifluoro-
Formula: C13 H7 Br F3 N O
Molecular weight: 329
Origin: Zaikin V.G., TIPS RAS, Moscow, Russia
m/z	RELATIVE INTENSITY
28	10
38	30
39	40
50	40
62	70
63	200
64	140
65	80
75	50
76	30
81	480
90	70
91	270
92	50
112	70
117	30
119	30
130	50
131	1601
132	140
143	100
145	100
158	30
159	9999
160	681
161	30
170	40
171	80
172	100
173	80
174	60
221	30
249	50
329	2482
330	380
331	2442
332	360
