Mass Spectrum: o-Anisic acid, 4-methoxyphenyl ester
Formula: C15 H14 O4
Molecular weight: 258
Origin: Zaikin V.G., TIPS RAS, Moscow, Russia
m/z	RELATIVE INTENSITY
51	50
63	40
64	90
76	30
77	951
78	70
79	90
92	400
95	50
105	70
120	110
123	140
135	9999
136	901
137	80
258	480
259	80
