Mass Spectrum: trans-3-Trifluoromethylcinnamic acid, 4-methoxyphenyl ester
Formula: C17 H13 F3 O3
Molecular weight: 322
Origin: Zaikin V.G., TIPS RAS, Moscow, Russia
m/z	RELATIVE INTENSITY
28	10
36	30
41	30
65	50
91	260
95	90
102	180
109	240
119	60
123	180
124	1031
125	90
135	60
145	70
151	1311
152	170
169	30
170	60
171	2072
172	140
199	9999
200	1191
201	50
278	80
303	130
322	1461
323	220
