Mass Spectrum: Benzamide, N-(4-fluorophenyl)-2,3,4-trifluoro-
Formula: C13 H7 F4 N O
Molecular weight: 269
Origin: Zaikin V.G., TIPS RAS, Moscow, Russia
m/z	RELATIVE INTENSITY
28	50
57	140
62	40
63	50
75	80
81	561
82	80
83	330
84	50
95	50
109	50
110	80
111	150
112	120
130	50
131	1802
132	150
158	30
159	9999
160	671
161	30
269	4014
270	561
271	40
