Mass Spectrum: Acetamide, N-(4-fluorophenyl)-2,2,2-trifluoro-
Formula: C8 H5 F4 N O
Molecular weight: 207
Origin: Zaikin V.G., TIPS RAS, Moscow, Russia
m/z	RELATIVE INTENSITY
27	30
28	30
31	90
33	20
37	30
38	60
39	100
40	30
44	80
45	30
50	150
51	90
52	90
55	40
56	100
57	691
58	40
61	50
62	130
63	260
64	90
65	30
68	50
69	801
74	80
75	540
76	60
81	230
82	480
83	2682
84	200
89	120
90	70
91	30
93	30
94	100
95	1441
96	110
108	100
109	651
110	5745
111	460
112	601
113	40
120	50
121	30
137	631
138	3203
139	270
159	140
160	40
178	30
186	40
188	60
206	30
207	9999
208	981
209	30
