Mass Spectrum: m-Toluic acid, 4-chlorophenyl ester
Formula: C14 H11 Cl O2
Molecular weight: 246
Origin: Zaikin V.G., TIPS RAS, Moscow, Russia
m/z	RELATIVE INTENSITY
28	40
39	150
41	50
50	40
51	60
62	30
63	150
64	60
65	681
66	30
73	50
75	50
89	190
90	140
91	2602
92	210
99	90
101	30
118	50
119	9999
120	841
121	50
127	40
128	110
130	30
246	280
247	40
248	90
