Mass Spectrum: 2-Bromobenzoic acid, morpholide
Formula: C11 H12 Br N O2
Molecular weight: 269
Origin: Zaikin V.G., TIPS RAS, Moscow, Russia
m/z	RELATIVE INTENSITY
26	60
27	170
28	450
29	270
30	120
36	30
39	40
41	100
42	450
43	50
44	70
45	40
50	510
51	270
52	30
54	150
55	550
56	2092
57	210
59	30
63	30
65	30
66	30
69	50
70	200
72	210
74	200
75	1041
76	1351
77	861
78	100
80	130
82	60
85	80
86	3103
87	180
89	60
90	60
91	170
102	40
103	90
104	240
105	671
106	50
114	30
117	20
118	30
119	30
128	60
129	30
130	40
131	30
132	140
133	40
146	210
148	80
154	40
155	2122
156	210
157	2092
158	170
159	40
160	320
161	40
162	681
163	70
169	40
171	40
172	50
182	60
183	9999
184	861
185	9809
186	771
187	40
190	1651
191	200
212	120
214	90
219	80
226	80
228	60
238	450
239	70
240	520
241	70
242	70
254	1131
255	120
256	1121
257	120
268	4444
269	2642
270	4674
271	2572
272	360
273	30
