Mass Spectrum: o-Toluic acid, 3-methylphenyl ester
Formula: C15 H14 O2
Molecular weight: 226
Origin: Zaikin V.G., TIPS RAS, Moscow, Russia
m/z	RELATIVE INTENSITY
39	130
41	40
51	70
53	20
63	90
64	30
65	591
66	30
77	120
78	40
79	60
89	160
90	140
91	2332
92	200
107	100
108	80
118	40
119	9999
120	851
121	50
226	310
227	50
