Mass Spectrum: Benzamide, N-(3-methylphenyl)-3-bromo-
Formula: C14 H12 Br N O
Molecular weight: 289
Origin: Zaikin V.G., TIPS RAS, Moscow, Russia
m/z	RELATIVE INTENSITY
26	30
27	50
28	40
38	40
39	140
41	40
44	40
50	330
51	210
52	100
53	80
63	90
64	50
65	170
74	120
75	691
76	1331
77	821
78	260
79	290
80	100
82	60
89	50
90	40
91	200
103	50
104	540
105	190
106	370
107	410
108	300
132	70
133	40
144	50
145	60
152	30
155	2502
156	210
157	2502
158	190
165	40
166	40
167	80
170	30
180	110
181	60
182	30
183	9999
184	791
185	9929
186	741
187	40
195	40
209	50
210	40
211	30
288	30
289	5285
290	891
291	5125
292	801
293	70
