Mass Spectrum: 3-Trifluoromethylbenzoic acid, 4-cyanophenyl ester
Formula: C15 H8 F3 N O2
Molecular weight: 291
Origin: Zaikin V.G., TIPS RAS, Moscow, Russia
m/z	RELATIVE INTENSITY
63	40
64	40
75	120
76	30
90	80
95	290
119	50
125	170
126	110
144	60
145	3103
146	240
173	9999
174	911
175	50
272	220
273	30
291	70
