Mass Spectrum: 2-Butenamide, N-(4-methoxyphenyl)-3-methyl-
Formula: C12 H15 N O2
Molecular weight: 205
Origin: Zaikin V.G., TIPS RAS, Moscow, Russia
m/z	RELATIVE INTENSITY
26	30
27	190
28	170
29	440
38	30
39	330
40	30
41	130
50	40
51	100
52	210
53	340
54	90
55	1501
56	70
63	80
64	80
65	120
67	70
77	80
78	70
79	100
80	280
81	50
82	100
83	4184
84	230
91	40
92	80
95	270
106	50
107	70
108	3193
109	320
122	330
123	9999
124	781
125	40
134	50
160	30
161	30
162	30
173	20
176	30
188	70
189	30
204	50
205	2993
206	440
207	30
