Mass Spectrum: Hexanamide, N-(4-methoxyphenyl)-
Formula: C13 H19 N O2
Molecular weight: 221
Origin: Zaikin V.G., TIPS RAS, Moscow, Russia
m/z	RELATIVE INTENSITY
27	120
28	60
29	170
39	90
41	310
42	40
43	701
51	30
52	100
53	90
55	170
63	40
64	50
65	90
67	20
71	150
77	80
78	50
79	70
80	210
81	40
92	100
93	40
95	200
99	70
106	50
107	70
108	3093
109	290
121	200
122	661
123	9999
124	811
125	40
134	90
135	30
136	60
149	100
150	70
160	30
164	30
165	340
166	30
178	50
192	30
220	50
221	2873
222	440
223	40
