Mass Spectrum: 4-Chlorobenzoic acid, 3-methylphenyl ester
Formula: C14 H11 Cl O2
Molecular weight: 246
Origin: Zaikin V.G., TIPS RAS, Moscow, Russia
m/z	RELATIVE INTENSITY
39	30
50	40
51	50
65	30
75	320
76	110
77	120
78	30
79	70
104	60
107	70
111	1491
112	110
113	480
114	30
139	9999
140	791
141	3403
142	250
246	1191
247	180
248	390
249	50
