Mass Spectrum: p-Anisic acid, 4-nitrophenyl ester
Formula: C14 H11 N O5
Molecular weight: 273
Origin: Zaikin V.G., TIPS RAS, Moscow, Russia
m/z	RELATIVE INTENSITY
63	50
64	120
76	40
77	581
78	40
79	30
92	390
104	30
107	530
108	40
135	9999
136	901
137	70
152	40
