Mass Spectrum: Acetamide, N-(4-methoxyphenyl)-2,2-dichloro-
Formula: C9 H9 Cl2 N O2
Molecular weight: 233
Origin: Zaikin V.G., TIPS RAS, Moscow, Russia
m/z	RELATIVE INTENSITY
26	50
27	50
28	10
35	30
36	200
38	130
39	150
41	260
48	60
50	100
51	210
52	540
53	320
54	40
55	30
62	60
63	260
64	310
65	260
66	40
67	90
75	60
76	140
77	370
78	220
79	280
80	290
81	90
83	280
85	180
87	30
90	100
91	170
92	310
93	40
95	791
96	50
102	30
104	30
106	210
107	270
108	1191
109	200
119	80
120	50
121	40
122	9999
123	1041
124	480
125	40
132	80
133	40
134	550
135	80
147	40
148	100
149	320
150	2342
151	210
154	40
155	260
156	30
157	80
162	370
163	110
167	30
169	50
170	90
172	30
198	190
199	80
200	70
218	240
220	160
233	5875
234	621
235	3894
236	400
237	631
238	60
