Mass Spectrum: 3-Phenylpropionic acid, 2- naphthyl ester
Formula: C19 H16 O2
Molecular weight: 276
Origin: Zaikin V.G., TIPS RAS, Moscow, Russia
m/z	RELATIVE INTENSITY
28	20
65	70
77	130
78	40
79	130
89	30
91	1121
92	60
103	110
104	90
105	681
106	40
115	430
116	120
127	40
131	50
133	100
135	50
143	30
144	9999
145	1101
146	50
276	781
277	140
