Mass Spectrum: Acetamide, N-(4-bromophenyl)-2,2,2-trifluoro-
Formula: C8 H5 Br F3 N O
Molecular weight: 267
Origin: Zaikin V.G., TIPS RAS, Moscow, Russia
m/z	RELATIVE INTENSITY
27	30
28	120
37	80
38	210
39	220
40	40
41	70
44	90
46	350
50	340
51	110
52	120
61	90
62	240
63	961
64	741
65	280
69	611
73	30
74	180
75	450
76	550
77	60
80	60
82	60
86	30
88	40
89	40
90	691
91	1892
92	160
93	60
95	50
96	30
99	160
100	170
102	140
117	130
118	30
119	270
120	30
140	60
141	40
143	470
144	40
145	450
155	831
156	50
157	821
158	50
168	70
169	430
170	2803
171	410
172	3413
173	280
174	691
175	40
187	60
197	470
198	1992
199	621
200	2012
201	150
219	140
221	120
267	9999
268	971
269	9689
270	911
271	50
