Mass Spectrum: Benzamide, N-(4-fluorophenyl)-4-fluoro-
Formula: C13 H9 F2 N O
Molecular weight: 233
Origin: Zaikin V.G., TIPS RAS, Moscow, Russia
m/z	RELATIVE INTENSITY
28	20
50	70
51	50
57	130
63	40
68	30
69	80
74	50
75	581
76	60
81	30
82	50
83	300
84	60
94	130
95	2883
96	230
109	50
110	70
111	180
122	40
123	9999
124	681
125	40
203	60
204	30
232	40
233	3253
234	470
235	30
