Mass Spectrum: 1-Cyclohexyldimethylsilyloxy-3,5-dimethylbenzene
Formula: C16 H26 O Si
Molecular weight: 262
Origin: Zaikin V.G., TIPS RAS, Moscow, Russia
m/z	RELATIVE INTENSITY
59	110
75	190
77	50
79	70
91	30
103	40
105	961
106	120
109	30
119	100
133	30
135	30
139	30
149	270
150	40
163	430
164	100
165	931
166	140
167	30
177	100
178	50
179	9999
180	4014
181	891
182	160
247	170
248	30
262	4304
263	991
264	250
