Mass Spectrum: m-Toluic acid, 2-naphthyl ester
Formula: C18 H14 O2
Molecular weight: 262
Origin: Zaikin V.G., TIPS RAS, Moscow, Russia
m/z	RELATIVE INTENSITY
28	260
36	40
39	180
40	40
41	70
44	110
50	50
51	90
62	50
63	230
64	50
65	871
66	40
74	30
75	50
76	30
77	40
88	30
89	330
90	190
91	3203
92	270
113	40
114	50
115	731
116	100
118	60
119	9999
120	841
121	50
126	30
127	40
144	160
262	1401
263	270
264	30
