Mass Spectrum: 1-Dimethyl(pentafluorophenyl)silyloxy-4-methoxybenzene
Formula: C15 H13 F5 O2 Si
Molecular weight: 348
Origin: Zaikin V.G., TIPS RAS, Moscow, Russia
m/z	RELATIVE INTENSITY
36	70
65	60
75	40
77	280
81	50
109	40
119	90
125	520
133	40
139	210
144	40
159	190
181	40
185	30
193	80
225	751
226	110
259	60
289	90
290	190
302	160
303	20
313	60
317	40
318	721
319	140
333	741
334	140
335	30
348	9999
349	2192
350	611
351	70
