Mass Spectrum: p-Anisic acid, 3,5-dimethylphenyl ester
Formula: C16 H16 O3
Molecular weight: 256
Origin: Zaikin V.G., TIPS RAS, Moscow, Russia
m/z	RELATIVE INTENSITY
28	10
63	30
64	90
76	30
77	611
78	50
79	40
91	30
92	360
93	30
104	20
107	470
108	30
121	30
135	9999
136	901
137	70
152	100
256	470
257	70
