Mass Spectrum: Propanamide, N-(2,5-dimethoxyphenyl)-2-chloro-
Formula: C11 H14 Cl N O3
Molecular weight: 243
Origin: Zaikin V.G., TIPS RAS, Moscow, Russia
m/z	RELATIVE INTENSITY
26	50
27	250
28	10
29	40
36	130
38	70
39	150
40	80
41	70
43	30
44	140
50	60
51	220
52	340
53	180
54	80
55	250
56	40
62	50
63	581
64	70
65	310
66	110
67	120
68	230
69	90
76	60
77	160
78	130
79	500
80	180
81	70
82	120
90	90
91	80
92	210
93	270
94	120
95	410
96	50
105	30
106	120
107	350
108	200
109	260
110	540
111	110
120	40
121	60
122	390
123	230
124	220
125	260
133	60
134	70
135	50
136	160
137	60
138	9999
139	1011
140	80
143	50
148	80
149	130
150	661
151	250
152	250
153	410
154	120
157	50
161	30
162	140
163	30
164	460
165	1772
166	280
176	120
177	160
178	50
179	130
180	681
181	60
191	30
192	160
193	40
200	120
202	40
207	410
208	390
209	30
212	160
214	50
228	3373
229	400
230	1131
231	120
243	6736
244	861
245	2292
246	280
