Mass Spectrum: 4-Trifluoromethylbenzoic acid, 4-benzyloxyphenyl ester
Formula: C21 H15 F3 O3
Molecular weight: 372
Origin: Zaikin V.G., TIPS RAS, Moscow, Russia
m/z	RELATIVE INTENSITY
26	20
28	10
36	30
39	90
41	40
50	50
51	70
52	30
54	50
63	80
64	30
65	480
75	80
76	30
89	80
90	60
91	9999
92	761
95	170
125	90
126	100
144	30
145	1792
146	140
154	50
159	40
173	2642
174	220
290	30
353	130
372	1051
373	230
