Mass Spectrum: Acetamide, N-(2,5-dimethoxyphenyl)-2,2-dichloro-
Formula: C10 H11 Cl2 N O3
Molecular weight: 263
Origin: Zaikin V.G., TIPS RAS, Moscow, Russia
m/z	RELATIVE INTENSITY
26	60
27	60
28	10
29	40
35	40
36	310
38	170
39	300
40	70
41	110
42	30
43	30
44	50
48	70
49	30
50	140
51	420
52	621
53	280
54	120
55	90
62	60
63	210
64	140
65	340
66	180
67	120
68	420
69	160
75	50
76	160
77	310
78	230
79	851
80	290
81	110
82	140
83	290
85	180
87	30
90	200
91	100
92	360
93	340
94	190
95	460
96	40
104	60
105	40
106	240
107	661
108	310
109	490
110	561
111	180
119	50
120	110
121	120
122	621
123	260
124	260
125	350
126	40
129	50
132	30
133	30
134	230
135	140
136	250
137	160
138	5335
139	941
140	80
141	150
142	30
143	50
148	90
149	330
150	1241
151	330
152	370
153	140
154	60
156	30
157	80
162	1241
163	200
164	701
165	8658
166	901
167	90
168	310
169	50
170	140
171	30
172	30
177	80
178	290
179	240
180	1151
181	130
182	70
184	90
185	150
186	30
187	40
192	190
193	100
196	110
197	180
198	100
199	80
200	40
212	340
213	70
214	180
215	30
216	30
220	170
222	110
228	430
229	110
230	150
231	30
232	90
234	50
248	9509
249	1021
250	6276
251	671
252	1041
253	100
263	9999
264	1161
265	6696
266	771
267	1121
268	110
