Mass Spectrum: 4-Chloro-1-dimethyldodecylsilyloxybenzene
Formula: C20 H35 Cl O Si
Molecular weight: 354
Origin: Zaikin V.G., TIPS RAS, Moscow, Russia
m/z	RELATIVE INTENSITY
28	10
43	40
57	40
59	210
73	40
75	40
79	90
81	30
85	30
87	30
91	120
93	140
95	60
99	240
111	30
113	230
121	40
125	60
127	160
135	120
141	60
149	130
150	40
151	170
155	60
157	50
169	40
171	1391
172	160
173	470
174	50
185	9999
186	1651
187	3873
188	540
189	150
197	40
199	50
211	651
212	110
213	80
227	120
239	40
339	611
340	140
341	230
342	40
354	8017
355	2342
356	3283
357	811
358	180
