Mass Spectrum: Butyric acid, 2-naphthyl ester
Formula: C14 H14 O2
Molecular weight: 214
Origin: Zaikin V.G., TIPS RAS, Moscow, Russia
m/z	RELATIVE INTENSITY
27	150
28	30
36	70
39	120
41	240
43	821
44	60
50	30
51	40
55	50
62	40
63	160
65	90
71	280
74	30
75	50
77	50
87	30
88	50
89	200
101	20
113	50
114	80
115	1601
116	380
117	20
126	70
127	260
128	50
143	70
144	9999
145	1141
146	70
214	701
215	100
