Mass Spectrum: 2-Butenamide, N-(1-naphthyl)-3-methyl-
Formula: C15 H15 N O
Molecular weight: 225
Origin: Zaikin V.G., TIPS RAS, Moscow, Russia
m/z	RELATIVE INTENSITY
27	100
28	120
29	300
39	210
51	40
53	120
54	30
55	1011
56	40
63	70
65	40
67	30
75	30
77	50
82	60
83	3653
84	200
88	40
89	120
113	60
114	120
115	1181
116	330
117	50
126	60
127	130
128	50
140	150
141	80
142	140
143	9999
144	1001
145	50
165	30
169	30
180	50
181	60
225	2112
226	360
227	30
