Mass Spectrum: Dichloroacetic acid, 3,4-dichlorophenyl ester
Formula: C8 H4 Cl4 O2
Molecular weight: 272
Origin: Zaikin V.G., TIPS RAS, Moscow, Russia
m/z	RELATIVE INTENSITY
28	50
35	100
36	741
37	160
38	370
39	100
41	50
44	180
47	200
48	601
49	260
50	310
51	80
52	30
53	60
60	90
61	400
62	941
63	2813
64	200
65	40
66	20
71	50
72	450
73	1281
74	731
75	821
76	1181
77	90
78	360
79	90
82	110
83	6015
84	340
85	3904
86	120
87	631
89	30
90	40
91	90
92	30
96	60
97	480
98	420
99	681
100	180
101	160
102	70
107	330
108	40
109	1091
110	300
111	520
112	120
113	140
119	340
123	30
124	90
126	330
127	150
128	150
129	40
133	2132
134	170
135	1371
136	100
137	220
145	2322
146	230
147	1521
148	120
149	230
161	751
162	9999
163	1081
164	6526
165	470
166	1051
167	50
181	80
182	30
183	80
185	30
189	250
191	170
193	110
195	90
207	120
209	651
210	40
211	601
212	30
213	180
272	961
273	60
274	1231
275	90
276	601
277	30
278	110
