Mass Spectrum: Benzamide, N-(3-chlorophenyl)-3-fluoro-
Formula: C13 H9 Cl F N O
Molecular weight: 249
Origin: Zaikin V.G., TIPS RAS, Moscow, Russia
m/z	RELATIVE INTENSITY
28	20
39	50
50	70
51	60
62	30
63	120
64	70
65	50
69	70
73	50
74	60
75	631
76	60
90	50
91	60
92	30
94	120
95	3203
96	250
99	150
100	30
101	50
111	40
122	30
123	9999
124	691
125	60
126	30
127	200
128	30
129	60
185	50
249	3073
250	460
251	1011
252	140
