Mass Spectrum: 4-Cyanophenol, TMS derivative
Formula: C10 H13 N O Si
Molecular weight: 191
Origin: Zaikin V.G., TIPS RAS, Moscow, Russia
m/z	RELATIVE INTENSITY
43	40
45	50
73	440
74	30
75	160
88	140
89	40
102	210
116	170
120	80
121	90
146	220
148	30
160	280
161	40
162	60
174	60
176	9999
177	1621
178	520
179	40
191	2903
192	500
193	140
