Mass Spectrum: Valeric acid, 3,5-dimethylphenyl ester
Formula: C13 H18 O2
Molecular weight: 206
Origin: Zaikin V.G., TIPS RAS, Moscow, Russia
m/z	RELATIVE INTENSITY
27	60
28	90
29	240
36	60
38	10
39	50
41	300
44	30
51	10
52	10
53	40
55	110
57	1021
58	30
65	40
73	20
77	320
78	50
79	170
85	480
86	10
91	150
93	50
94	30
103	40
104	20
105	110
107	931
108	100
121	420
122	9999
123	1011
124	50
128	130
130	30
135	10
206	911
207	210
