Mass Spectrum: Propanamide, N-(3-methylphenyl)-2-chloro-
Formula: C10 H12 Cl N O
Molecular weight: 197
Origin: Zaikin V.G., TIPS RAS, Moscow, Russia
m/z	RELATIVE INTENSITY
26	60
27	540
36	50
38	80
39	430
41	110
42	40
50	140
51	400
52	270
53	230
54	50
55	250
56	50
61	40
62	100
63	1211
64	180
65	1041
66	110
67	30
76	90
77	1631
78	701
79	881
80	170
89	250
90	200
91	4284
92	370
93	40
103	30
104	380
105	130
106	4344
107	6456
108	821
115	30
116	50
117	130
118	200
119	190
120	40
130	30
132	270
133	480
134	9999
135	921
136	40
144	40
146	50
147	40
160	100
161	270
162	621
163	70
196	50
197	7056
198	851
199	2382
200	260
