Mass Spectrum: Octanoic acid, 3-methylphenyl ester
Formula: C15 H22 O2
Molecular weight: 234
Origin: Zaikin V.G., TIPS RAS, Moscow, Russia
m/z	RELATIVE INTENSITY
27	120
28	90
29	220
39	120
41	460
42	90
43	671
51	30
53	60
55	380
56	40
57	2412
58	110
65	90
67	80
69	50
71	30
77	230
78	70
79	190
80	70
81	30
82	30
83	80
84	40
90	60
91	200
97	20
98	80
105	20
107	530
108	9999
109	1151
110	70
127	981
128	80
150	40
234	791
235	140
