Mass Spectrum: 4-Methoxy-1-triisobutylsilyloxybenzene
Formula: C19 H34 O2 Si
Molecular weight: 322
Origin: Zaikin V.G., TIPS RAS, Moscow, Russia
m/z	RELATIVE INTENSITY
45	30
59	190
77	110
84	90
85	50
87	50
90	370
91	240
92	40
94	30
101	50
107	80
108	150
109	310
110	30
121	140
123	50
133	30
135	30
137	230
138	30
143	110
151	691
152	130
153	2072
154	250
155	80
165	70
167	5895
168	801
169	250
179	30
181	100
191	40
193	150
194	30
199	40
200	20
207	60
208	30
209	9999
210	1712
211	490
212	40
223	160
265	3253
266	911
267	220
268	30
322	7247
323	1922
324	500
325	60
