Mass Spectrum: Benzamide, N-(4-bromophenyl)-3-methyl-
Formula: C14 H12 Br N O
Molecular weight: 289
Origin: Zaikin V.G., TIPS RAS, Moscow, Russia
m/z	RELATIVE INTENSITY
28	30
39	120
41	50
50	40
51	50
62	30
63	170
64	100
65	701
66	40
75	30
76	30
89	190
90	210
91	2853
92	280
118	40
119	9999
120	801
121	50
143	50
145	50
170	30
171	140
172	40
173	140
180	40
208	30
209	80
210	30
241	50
289	1842
290	300
291	1832
292	290
