Mass Spectrum: 2-Methylpropionic acid, morpholide
Formula: C8 H15 N O2
Molecular weight: 157
Origin: Zaikin V.G., TIPS RAS, Moscow, Russia
m/z	RELATIVE INTENSITY
26	220
27	1511
28	420
29	1061
30	530
31	110
38	50
39	641
40	170
41	1992
42	2332
43	9999
44	751
45	360
52	30
53	40
54	300
55	1001
56	5215
57	4844
58	530
59	110
67	30
68	110
69	510
70	5045
71	3393
72	1021
73	60
82	30
83	40
84	170
85	330
86	6646
87	2803
88	1601
89	60
98	210
99	260
100	220
101	50
112	911
113	100
114	5515
115	370
126	190
127	120
128	170
129	1061
130	50
142	1992
143	140
155	40
156	130
157	6456
158	571
159	30
