Mass Spectrum: p-Anisic acid, morpholide
Formula: C12 H15 N O3
Molecular weight: 221
Origin: Zaikin V.G., TIPS RAS, Moscow, Russia
m/z	RELATIVE INTENSITY
27	30
28	10
42	40
50	40
51	30
56	100
63	90
64	190
65	40
69	40
76	80
77	671
78	60
79	30
86	100
92	571
93	40
104	60
107	400
108	50
121	30
122	60
135	9999
136	761
137	60
190	80
193	170
206	60
220	1511
221	1211
222	170
