Mass Spectrum: Acetamide, N-(3-methylphenyl)-2-bromo-
Formula: C9 H10 Br N O
Molecular weight: 227
Origin: Zaikin V.G., TIPS RAS, Moscow, Russia
m/z	RELATIVE INTENSITY
26	40
27	140
28	10
36	100
38	150
39	500
40	100
41	150
42	160
43	90
44	80
50	210
51	450
52	370
53	250
54	40
62	80
63	320
64	190
65	540
66	100
67	30
74	40
75	70
76	100
77	1742
78	751
79	1051
80	270
81	60
82	120
89	150
90	130
91	1321
92	180
93	260
95	180
103	40
104	320
105	130
106	2602
107	9999
108	1171
109	50
111	70
118	100
119	80
120	490
121	230
122	30
123	170
127	220
128	30
129	60
131	30
132	110
133	210
134	841
135	80
146	60
147	100
148	400
149	90
154	40
227	2692
228	280
229	2642
230	260
