Mass Spectrum: Valeric acid, 3,4-dichlorophenyl ester
Formula: C11 H12 Cl2 O2
Molecular weight: 246
Origin: Zaikin V.G., TIPS RAS, Moscow, Russia
m/z	RELATIVE INTENSITY
27	251
28	628
29	1590
30	14
36	42
39	167
41	2120
42	167
43	112
44	14
53	28
55	1102
56	279
57	9999
58	418
62	42
63	279
64	14
69	28
72	14
73	153
74	42
75	84
82	98
83	279
84	28
85	739
86	28
97	42
98	84
99	251
100	28
101	70
107	28
109	181
110	28
111	56
124	28
126	56
127	28
128	42
133	321
134	56
135	209
136	28
137	14
145	195
147	126
149	14
159	42
161	98
162	3403
163	293
164	2203
165	153
166	349
167	14
175	14
189	14
246	669
247	70
248	446
249	42
250	70
