Mass Spectrum: 4-Bromobutyric acid, 3,5-dimethylphenyl ester
Formula: C12 H15 Br O2
Molecular weight: 270
Origin: Zaikin V.G., TIPS RAS, Moscow, Russia
m/z	RELATIVE INTENSITY
39	40
41	280
42	30
53	30
55	30
65	30
77	220
78	50
79	100
91	150
93	50
94	30
103	30
105	100
107	851
108	70
121	601
122	9999
123	1241
124	80
128	190
130	50
149	280
151	280
270	380
271	40
272	370
273	40
