Mass Spectrum: m-Toluic acid, 4-cyanophenyl ester
Formula: C15 H11 N O2
Molecular weight: 237
Origin: Zaikin V.G., TIPS RAS, Moscow, Russia
m/z	RELATIVE INTENSITY
28	40
39	220
41	70
50	50
51	90
62	40
63	200
64	120
65	911
66	40
75	20
89	240
90	250
91	3263
92	260
118	80
119	9999
120	821
121	40
