Mass Spectrum: Benzamide, N-(4-bromophenyl)-2-fluoro-
Formula: C13 H9 Br F N O
Molecular weight: 293
Origin: Zaikin V.G., TIPS RAS, Moscow, Russia
m/z	RELATIVE INTENSITY
28	10
38	30
39	50
50	80
51	50
62	40
63	160
64	120
65	80
69	50
74	50
75	450
76	80
90	60
91	220
92	50
93	30
94	120
95	1641
96	150
122	50
123	9999
124	631
125	30
143	80
145	80
170	40
171	90
172	60
173	80
185	40
213	40
293	1942
294	290
295	1942
296	270
