Mass Spectrum: 2-Fluorobenzoic acid, 4-benzyloxyphenyl ester
Formula: C20 H15 F O3
Molecular weight: 322
Origin: Zaikin V.G., TIPS RAS, Moscow, Russia
m/z	RELATIVE INTENSITY
28	10
36	30
65	250
75	140
91	9709
92	761
95	1041
96	70
123	9999
124	751
135	40
322	4984
323	1051
324	120
