Mass Spectrum: m-Anisic acid, 4-methoxyphenyl ester
Formula: C15 H14 O4
Molecular weight: 258
Origin: Zaikin V.G., TIPS RAS, Moscow, Russia
m/z	RELATIVE INTENSITY
41	30
63	70
64	180
65	20
76	70
77	801
78	50
79	40
92	581
93	30
95	60
107	1792
108	140
109	30
119	30
123	140
135	9999
136	921
137	70
258	2352
259	390
260	40
