Mass Spectrum: Benzamide, N-tetrahydrofurfuryl-3-bromo-
Formula: C12 H14 Br N O2
Molecular weight: 283
Origin: Zaikin V.G., TIPS RAS, Moscow, Russia
m/z	RELATIVE INTENSITY
26	40
27	270
28	40
29	170
30	70
36	30
38	30
39	160
40	40
41	651
42	190
43	2522
44	170
50	400
51	140
53	40
54	30
55	60
56	160
69	50
70	200
71	9999
72	430
73	30
74	160
75	801
76	1111
77	270
78	40
79	20
80	60
82	60
83	30
84	4284
85	240
91	30
102	30
103	70
104	190
105	100
116	30
123	70
132	50
133	40
134	310
135	40
155	1411
156	130
157	1411
158	110
182	50
183	1842
184	180
185	1732
186	130
195	40
197	50
200	170
202	160
212	1111
213	1591
214	1301
215	1501
216	220
224	30
226	30
239	30
240	30
241	30
283	50
285	30
