Mass Spectrum: Acetamide, N-(4-methoxyphenyl)-2-phenylthio-
Formula: C15 H15 N O2 S
Molecular weight: 273
Origin: Zaikin V.G., TIPS RAS, Moscow, Russia
m/z	RELATIVE INTENSITY
26	40
27	40
28	10
38	30
39	200
41	200
42	40
43	30
44	40
45	1041
46	40
47	60
50	110
51	380
52	300
53	180
54	30
55	40
62	30
63	140
64	120
65	430
66	150
67	110
69	110
74	30
75	30
76	50
77	681
78	450
79	410
80	310
81	70
82	30
84	50
90	50
91	370
92	190
93	120
94	50
95	581
96	40
97	30
104	60
105	100
106	160
107	130
108	2752
109	621
110	340
111	50
120	120
121	561
122	1742
123	8888
124	1882
125	210
126	60
127	30
132	40
133	120
134	300
135	100
136	1221
137	110
148	70
149	791
150	280
151	30
153	60
154	140
162	50
163	60
164	100
179	30
180	110
199	250
200	30
273	9999
274	1722
275	611
276	80
277	20
