Mass Spectrum: Benzamide, N-tetrahydrofurfuryl-2,3,4-trifluoro-
Formula: C12 H12 F3 N O2
Molecular weight: 259
Origin: Zaikin V.G., TIPS RAS, Moscow, Russia
m/z	RELATIVE INTENSITY
26	30
27	300
28	40
29	190
30	50
39	160
40	30
41	751
42	180
43	2783
44	170
53	40
54	70
55	60
56	130
57	30
61	30
62	50
63	40
68	30
69	50
70	180
71	9999
72	430
75	30
80	40
81	731
82	60
83	40
84	2783
85	160
99	20
112	100
113	50
130	80
131	1802
132	240
138	30
140	40
141	190
145	40
157	30
158	140
159	6416
160	510
161	30
168	30
169	50
170	520
171	100
172	30
173	30
175	30
176	120
188	1121
189	2382
190	520
191	40
200	190
201	70
214	50
215	80
216	70
259	30
260	70
