Mass Spectrum: 5-Bromovaleric acid, 3,4-dichlorophenyl ester
Formula: C11 H11 Br Cl2 O2
Molecular weight: 324
Origin: Zaikin V.G., TIPS RAS, Moscow, Russia
m/z	RELATIVE INTENSITY
27	430
28	240
29	611
39	280
41	370
42	70
53	190
54	30
55	8187
56	360
62	50
63	400
73	200
74	50
75	110
83	751
91	120
97	50
98	120
99	300
100	50
101	70
107	370
109	540
110	100
111	70
119	240
121	70
122	40
126	100
127	40
128	50
133	681
134	90
135	5955
136	290
137	5295
138	220
139	30
145	310
147	180
161	140
162	9729
163	9999
164	7166
165	9308
166	1341
167	90
245	100
247	60
324	721
325	60
326	1181
327	130
328	510
329	40
330	50
