Mass Spectrum: Benzamide, N-(3-nitrophenyl)-2-bromo-
Formula: C13 H9 Br N2 O3
Molecular weight: 320
Origin: Zaikin V.G., TIPS RAS, Moscow, Russia
m/z	RELATIVE INTENSITY
27	30
28	20
30	50
36	30
38	50
39	90
41	30
44	60
50	340
51	200
52	70
62	40
63	190
64	170
65	120
74	120
75	741
76	1011
77	360
78	50
79	50
80	50
82	50
89	30
90	50
91	220
92	100
102	30
103	50
104	200
105	300
106	60
111	160
113	60
115	100
138	70
139	781
140	120
141	230
143	30
144	40
154	30
155	2042
156	170
157	2032
158	140
165	30
166	100
167	80
182	30
183	9999
184	791
185	9799
186	751
187	40
194	30
195	90
199	40
210	30
211	250
212	50
290	70
292	70
320	1251
321	190
322	1241
323	180
