Mass Spectrum: 3-Trifluoromethylbenzoic acid, 3,5-dimethylphenyl ester
Formula: C16 H13 F3 O2
Molecular weight: 294
Origin: Zaikin V.G., TIPS RAS, Moscow, Russia
m/z	RELATIVE INTENSITY
75	40
77	120
91	80
95	150
121	50
125	90
126	110
144	40
145	2632
146	200
173	9999
174	831
175	40
275	140
294	1381
295	220
