Mass Spectrum: 5-Chlorovaleric acid, 4-chlorophenyl ester
Formula: C11 H12 Cl2 O2
Molecular weight: 246
Origin: Zaikin V.G., TIPS RAS, Moscow, Russia
m/z	RELATIVE INTENSITY
26	40
27	360
28	210
29	530
36	70
38	50
39	330
41	220
42	80
49	80
50	70
51	60
53	140
54	30
55	4064
56	190
62	70
63	410
64	130
65	290
73	240
74	30
75	280
76	40
83	160
89	50
91	2813
92	150
93	971
94	60
99	480
100	130
101	160
102	40
111	320
113	100
118	80
119	3633
120	230
121	1181
122	60
125	30
127	140
128	9999
129	781
130	3393
131	230
246	861
247	110
248	561
249	60
250	90
