Mass Spectrum: 2-Fluorobenzoic acid, 4-chlorophenyl ester
Formula: C13 H8 Cl F O2
Molecular weight: 250
Origin: Zaikin V.G., TIPS RAS, Moscow, Russia
m/z	RELATIVE INTENSITY
69	30
73	40
75	350
94	60
95	1351
96	90
99	80
123	9999
124	781
125	40
127	30
250	510
251	70
252	180
253	20
