Mass Spectrum: 2,3,4-Trifluorobenzoic acid, morpholide
Formula: C11 H10 F3 N O2
Molecular weight: 245
Origin: Zaikin V.G., TIPS RAS, Moscow, Russia
m/z	RELATIVE INTENSITY
26	30
27	110
28	20
29	160
30	80
31	30
41	60
42	340
43	30
54	80
55	110
56	1822
57	110
62	50
63	30
70	70
72	240
75	40
80	40
81	841
82	50
86	1211
87	60
99	30
112	90
113	40
130	90
131	2072
132	220
140	40
141	30
145	90
154	220
155	150
158	80
159	9999
160	771
161	40
168	30
171	30
174	40
175	30
182	50
183	40
185	30
186	50
187	30
188	190
195	300
196	621
197	100
198	30
200	40
202	220
203	160
214	240
215	70
216	30
217	80
226	771
227	90
230	1882
231	220
243	20
244	1171
245	2092
246	280
