Mass Spectrum: 1-Naphthoic acid, 3,4-dichlorophenyl ester
Formula: C17 H10 Cl2 O2
Molecular weight: 316
Origin: Zaikin V.G., TIPS RAS, Moscow, Russia
m/z	RELATIVE INTENSITY
75	40
77	160
101	110
126	310
127	3323
128	390
155	9999
156	1211
157	90
316	100
318	60
