Mass Spectrum: 3-Trifluoromethylbenzoic acid, 4-nitrophenyl ester
Formula: C14 H8 F3 N O4
Molecular weight: 311
Origin: Zaikin V.G., TIPS RAS, Moscow, Russia
m/z	RELATIVE INTENSITY
63	40
75	70
95	190
125	130
126	110
144	60
145	2732
146	210
173	9999
174	901
175	50
292	160
