Mass Spectrum: 2-Fluorobenzoic acid, 4-methoxyphenyl ester
Formula: C14 H11 F O3
Molecular weight: 246
Origin: Zaikin V.G., TIPS RAS, Moscow, Russia
m/z	RELATIVE INTENSITY
41	40
75	180
94	40
95	1201
96	80
123	9999
124	811
125	40
246	2272
247	350
