Mass Spectrum: 3,5-Dimethyl-1-dimethylphenylsilyloxybenzene
Formula: C16 H20 O Si
Molecular weight: 256
Origin: Zaikin V.G., TIPS RAS, Moscow, Russia
m/z	RELATIVE INTENSITY
43	30
75	30
77	50
79	50
103	40
105	250
107	80
113	190
114	30
119	130
120	70
121	220
128	80
135	380
137	130
149	90
161	40
162	30
163	1752
164	260
165	140
166	60
177	70
178	40
179	110
223	60
225	30
239	180
240	50
241	9999
242	2252
243	601
244	70
256	6236
257	1401
258	360
259	40
