Mass Spectrum: 1-Cyclohexyldimethylsilyloxy-3-methylbenzene
Formula: C15 H24 O Si
Molecular weight: 248
Origin: Zaikin V.G., TIPS RAS, Moscow, Russia
m/z	RELATIVE INTENSITY
59	170
65	40
75	210
81	40
91	671
92	70
95	30
105	130
109	70
123	20
133	40
135	210
137	40
141	20
149	330
150	60
151	941
152	130
153	30
163	70
164	30
165	9999
166	3693
167	811
168	130
233	210
234	30
248	3553
249	771
250	190
