Mass Spectrum: Benzamide, N-(4-methoxyphenyl)-2,3,4-trifluoro-
Formula: C14 H10 F3 N O2
Molecular weight: 281
Origin: Zaikin V.G., TIPS RAS, Moscow, Russia
m/z	RELATIVE INTENSITY
28	20
39	50
41	140
50	30
51	70
52	200
53	110
62	40
63	80
64	70
65	100
67	50
77	50
78	70
79	110
80	140
81	490
82	30
91	30
92	40
95	561
96	40
106	60
107	90
108	70
109	120
112	60
122	3173
123	350
124	1041
125	80
130	40
131	1571
132	170
134	40
157	30
158	40
159	9999
160	711
161	40
218	30
280	40
281	8358
282	1281
283	130
