Mass Spectrum: 1-Diphenyl(tert-butyl)silyloxy-4-methoxybenzene
Formula: C23 H26 O2 Si
Molecular weight: 362
Origin: Zaikin V.G., TIPS RAS, Moscow, Russia
m/z	RELATIVE INTENSITY
105	50
135	40
153	60
156	30
168	40
180	30
181	190
182	40
183	70
184	150
185	40
197	90
199	90
212	40
227	811
228	160
229	40
234	30
245	30
273	30
290	30
305	9999
306	2762
307	771
308	110
362	1942
363	591
364	150
