Mass Spectrum: 2-Furancarboxamide, N-(1-naphthyl)-
Formula: C15 H11 N O2
Molecular weight: 237
Origin: Zaikin V.G., TIPS RAS, Moscow, Russia
m/z	RELATIVE INTENSITY
28	10
38	40
39	450
50	30
51	80
62	40
63	130
64	30
65	70
67	140
74	30
75	60
76	40
77	70
87	40
88	70
89	190
90	30
94	70
95	9999
96	520
97	50
101	40
113	120
114	210
115	1902
116	320
117	30
126	100
127	220
128	50
140	280
141	150
142	230
143	561
144	2002
145	220
152	60
153	50
154	30
165	60
166	30
169	140
178	40
179	30
180	470
181	140
182	30
183	30
191	40
194	120
195	30
207	30
208	390
209	420
210	60
220	100
236	80
237	9589
238	1491
239	160
