Mass Spectrum: 4-Chloro-1-tripropylsilyloxybenzene
Formula: C15 H25 Cl O Si
Molecular weight: 284
Origin: Zaikin V.G., TIPS RAS, Moscow, Russia
m/z	RELATIVE INTENSITY
45	160
59	40
63	70
71	40
73	90
75	40
77	280
78	40
85	120
86	40
87	30
91	40
93	140
94	30
111	210
112	50
113	200
115	160
121	210
122	30
125	30
135	80
139	30
149	130
155	991
156	110
157	3533
158	390
159	1071
160	110
161	30
169	50
171	1862
172	250
173	671
174	70
183	130
185	60
197	140
198	50
199	9999
200	1571
201	3663
202	510
203	140
213	30
241	7267
242	1471
243	2762
244	470
245	120
284	4234
285	931
286	1551
287	300
288	70
