Mass Spectrum: Benzamide, N-tetrahydrofurfuryl-3-methyl-
Formula: C13 H17 N O2
Molecular weight: 219
Origin: Zaikin V.G., TIPS RAS, Moscow, Russia
m/z	RELATIVE INTENSITY
26	60
27	270
28	40
29	180
30	100
38	30
39	410
40	70
41	721
42	190
43	2102
44	140
50	70
51	140
52	40
53	50
54	30
55	60
56	190
58	40
62	50
63	250
64	90
65	1431
66	90
69	50
70	230
71	7607
72	320
76	30
77	80
82	30
83	50
84	3713
85	230
89	500
90	410
91	5095
92	470
93	190
105	70
116	50
117	70
118	290
119	9999
120	861
121	50
130	40
131	40
132	80
133	30
134	1301
135	180
136	4064
137	360
146	30
147	90
148	8538
149	6746
150	1091
151	80
160	100
161	60
174	30
175	440
176	190
191	50
218	40
219	390
220	150
