Mass Spectrum: Acetoxyacetic acid, 2-naphthyl ester
Formula: C14 H12 O4
Molecular weight: 244
Origin: Zaikin V.G., TIPS RAS, Moscow, Russia
m/z	RELATIVE INTENSITY
28	20
39	60
42	60
43	1812
44	50
50	30
51	40
62	40
63	150
65	90
73	701
74	50
75	50
77	50
87	30
88	50
89	200
91	20
101	861
102	40
113	60
114	90
115	1702
116	350
126	70
127	250
128	50
143	110
144	9999
145	1041
146	60
157	30
244	751
245	110
