Mass Spectrum: Benzamide, N-(3-nitrophenyl)-4-methoxy-
Formula: C14 H12 N2 O4
Molecular weight: 272
Origin: Zaikin V.G., TIPS RAS, Moscow, Russia
m/z	RELATIVE INTENSITY
28	10
38	30
39	60
41	30
50	70
51	70
52	30
53	30
55	30
57	30
63	190
64	310
65	90
75	40
76	130
77	1001
78	90
79	80
80	40
81	30
91	60
92	821
93	70
95	30
104	70
105	40
106	30
107	681
108	80
120	40
121	30
133	40
135	9999
136	861
137	80
138	30
151	50
152	30
171	50
183	30
199	140
225	30
226	30
233	80
242	330
243	60
272	490
273	80
