Mass Spectrum: 4-Chlorobutyric acid, 2-naphthyl ester
Formula: C14 H13 Cl O2
Molecular weight: 248
Origin: Zaikin V.G., TIPS RAS, Moscow, Russia
m/z	RELATIVE INTENSITY
28	10
39	30
41	320
55	30
63	30
65	20
77	150
79	50
89	50
105	180
107	60
115	751
116	220
121	90
123	100
127	140
135	90
143	40
144	9999
145	1211
146	80
149	450
151	440
152	30
248	601
249	80
250	190
