Mass Spectrum: Propanamide, N-(4-bromophenyl)-2-methyl-
Formula: C10 H12 Br N O
Molecular weight: 241
Origin: Zaikin V.G., TIPS RAS, Moscow, Russia
m/z	RELATIVE INTENSITY
26	30
27	400
28	40
37	30
38	100
39	380
40	70
41	861
42	190
43	5835
44	190
46	50
50	140
51	70
52	70
55	110
62	90
63	500
64	400
65	651
66	70
69	50
70	130
71	1551
72	60
74	50
75	200
76	220
77	60
80	50
82	50
90	310
91	831
92	941
93	170
117	90
118	110
119	220
143	240
144	20
145	230
146	30
147	30
155	180
157	170
169	80
170	370
171	9999
172	1071
173	9549
174	701
184	30
197	160
198	210
199	170
200	200
226	30
241	2843
242	360
243	2752
244	340
