Mass Spectrum: 1-Naphthalenecarboxamide, N-(2,5-dimethoxyphenyl)-
Formula: C19 H17 N O3
Molecular weight: 307
Origin: Zaikin V.G., TIPS RAS, Moscow, Russia
m/z	RELATIVE INTENSITY
39	50
50	30
51	110
52	120
53	50
63	40
65	40
66	30
68	60
69	30
74	40
75	100
76	60
77	330
78	50
79	110
80	40
92	30
93	60
94	40
95	60
101	200
102	40
107	60
108	30
109	50
110	40
122	50
123	30
124	30
125	80
126	480
127	5145
128	661
129	30
138	100
139	30
151	30
152	30
153	60
154	70
155	9999
156	1161
157	70
164	40
275	30
276	140
292	30
307	3363
308	691
309	90
