Mass Spectrum: 2-Furoic acid, 4-cyanophenyl ester
Formula: C12 H7 N O3
Molecular weight: 213
Origin: Zaikin V.G., TIPS RAS, Moscow, Russia
m/z	RELATIVE INTENSITY
36	10
37	20
38	70
39	561
40	10
51	50
53	20
63	40
64	50
66	20
67	250
68	10
75	20
76	10
90	60
91	10
95	9999
96	561
97	40
102	30
111	110
112	10
118	10
119	30
213	651
214	80
