Mass Spectrum: Benzamide, N-(4-bromophenyl)-4-trifluoromethyl-
Formula: C14 H9 Br F3 N O
Molecular weight: 343
Origin: Zaikin V.G., TIPS RAS, Moscow, Russia
m/z	RELATIVE INTENSITY
28	10
39	30
50	60
51	30
63	130
64	100
65	70
74	30
75	140
76	70
90	50
91	210
92	40
95	230
119	30
125	170
126	160
143	90
144	60
145	3073
146	240
154	30
170	40
171	120
172	100
173	9999
174	781
175	40
263	80
264	30
324	120
326	120
343	1982
344	330
345	2002
346	310
