Mass Spectrum: 2-Furancarboxamide, N-(4-fluorophenyl)-
Formula: C11 H8 F N O2
Molecular weight: 205
Origin: Zaikin V.G., TIPS RAS, Moscow, Russia
m/z	RELATIVE INTENSITY
28	30
38	80
39	530
51	50
53	30
57	150
63	50
67	160
68	30
75	110
81	40
82	70
83	360
84	70
94	40
95	9999
96	480
97	40
109	70
110	120
111	200
112	130
137	30
148	90
176	40
177	30
204	30
205	5855
206	631
