Mass Spectrum: Benzamide, N-(4-fluorophenyl)-4-ethyl-
Formula: C15 H14 F N O
Molecular weight: 243
Origin: Zaikin V.G., TIPS RAS, Moscow, Russia
m/z	RELATIVE INTENSITY
26	30
27	100
28	30
39	90
50	60
51	140
52	30
53	50
57	70
63	100
64	40
65	90
75	50
76	60
77	751
78	160
79	691
80	40
83	190
84	50
89	170
90	180
91	90
95	30
102	50
103	510
104	200
105	861
106	80
109	20
110	90
111	130
118	40
119	60
131	40
132	50
133	9999
134	801
135	50
185	30
242	30
243	1892
244	310
245	30
