Mass Spectrum: 4-Butylbenzoic acid, 4-benzyloxyphenyl ester
Formula: C24 H24 O3
Molecular weight: 360
Origin: Zaikin V.G., TIPS RAS, Moscow, Russia
m/z	RELATIVE INTENSITY
39	50
41	60
51	40
55	60
63	50
65	250
77	90
78	30
79	30
89	130
90	270
91	2312
92	210
103	80
104	60
105	110
110	30
115	40
117	30
118	180
119	30
131	110
132	20
133	130
159	50
161	9999
162	1181
163	60
360	951
361	250
