Mass Spectrum: 1-Cyano-4-diphenylvinylsilyloxybenzene
Formula: C21 H17 N O Si
Molecular weight: 327
Origin: Zaikin V.G., TIPS RAS, Moscow, Russia
m/z	RELATIVE INTENSITY
45	50
53	30
77	70
102	210
103	50
104	50
105	791
106	100
107	70
125	30
129	30
130	150
131	280
132	40
146	841
147	100
148	30
150	250
151	350
152	100
154	110
155	100
171	310
172	110
177	140
178	160
179	230
180	180
181	751
182	140
183	2923
184	510
185	130
197	70
199	90
206	30
207	190
208	1191
209	9999
210	2112
211	500
212	40
221	40
222	2983
223	1601
224	861
225	150
226	30
248	550
249	3783
250	1521
251	340
252	50
298	110
299	50
300	2492
301	611
302	150
326	120
327	3954
328	1141
329	270
330	30
