Mass Spectrum: 2-Chloropropionic acid, 3,5-dimethylphenyl ester
Formula: C11 H13 Cl O2
Molecular weight: 212
Origin: Zaikin V.G., TIPS RAS, Moscow, Russia
m/z	RELATIVE INTENSITY
27	190
28	30
39	80
41	50
51	60
52	40
53	110
55	120
56	40
63	540
65	200
77	540
78	130
79	250
91	370
92	30
93	100
94	50
103	80
104	60
105	390
106	30
107	1531
108	70
121	641
122	9999
123	861
124	40
149	80
212	921
213	100
214	290
215	30
