Mass Spectrum: m-Anisic acid, 4-cyanophenyl ester
Formula: C15 H11 N O3
Molecular weight: 253
Origin: Zaikin V.G., TIPS RAS, Moscow, Russia
m/z	RELATIVE INTENSITY
39	30
50	30
51	30
63	150
64	340
76	110
77	1001
78	70
79	40
90	30
92	821
93	50
104	20
107	1812
108	130
135	9999
136	941
137	70
253	310
254	50
