Mass Spectrum: 3-Cyclopentylpropionic acid, 3,5-dimethylphenyl ester
Formula: C16 H22 O2
Molecular weight: 246
Origin: Zaikin V.G., TIPS RAS, Moscow, Russia
m/z	RELATIVE INTENSITY
27	70
28	20
29	60
39	110
41	350
43	30
51	30
53	90
54	30
55	851
56	30
65	60
67	170
68	40
69	250
77	270
78	70
79	430
80	110
81	300
82	30
83	60
91	240
92	30
93	70
94	60
95	80
97	180
103	60
104	30
105	100
107	1071
108	110
119	30
121	380
122	9999
123	1001
124	80
125	190
246	150
