Mass Spectrum: p-Anisic acid, 4-cyanophenyl ester
Formula: C15 H11 N O3
Molecular weight: 253
Origin: Zaikin V.G., TIPS RAS, Moscow, Russia
m/z	RELATIVE INTENSITY
28	20
63	70
64	180
76	50
77	701
78	40
79	40
92	500
93	30
104	30
107	601
108	40
135	9999
136	891
137	70
152	40
