Mass Spectrum: Benzamide, N-(4-fluorophenyl)-2-fluoro-
Formula: C13 H9 F2 N O
Molecular weight: 233
Origin: Zaikin V.G., TIPS RAS, Moscow, Russia
m/z	RELATIVE INTENSITY
28	20
50	60
51	50
57	110
63	40
68	30
69	70
74	50
75	530
76	50
81	30
82	50
83	260
84	50
94	120
95	1962
96	170
109	40
110	60
111	140
112	30
122	50
123	9999
124	621
125	30
203	30
232	30
233	4094
234	530
235	40
