Mass Spectrum: Phenylacetic acid, 4-cyanophenyl ester
Formula: C15 H11 N O2
Molecular weight: 237
Origin: Zaikin V.G., TIPS RAS, Moscow, Russia
m/z	RELATIVE INTENSITY
28	10
37	30
38	40
39	300
41	80
50	60
51	130
52	30
62	60
63	260
64	180
65	881
66	40
75	40
89	340
90	591
91	9999
92	731
102	30
118	2873
119	1792
120	140
