Mass Spectrum: 3-Trifluoromethylbenzoic acid, 4-methoxyphenyl ester
Formula: C15 H11 F3 O3
Molecular weight: 296
Origin: Zaikin V.G., TIPS RAS, Moscow, Russia
m/z	RELATIVE INTENSITY
41	50
75	40
95	270
123	210
125	90
126	130
144	40
145	2783
146	220
173	9999
174	891
175	50
277	240
296	2863
297	480
298	50
