Mass Spectrum: 4-Butylbenzoic acid, 3,4-dichlorophenyl ester
Formula: C17 H16 Cl2 O2
Molecular weight: 322
Origin: Zaikin V.G., TIPS RAS, Moscow, Russia
m/z	RELATIVE INTENSITY
28	10
39	30
41	50
51	30
55	50
63	70
65	100
77	110
78	40
79	30
89	150
90	380
91	921
92	80
103	90
104	60
105	90
115	40
117	30
118	330
119	30
131	80
133	210
135	30
159	50
161	9999
162	1071
163	70
164	40
