Mass Spectrum: m-Toluic acid, 3-methylphenyl ester
Formula: C15 H14 O2
Molecular weight: 226
Origin: Zaikin V.G., TIPS RAS, Moscow, Russia
m/z	RELATIVE INTENSITY
28	20
39	140
41	50
50	30
51	80
52	30
53	30
63	100
64	30
65	631
66	30
77	120
78	50
79	60
89	170
90	150
91	2562
92	200
107	100
108	90
118	40
119	9999
120	791
121	40
226	611
227	90
