Mass Spectrum: 4-Chlorobutyric acid, 4-methoxyphenyl ester
Formula: C11 H13 Cl O3
Molecular weight: 228
Origin: Zaikin V.G., TIPS RAS, Moscow, Russia
m/z	RELATIVE INTENSITY
28	10
39	30
41	210
52	30
65	40
77	220
79	80
81	100
92	40
95	100
105	220
107	110
108	40
109	1802
110	120
123	180
124	9999
125	871
126	70
135	30
152	30
228	430
229	40
230	130
