Mass Spectrum: 3-Fluorobenzoic acid, 3-methylphenyl ester
Formula: C14 H11 F O2
Molecular weight: 230
Origin: Zaikin V.G., TIPS RAS, Moscow, Russia
m/z	RELATIVE INTENSITY
27	30
39	80
50	50
51	80
52	30
53	40
63	30
65	50
69	40
74	30
75	360
76	40
77	180
78	70
79	80
91	30
94	90
95	2422
96	170
107	110
108	60
123	9999
124	721
125	40
230	1712
231	270
