Mass Spectrum: Benzamide, N-(1-naphthyl)-4-chloro-
Formula: C17 H12 Cl N O
Molecular weight: 281
Origin: Zaikin V.G., TIPS RAS, Moscow, Russia
m/z	RELATIVE INTENSITY
27	30
28	10
36	80
39	80
41	40
44	80
50	170
51	140
52	40
55	30
56	40
57	70
62	50
63	160
64	40
65	80
74	110
75	751
76	330
77	160
78	40
85	100
86	20
87	60
88	80
89	210
90	40
91	30
101	30
102	30
103	30
104	210
105	80
110	40
111	2793
112	230
113	1041
114	260
115	1441
116	210
126	50
127	80
131	30
138	30
139	9999
140	971
141	3233
142	340
143	330
144	530
145	60
169	30
189	30
281	4154
282	791
283	1361
284	250
285	30
