Mass Spectrum: o-Toluic acid, 3,4-dichlorophenyl ester
Formula: C14 H10 Cl2 O2
Molecular weight: 280
Origin: Zaikin V.G., TIPS RAS, Moscow, Russia
m/z	RELATIVE INTENSITY
28	50
39	120
41	40
51	50
62	30
63	170
64	30
65	641
66	30
73	40
89	180
90	140
91	2672
92	210
99	30
118	40
119	9999
120	831
121	40
133	80
135	50
161	30
162	80
164	50
280	20
