Mass Spectrum: Benzamide, N-(2-iodo-4-methylphenyl)-3-bromo-
Formula: C14 H11 Br I N O
Molecular weight: 415
Origin: Zaikin V.G., TIPS RAS, Moscow, Russia
m/z	RELATIVE INTENSITY
26	30
27	40
28	50
36	30
38	40
39	100
44	60
50	380
51	320
52	190
53	40
62	40
63	130
64	50
65	60
74	140
75	671
76	1491
77	631
78	450
79	200
80	90
81	30
82	90
89	110
90	110
91	40
102	40
103	110
104	1181
105	540
106	180
107	70
127	120
128	200
135	20
152	40
153	30
155	2432
156	210
157	2412
158	170
165	50
166	80
179	30
180	130
181	60
182	30
183	9999
184	791
185	9579
186	751
187	40
231	30
232	691
233	360
234	420
235	20
258	50
259	30
287	40
288	100
289	110
290	170
291	90
292	90
296	200
310	80
337	30
415	7307
416	1181
417	7347
418	1151
419	90
