Mass Spectrum: Phenylacetic acid, 4-benzyloxyphenyl ester
Formula: C21 H18 O3
Molecular weight: 318
Origin: Zaikin V.G., TIPS RAS, Moscow, Russia
m/z	RELATIVE INTENSITY
28	10
36	20
39	110
41	50
44	30
51	60
52	20
55	30
57	30
63	110
64	50
65	611
66	30
81	40
89	200
90	230
91	9999
92	791
93	30
109	40
110	80
118	290
119	60
200	4074
201	601
202	50
318	180
319	40
