Mass Spectrum: Cyclopentanecarboxamide, N-(3-methylphenyl)-
Formula: C13 H17 N O
Molecular weight: 203
Origin: Zaikin V.G., TIPS RAS, Moscow, Russia
m/z	RELATIVE INTENSITY
27	90
28	10
39	220
40	60
41	831
42	50
51	60
52	40
53	70
55	130
63	40
65	180
66	40
67	170
68	60
69	2092
70	110
77	250
78	100
79	170
80	50
89	40
90	30
91	340
92	30
93	40
96	40
97	190
104	60
105	30
106	791
107	9999
108	721
109	30
132	60
133	90
134	120
146	40
162	220
202	40
203	1872
204	270
