Mass Spectrum: Acetamide, N-(3-chlorophenyl)-2-phenyl-
Formula: C14 H12 Cl N O
Molecular weight: 245
Origin: Zaikin V.G., TIPS RAS, Moscow, Russia
m/z	RELATIVE INTENSITY
26	50
27	40
28	70
36	80
38	70
39	400
40	40
41	140
44	50
50	120
51	230
52	80
61	20
62	110
63	480
64	240
65	1631
66	100
73	80
74	40
75	260
76	100
77	80
78	30
89	581
90	1211
91	9999
92	3023
93	230
99	330
100	100
101	110
102	40
105	30
111	581
112	50
113	180
118	5035
119	500
120	30
123	50
125	130
126	490
127	9088
128	791
129	2843
130	200
138	30
140	60
153	581
154	591
155	220
156	180
165	30
180	90
181	40
216	70
227	40
245	5895
246	931
247	1962
248	300
