Mass Spectrum: Octanoic acid, 4-chlorophenyl ester
Formula: C14 H19 Cl O2
Molecular weight: 254
Origin: Zaikin V.G., TIPS RAS, Moscow, Russia
m/z	RELATIVE INTENSITY
26	30
27	330
28	280
29	701
36	30
38	30
39	300
40	50
41	1491
42	310
43	2432
44	80
50	40
51	30
53	70
54	40
55	1371
56	180
57	9999
58	450
59	70
63	140
64	100
65	240
67	340
68	50
69	250
70	100
71	140
73	150
75	180
76	30
81	70
82	140
83	360
84	200
85	40
91	40
93	80
94	30
97	140
98	400
99	420
100	110
101	130
102	30
109	661
110	50
111	340
113	100
125	260
126	30
127	9669
128	8458
129	701
130	2682
131	200
141	30
170	170
172	50
183	40
254	1331
255	230
256	440
257	80
