Mass Spectrum: 2-Furancarboxamide, N-(4-methoxyphenyl)-
Formula: C12 H11 N O3
Molecular weight: 217
Origin: Zaikin V.G., TIPS RAS, Moscow, Russia
m/z	RELATIVE INTENSITY
26	30
28	20
38	70
39	450
41	120
50	30
51	100
52	200
53	130
63	80
64	90
65	100
66	30
67	140
68	30
77	80
78	70
79	100
80	130
81	40
90	30
91	40
92	70
93	30
94	40
95	9719
96	490
97	40
106	70
107	90
108	140
109	160
117	30
122	1912
123	270
124	961
125	70
134	80
145	30
146	80
149	70
160	190
161	80
174	50
188	30
202	150
203	40
216	60
217	9999
218	1181
219	120
