Mass Spectrum: 4-Chlorobenzoic acid, 2-naphthyl ester
Formula: C17 H11 Cl O2
Molecular weight: 282
Origin: Zaikin V.G., TIPS RAS, Moscow, Russia
m/z	RELATIVE INTENSITY
28	10
50	30
63	30
75	260
76	90
89	60
104	80
111	1631
112	120
113	540
114	50
115	510
116	50
127	30
139	9999
140	781
141	3403
142	240
143	30
144	50
282	2122
283	390
284	721
285	110
