Mass Spectrum: Benzamide, N-(4-fluorophenyl)-3-bromo-
Formula: C13 H9 Br F N O
Molecular weight: 293
Origin: Zaikin V.G., TIPS RAS, Moscow, Russia
m/z	RELATIVE INTENSITY
28	40
38	30
39	50
44	40
50	490
51	150
52	40
57	270
62	40
63	100
64	50
65	30
74	210
75	1061
76	1611
77	230
80	60
81	60
82	180
83	751
84	160
89	30
95	100
103	50
104	510
105	110
109	120
110	200
111	410
112	70
129	30
131	30
137	40
154	20
155	2923
156	250
157	2863
158	230
183	9999
184	821
185	9719
186	761
187	40
188	90
213	60
275	30
277	30
293	4474
294	691
295	4314
296	651
297	50
