Mass Spectrum: 4-Ethylbenzoic acid, 3,5-dimethylphenyl ester
Formula: C17 H18 O2
Molecular weight: 254
Origin: Zaikin V.G., TIPS RAS, Moscow, Russia
m/z	RELATIVE INTENSITY
27	80
28	70
39	90
50	30
51	100
52	30
53	70
63	50
65	90
76	30
77	701
78	150
79	671
80	40
89	90
90	100
91	130
102	30
103	370
104	160
105	751
106	70
107	70
121	70
122	90
131	40
132	50
133	9999
134	941
135	60
254	791
255	140
