Mass Spectrum: Chloroacetic acid, morpholide
Formula: C6 H10 Cl N O2
Molecular weight: 163
Origin: Zaikin V.G., TIPS RAS, Moscow, Russia
m/z	RELATIVE INTENSITY
26	300
27	971
28	180
29	1301
30	851
31	180
35	70
36	340
38	110
39	80
40	140
41	731
42	3233
43	721
44	540
45	330
48	90
49	1471
50	60
51	480
52	100
53	30
54	681
55	911
56	5775
57	2172
58	921
59	80
63	50
68	50
69	440
70	3313
71	160
72	320
76	230
77	5345
78	190
79	1762
80	30
82	40
84	340
85	370
86	7116
87	500
88	140
90	60
91	350
92	60
93	100
98	3243
99	220
100	821
101	40
105	490
106	280
107	170
108	80
110	90
114	5265
115	300
119	280
120	230
121	130
122	70
127	50
128	9999
129	731
130	50
133	170
134	270
135	80
136	80
148	3743
149	200
150	1281
151	60
162	90
163	3793
164	320
165	1281
166	80
