Mass Spectrum: Cyclopropanecarboxylic acid, 3,4-dichlorophenyl ester
Formula: C10 H8 Cl2 O2
Molecular weight: 230
Origin: Zaikin V.G., TIPS RAS, Moscow, Russia
m/z	RELATIVE INTENSITY
26	20
27	60
28	10
36	80
37	40
38	100
39	921
40	150
41	3313
42	110
44	30
50	30
55	70
61	60
62	140
63	410
68	80
69	9999
70	420
72	60
73	210
74	90
75	110
83	40
85	40
97	60
98	70
99	160
100	30
101	40
107	50
109	110
111	30
126	30
133	230
135	150
145	50
147	30
161	30
162	200
163	30
164	130
230	300
232	190
