Mass Spectrum: Butyric acid, 4-benzyloxyphenyl ester
Formula: C17 H18 O3
Molecular weight: 270
Origin: Zaikin V.G., TIPS RAS, Moscow, Russia
m/z	RELATIVE INTENSITY
26	30
27	150
28	30
36	60
39	150
41	270
42	30
43	1031
44	90
51	60
52	30
53	30
54	50
55	70
63	100
64	40
65	571
66	30
71	751
77	30
81	50
82	30
89	110
90	60
91	9999
92	821
93	30
109	60
110	130
200	3593
201	520
202	40
270	250
271	40
