Mass Spectrum: trans-3-Trifluoromethylcinnamic acid, 4-chlorophenyl ester
Formula: C16 H10 Cl F3 O2
Molecular weight: 326
Origin: Zaikin V.G., TIPS RAS, Moscow, Russia
m/z	RELATIVE INTENSITY
28	10
75	40
91	180
99	60
101	50
102	220
120	30
127	40
128	60
135	50
145	110
151	1381
152	160
169	60
170	60
171	1742
172	150
199	9999
200	1121
201	60
246	20
307	100
309	30
326	120
328	40
