Mass Spectrum: 3-Methyl-2-butenoic acid, morpholide
Formula: C9 H15 N O2
Molecular weight: 169
Origin: Zaikin V.G., TIPS RAS, Moscow, Russia
m/z	RELATIVE INTENSITY
26	70
27	571
28	40
29	971
30	210
38	70
39	631
40	80
41	220
42	350
43	90
44	110
45	40
50	30
51	70
52	50
53	370
54	230
55	2522
56	771
57	601
58	60
67	110
68	40
69	80
70	190
71	50
72	30
81	30
82	470
83	9999
84	571
85	90
86	881
87	320
88	100
95	40
96	60
110	120
111	80
112	40
114	50
124	130
125	40
126	40
138	210
140	50
153	80
154	2652
155	230
168	30
169	2232
170	230
