Mass Spectrum: Cyclobutanecarboxamide, N-(4-fluorophenyl)-
Formula: C11 H12 F N O
Molecular weight: 193
Origin: Zaikin V.G., TIPS RAS, Moscow, Russia
m/z	RELATIVE INTENSITY
26	50
27	390
28	130
29	340
39	200
50	30
51	40
52	30
53	180
54	90
55	3533
56	150
57	160
63	60
64	40
75	120
81	60
82	120
83	1081
84	240
93	60
95	220
96	50
109	140
110	320
111	9999
112	651
122	40
124	220
136	40
137	130
138	80
165	80
171	40
173	50
193	2202
194	290
