Mass Spectrum: Phenylacetic acid, 3,5-dimethylphenyl ester
Formula: C16 H16 O2
Molecular weight: 240
Origin: Zaikin V.G., TIPS RAS, Moscow, Russia
m/z	RELATIVE INTENSITY
27	50
28	80
39	220
41	90
50	40
51	120
52	50
53	80
63	130
64	40
65	721
66	40
77	350
78	90
79	90
89	250
90	681
91	4944
92	400
93	80
103	40
105	40
107	510
108	30
118	9999
119	851
120	70
121	400
122	3753
123	330
240	240
241	30
