Mass Spectrum: 4-Chloro-1-trihexylsilyloxybenzene
Formula: C24 H43 Cl O Si
Molecular weight: 410
Origin: Zaikin V.G., TIPS RAS, Moscow, Russia
m/z	RELATIVE INTENSITY
43	30
55	70
59	100
71	60
73	50
77	60
83	320
85	731
86	60
87	30
111	110
113	6055
114	691
115	310
121	100
123	30
135	30
149	100
155	540
156	50
157	1281
158	140
159	380
160	30
169	30
171	571
172	60
173	180
183	200
184	30
185	380
186	50
187	100
197	270
199	400
200	30
201	80
209	40
211	400
212	70
213	200
215	30
225	40
239	130
240	30
241	7817
242	1471
243	2923
244	480
245	120
283	80
325	9999
326	2582
327	3994
328	921
329	200
410	3493
411	1081
412	1391
413	390
414	80
