Mass Spectrum: 1-Dimethyldodecylsilyloxy-3-methylbenzene
Formula: C21 H38 O Si
Molecular weight: 334
Origin: Zaikin V.G., TIPS RAS, Moscow, Russia
m/z	RELATIVE INTENSITY
43	40
59	170
75	90
91	440
92	30
99	120
105	130
109	40
113	100
127	50
135	130
137	30
149	230
150	40
151	1621
152	210
153	50
163	60
164	30
165	9999
166	1732
167	440
168	40
177	40
179	30
191	60
193	40
211	210
212	30
319	370
320	80
334	2212
335	571
336	130
