Mass Spectrum: 2-Bromobenzoic acid, 2-naphthyl ester
Formula: C17 H11 Br O2
Molecular weight: 326
Origin: Zaikin V.G., TIPS RAS, Moscow, Russia
m/z	RELATIVE INTENSITY
26	30
28	60
36	50
38	30
39	110
44	90
50	440
51	130
62	90
63	270
64	40
65	180
74	180
75	801
76	1111
77	220
78	30
79	30
80	70
81	20
82	60
86	30
87	70
88	110
89	350
91	150
101	40
103	30
104	330
105	90
113	130
114	150
115	2032
116	250
117	40
126	80
127	130
131	30
139	30
143	50
144	300
145	30
155	1832
156	160
157	1792
158	130
165	40
183	9999
184	771
185	9859
186	741
187	50
189	220
190	50
191	80
200	70
202	140
203	70
204	40
218	160
219	40
246	70
247	30
326	1261
327	230
328	1221
329	220
