Mass Spectrum: 4-Bromobutyric acid, 4-benzyloxyphenyl ester
Formula: C17 H17 Br O3
Molecular weight: 348
Origin: Zaikin V.G., TIPS RAS, Moscow, Russia
m/z	RELATIVE INTENSITY
28	10
36	240
38	40
39	60
41	380
44	110
52	30
55	30
65	300
77	60
79	120
80	230
82	180
91	9999
92	701
107	30
109	60
110	170
121	130
123	130
135	671
144	140
149	300
151	280
152	190
155	60
172	30
200	7507
201	991
202	60
348	120
350	100
