Mass Spectrum: 2-Chloropropionic acid, 3,4-dichlorophenyl ester
Formula: C9 H7 Cl3 O2
Molecular weight: 252
Origin: Zaikin V.G., TIPS RAS, Moscow, Russia
m/z	RELATIVE INTENSITY
27	330
28	60
55	170
56	130
62	110
63	2712
64	100
65	751
72	30
73	190
74	50
75	90
79	20
83	30
85	20
90	591
91	781
92	210
93	240
97	60
98	120
99	360
100	60
101	110
107	60
109	220
110	40
111	50
119	40
124	240
125	30
126	120
127	70
128	40
133	380
134	90
135	260
136	60
137	40
145	330
147	190
161	110
162	9999
163	741
164	6576
165	450
166	1061
167	60
189	60
191	30
252	1281
253	130
254	1221
255	120
256	390
257	30
258	40
