Mass Spectrum: o-Anisic acid, 2-naphthyl ester
Formula: C18 H14 O3
Molecular weight: 278
Origin: Zaikin V.G., TIPS RAS, Moscow, Russia
m/z	RELATIVE INTENSITY
51	30
63	40
64	60
76	30
77	901
78	60
79	80
92	390
105	60
115	270
119	40
120	120
127	40
135	9999
136	921
137	70
144	30
278	731
279	140
