Mass Spectrum: Cyclopentanecarboxylic acid, 3-methylphenyl ester
Formula: C13 H16 O2
Molecular weight: 204
Origin: Zaikin V.G., TIPS RAS, Moscow, Russia
m/z	RELATIVE INTENSITY
27	180
28	160
39	410
40	100
41	1351
42	70
50	30
51	110
52	70
53	160
55	470
63	50
65	260
66	60
67	380
68	400
69	9999
70	550
77	480
78	150
79	390
80	150
81	30
89	50
90	160
91	360
92	30
95	40
96	3813
97	3914
98	250
107	1291
108	3523
109	470
110	30
163	60
204	1822
205	290
