Mass Spectrum: 4-Benzyloxy-1-tributylsilyloxybenzene
Formula: C25 H38 O2 Si
Molecular weight: 398
Origin: Zaikin V.G., TIPS RAS, Moscow, Russia
m/z	RELATIVE INTENSITY
45	70
55	30
59	1001
60	60
65	60
73	260
85	120
87	871
88	70
89	30
91	3773
92	300
99	30
101	1101
102	110
103	40
110	140
113	30
115	50
121	40
133	70
137	80
138	70
139	60
141	40
143	7106
144	1041
145	300
151	40
152	40
165	651
166	130
167	40
179	40
193	130
194	140
195	360
196	50
199	8868
200	1682
201	450
202	30
207	310
208	50
221	100
227	30
229	110
250	80
251	1952
252	390
253	90
257	160
258	30
285	540
286	130
287	40
301	40
307	5405
308	1381
309	360
310	40
341	631
342	180
343	30
398	9999
399	3423
400	891
401	130
