Mass Spectrum: 3-Fluorobenzoic acid, 2-naphthyl ester
Formula: C17 H11 F O2
Molecular weight: 266
Origin: Zaikin V.G., TIPS RAS, Moscow, Russia
m/z	RELATIVE INTENSITY
28	20
39	50
50	50
51	50
62	40
63	120
65	70
69	40
74	50
75	410
76	50
77	20
87	30
88	40
89	160
94	90
95	3073
96	220
113	50
114	60
115	851
116	100
123	9999
124	731
125	40
126	30
127	40
144	120
266	1792
267	330
268	30
