Mass Spectrum: 4-Ethylbenzoic acid, 4-nitrophenyl ester
Formula: C15 H13 N O4
Molecular weight: 271
Origin: Zaikin V.G., TIPS RAS, Moscow, Russia
m/z	RELATIVE INTENSITY
27	70
28	20
30	70
39	60
50	40
51	80
53	30
63	90
64	50
65	60
76	40
77	540
78	110
79	621
80	40
89	110
90	130
91	30
102	30
103	400
104	160
105	921
106	80
118	20
131	30
132	40
133	9999
134	911
135	60
241	30
