Mass Spectrum: 3-Methylbut-2-enoic acid, 3,4-dichlorophenyl ester
Formula: C11 H10 Cl2 O2
Molecular weight: 244
Origin: Zaikin V.G., TIPS RAS, Moscow, Russia
m/z	RELATIVE INTENSITY
27	190
28	190
29	480
39	310
40	30
53	190
54	80
55	1732
56	70
62	30
63	130
67	50
73	70
75	30
82	180
83	9999
84	510
98	30
99	60
109	40
133	140
135	90
161	30
162	170
163	30
164	110
244	100
246	60
