Mass Spectrum: Valeric acid, 2-naphthyl ester
Formula: C15 H16 O2
Molecular weight: 228
Origin: Zaikin V.G., TIPS RAS, Moscow, Russia
m/z	RELATIVE INTENSITY
27	10
28	50
29	140
36	50
39	10
41	170
44	30
55	40
57	500
63	10
65	20
77	10
85	210
89	40
110	30
114	20
115	811
116	230
117	10
119	10
126	20
127	170
128	10
143	40
144	9999
145	1191
146	70
228	821
229	110
