Mass Spectrum: Chloroacetic acid, 2-naphthyl ester
Formula: C12 H9 Cl O2
Molecular weight: 220
Origin: Zaikin V.G., TIPS RAS, Moscow, Russia
m/z	RELATIVE INTENSITY
28	110
35	30
36	270
38	70
39	140
41	30
42	50
44	200
49	220
50	90
51	190
52	30
62	110
63	320
64	80
65	240
74	70
75	100
76	80
77	230
79	120
86	30
87	60
88	100
89	330
90	30
93	30
101	30
109	110
113	120
114	170
115	2462
116	500
117	30
119	130
123	120
124	30
126	80
127	340
128	70
139	210
143	100
144	9999
145	1081
146	60
220	1491
221	190
222	490
223	50
