Mass Spectrum: 3-Fluorobenzoic acid, 3,4-dichlorophenyl ester
Formula: C13 H7 Cl2 F O2
Molecular weight: 284
Origin: Zaikin V.G., TIPS RAS, Moscow, Russia
m/z	RELATIVE INTENSITY
50	50
51	30
62	30
63	110
69	60
73	50
74	50
75	460
76	40
94	100
95	2312
96	180
99	30
109	30
123	9999
124	731
125	40
133	100
135	60
162	60
164	40
284	420
285	60
286	270
287	30
288	40
