Mass Spectrum: 2-Trifluoromethylbenzoic acid, 3,4-dichlorophenyl ester
Formula: C14 H7 Cl2 F3 O2
Molecular weight: 334
Origin: Zaikin V.G., TIPS RAS, Moscow, Russia
m/z	RELATIVE INTENSITY
63	50
75	80
95	200
125	120
126	70
133	90
135	50
144	40
145	2192
146	160
151	40
173	9999
174	891
175	50
334	160
336	90
