Mass Spectrum: Acetoxyacetic acid, 4-benzyloxyphenyl ester
Formula: C17 H16 O5
Molecular weight: 300
Origin: Zaikin V.G., TIPS RAS, Moscow, Russia
m/z	RELATIVE INTENSITY
28	10
36	50
39	90
41	30
42	50
43	1231
44	60
51	50
52	30
54	30
63	80
64	40
65	540
73	430
81	50
82	30
89	110
90	70
91	9999
92	791
93	30
101	350
109	50
110	120
144	30
200	3433
201	500
202	50
300	350
301	60
