Mass Spectrum: 1-Naphthalenecarboxamide, N-(4-bromophenyl)-
Formula: C17 H12 Br N O
Molecular weight: 325
Origin: Zaikin V.G., TIPS RAS, Moscow, Russia
m/z	RELATIVE INTENSITY
39	40
50	50
51	90
62	30
63	170
64	90
65	70
74	70
75	170
76	100
77	400
78	30
87	30
90	50
91	180
92	50
100	30
101	290
102	40
125	40
126	721
127	5045
128	631
129	30
143	40
145	40
153	30
154	40
155	9999
156	1161
157	80
161	30
170	40
171	80
173	70
216	40
217	80
245	60
246	30
325	1141
326	220
327	1111
328	210
