Mass Spectrum: 4-Butylbenzoic acid, 3,5-dimethylphenyl ester
Formula: C19 H22 O2
Molecular weight: 282
Origin: Zaikin V.G., TIPS RAS, Moscow, Russia
m/z	RELATIVE INTENSITY
28	20
39	40
41	40
51	30
53	30
55	50
63	30
65	120
77	210
78	60
79	60
89	150
90	440
91	1041
92	100
103	120
104	80
105	120
107	50
115	50
117	30
118	410
119	50
121	50
122	60
131	100
132	20
133	150
159	40
161	9999
162	1121
163	70
239	30
282	400
283	80
