Mass Spectrum: p-Toluic acid, 4-nitrophenyl ester
Formula: C14 H11 N O4
Molecular weight: 257
Origin: Zaikin V.G., TIPS RAS, Moscow, Russia
m/z	RELATIVE INTENSITY
39	60
41	30
51	30
63	80
64	40
65	530
89	140
90	120
91	2342
92	170
118	50
119	9999
120	921
121	50
