Mass Spectrum: 2,6-Difluorobenzoic acid, 3,4-dichlorophenyl ester
Formula: C13 H6 Cl2 F2 O2
Molecular weight: 302
Origin: Zaikin V.G., TIPS RAS, Moscow, Russia
m/z	RELATIVE INTENSITY
28	20
62	50
63	370
73	40
74	30
93	40
112	50
113	921
114	70
133	90
135	60
140	30
141	9999
142	671
143	40
162	40
164	20
302	260
303	30
304	180
306	20
