Mass Spectrum: 1-Adamantanecarboxylic acid , 4-benzyloxyphenyl ester
Formula: C24 H26 O3
Molecular weight: 362
Origin: Zaikin V.G., TIPS RAS, Moscow, Russia
m/z	RELATIVE INTENSITY
41	50
55	80
65	90
67	170
69	40
77	80
79	500
80	30
81	140
91	1301
92	140
93	520
94	40
105	30
107	280
133	30
135	9999
136	1111
137	50
163	280
334	851
335	210
362	951
363	240
