Mass Spectrum: Acetamide, N-(2,5-dimethoxyphenyl)-2,2,2-trifluoro-
Formula: C10 H10 F3 N O3
Molecular weight: 249
Origin: Zaikin V.G., TIPS RAS, Moscow, Russia
m/z	RELATIVE INTENSITY
28	90
38	30
39	150
40	30
41	40
44	40
50	70
51	200
52	240
53	140
54	80
55	60
62	20
63	70
64	40
65	130
66	100
67	50
68	220
69	450
76	60
77	90
78	160
79	370
80	120
81	60
82	70
83	40
90	40
92	70
93	130
94	160
95	120
96	50
106	180
107	240
108	130
109	250
110	80
111	771
112	50
120	70
121	60
122	220
123	60
124	50
125	100
134	30
135	60
136	220
137	250
138	60
139	931
140	80
150	681
151	180
152	120
158	60
162	30
163	50
164	601
165	3473
166	340
167	40
170	30
174	70
175	50
179	190
180	110
186	130
187	40
191	60
199	40
202	70
203	90
206	330
215	100
216	40
218	70
230	150
234	9719
235	1001
236	100
249	9999
250	1141
251	120
