Mass Spectrum: 3-Fluorobenzoic acid, 4-nitrophenyl ester
Formula: C13 H8 F N O4
Molecular weight: 261
Origin: Zaikin V.G., TIPS RAS, Moscow, Russia
m/z	RELATIVE INTENSITY
30	40
50	60
51	30
63	80
64	50
69	50
74	30
75	390
76	50
94	100
95	2322
96	160
122	30
123	9999
124	701
125	40
261	30
