Mass Spectrum: Benzamide, N-(4-fluorophenyl)-2-bromo-
Formula: C13 H9 Br F N O
Molecular weight: 293
Origin: Zaikin V.G., TIPS RAS, Moscow, Russia
m/z	RELATIVE INTENSITY
28	10
38	30
39	50
44	30
50	420
51	200
52	30
57	230
62	40
63	90
64	40
74	160
75	931
76	1181
77	500
78	40
80	50
81	60
82	170
83	601
84	100
89	30
93	40
95	130
103	30
104	160
105	410
106	30
109	130
110	160
111	290
112	40
129	20
131	30
133	30
137	50
155	2062
156	190
157	2022
158	190
170	30
182	30
183	9919
184	871
185	9999
186	771
187	40
213	340
214	130
293	3353
294	500
295	3263
296	470
297	30
