Mass Spectrum: Benzamide, N-(3-methylphenyl)-2-methyl-
Formula: C15 H15 N O
Molecular weight: 225
Origin: Zaikin V.G., TIPS RAS, Moscow, Russia
m/z	RELATIVE INTENSITY
26	30
27	40
28	70
39	190
41	70
50	40
51	120
52	50
53	30
63	130
64	50
65	761
66	50
77	220
78	90
79	100
89	220
90	200
91	3113
92	260
104	30
106	140
107	160
111	30
118	100
119	9999
120	751
121	40
132	40
180	50
208	400
209	50
224	30
225	2562
226	410
227	40
