Mass Spectrum: Benzamide, N-(2,5-dimethoxyphenyl)-4-nitro-
Formula: C15 H14 N2 O5
Molecular weight: 302
Origin: Zaikin V.G., TIPS RAS, Moscow, Russia
m/z	RELATIVE INTENSITY
27	30
28	20
30	60
39	90
41	70
44	20
50	210
51	120
52	180
53	80
54	30
55	30
63	80
64	120
65	150
66	50
67	40
68	80
69	60
74	50
75	280
76	1161
77	200
78	70
79	200
80	100
81	50
82	40
90	50
91	30
92	801
93	210
94	50
95	260
96	40
103	80
104	2502
105	260
106	80
107	170
108	120
109	190
110	100
111	30
120	911
121	120
122	1241
123	220
124	410
125	350
126	30
134	170
135	50
136	80
137	30
138	340
139	460
140	40
150	9308
151	791
152	220
153	120
154	160
155	30
164	70
165	30
167	30
170	40
197	30
198	40
210	20
213	130
225	250
226	100
241	50
242	50
255	110
256	160
257	30
259	70
270	30
271	470
272	1591
273	270
274	30
286	70
287	3453
288	591
289	70
302	9999
303	1682
304	240
