Mass Spectrum: 3-Phenylpropionic acid, 3-methylphenyl ester
Formula: C16 H16 O2
Molecular weight: 240
Origin: Zaikin V.G., TIPS RAS, Moscow, Russia
m/z	RELATIVE INTENSITY
27	30
28	20
39	50
51	70
65	220
77	470
78	150
79	400
80	60
89	30
90	60
91	3193
92	230
103	280
104	360
105	2963
106	230
107	460
108	9999
109	811
110	40
131	350
132	290
133	1111
134	100
240	821
241	130
