Mass Spectrum: Hexanamide, N-(1-naphthyl)-
Formula: C16 H19 N O
Molecular weight: 241
Origin: Zaikin V.G., TIPS RAS, Moscow, Russia
m/z	RELATIVE INTENSITY
27	70
29	110
39	50
41	160
43	500
55	100
63	30
71	130
77	30
89	60
99	70
113	30
114	80
115	931
116	260
117	40
126	50
127	190
128	60
140	110
141	120
142	200
143	9999
144	1121
145	60
169	80
170	60
184	80
185	70
241	1762
242	310
