Mass Spectrum: 1-Cyano-4-diphenyl(tert-butyl)silyloxybenzene
Formula: C23 H23 N O Si
Molecular weight: 357
Origin: Zaikin V.G., TIPS RAS, Moscow, Russia
m/z	RELATIVE INTENSITY
105	40
146	30
151	100
177	50
178	50
181	150
182	30
183	30
222	1351
223	300
224	70
238	50
300	9999
301	2813
302	741
303	100
357	60
