Mass Spectrum: o-Anisic acid, 3,5-dimethylphenyl ester
Formula: C16 H16 O3
Molecular weight: 256
Origin: Zaikin V.G., TIPS RAS, Moscow, Russia
m/z	RELATIVE INTENSITY
51	50
63	30
64	80
76	30
77	911
78	70
79	80
91	50
92	370
93	30
105	70
120	100
121	50
135	9999
136	871
137	70
256	200
257	30
