Mass Spectrum: Benzamide, N-(4-fluorophenyl)-3-fluoro-
Formula: C13 H9 F2 N O
Molecular weight: 233
Origin: Zaikin V.G., TIPS RAS, Moscow, Russia
m/z	RELATIVE INTENSITY
28	10
39	30
50	80
51	60
57	150
63	60
68	30
69	90
74	60
75	651
76	70
81	40
82	60
83	370
84	80
94	140
95	3693
96	290
109	60
110	90
111	210
112	40
122	40
123	9999
124	671
125	30
232	40
233	4564
234	641
235	50
