Mass Spectrum: 4-Fluorobenzoic acid, 3,5-dimethylphenyl ester
Formula: C15 H13 F O2
Molecular weight: 244
Origin: Zaikin V.G., TIPS RAS, Moscow, Russia
m/z	RELATIVE INTENSITY
27	30
28	20
39	60
50	50
51	70
52	20
53	50
65	50
69	40
74	30
75	350
76	40
77	180
78	50
79	30
91	160
92	30
93	30
94	90
95	1992
96	160
107	60
121	70
122	70
123	9999
124	681
125	40
244	1031
245	160
