Mass Spectrum: Nicotinic acid, 3,4-dichlorophenyl ester
Formula: C12 H7 Cl2 N O2
Molecular weight: 267
Origin: Zaikin V.G., TIPS RAS, Moscow, Russia
m/z	RELATIVE INTENSITY
50	50
51	550
52	40
63	60
77	30
78	2682
79	160
106	9999
107	711
108	40
133	90
135	50
161	30
162	60
164	30
267	731
268	90
269	460
270	50
271	60
