Mass Spectrum: trans-3-Trifluoromethylcinnamic acid, 4-nitrophenyl ester
Formula: C16 H10 F3 N O4
Molecular weight: 337
Origin: Zaikin V.G., TIPS RAS, Moscow, Russia
m/z	RELATIVE INTENSITY
28	10
36	20
91	90
102	190
108	30
109	90
119	30
135	60
145	100
151	1381
152	170
169	60
170	70
171	1792
172	130
199	9999
200	1111
201	40
318	70
