Mass Spectrum: 1-Adamantanecarboxylic acid, 4-methoxyphenyl ester
Formula: C18 H22 O3
Molecular weight: 286
Origin: Zaikin V.G., TIPS RAS, Moscow, Russia
m/z	RELATIVE INTENSITY
41	130
53	40
55	120
65	40
67	260
69	50
77	170
79	791
80	60
81	210
91	270
92	70
93	781
94	50
95	50
105	60
107	410
109	190
123	130
124	440
133	40
135	9999
136	1061
137	40
163	250
258	370
259	60
286	520
287	90
