Mass Spectrum: o-Anisic acid, 3-methylphenyl ester
Formula: C15 H14 O3
Molecular weight: 242
Origin: Zaikin V.G., TIPS RAS, Moscow, Russia
m/z	RELATIVE INTENSITY
51	70
63	50
64	100
76	40
77	1031
78	80
79	110
91	30
92	430
105	60
107	40
120	110
135	9999
136	891
137	70
242	100
