Mass Spectrum: Hexanamide, N-(3-nitrophenyl)-
Formula: C12 H16 N2 O3
Molecular weight: 236
Origin: Zaikin V.G., TIPS RAS, Moscow, Russia
m/z	RELATIVE INTENSITY
26	50
27	400
28	250
29	621
30	70
36	40
38	60
39	390
40	60
41	971
42	430
43	4624
44	200
50	130
51	100
52	140
53	110
54	70
55	761
56	70
57	50
62	40
63	260
64	350
65	591
66	100
67	30
69	180
70	100
71	2492
72	140
74	30
75	170
76	430
77	100
78	70
79	90
80	300
81	120
83	40
90	170
91	320
92	1281
93	240
97	30
98	90
99	2853
100	190
104	70
105	110
106	70
107	50
108	991
109	120
110	30
117	30
118	70
119	90
120	50
122	240
123	90
124	30
132	30
133	160
134	60
135	30
137	210
138	9999
139	781
140	60
146	30
147	40
150	50
151	40
159	50
161	30
162	30
163	380
164	70
165	380
166	30
171	30
173	30
179	100
180	1902
181	190
193	100
206	230
207	110
221	30
235	40
236	641
237	140
