Mass Spectrum: Cyclopentanecarboxamide, N-(1-naphthyl)-
Formula: C16 H17 N O
Molecular weight: 239
Origin: Zaikin V.G., TIPS RAS, Moscow, Russia
m/z	RELATIVE INTENSITY
27	40
28	10
39	120
40	30
41	651
42	30
55	80
63	50
65	50
67	130
68	30
69	1541
70	80
77	40
88	20
89	80
97	140
99	30
113	50
114	100
115	951
116	260
117	40
126	60
127	200
128	60
140	130
141	90
142	180
143	9999
144	1011
145	50
169	110
170	70
198	50
239	1782
240	310
241	30
