Mass Spectrum: 1-(3-Cyanopropyl)dimethylsilyloxy-3-methylbenzene
Formula: C13 H19 N O Si
Molecular weight: 233
Origin: Zaikin V.G., TIPS RAS, Moscow, Russia
m/z	RELATIVE INTENSITY
43	30
59	150
65	160
70	50
75	360
77	70
79	60
82	320
83	30
84	20
89	80
91	1321
92	100
95	70
98	1812
99	180
100	90
102	90
103	40
105	360
109	130
126	5285
127	641
128	200
135	380
136	40
137	40
145	50
147	30
148	40
149	2212
150	300
151	160
163	230
164	1421
165	9999
166	1551
167	430
177	220
190	761
191	80
205	831
206	110
207	30
218	651
219	80
233	3723
234	681
235	170
