Mass Spectrum: 6-Chlorohexanoic acid, 3-methylphenyl ester
Formula: C13 H17 Cl O2
Molecular weight: 240
Origin: Zaikin V.G., TIPS RAS, Moscow, Russia
m/z	RELATIVE INTENSITY
27	40
28	20
39	50
41	390
42	30
43	210
53	30
55	160
63	60
65	60
69	1692
70	90
77	170
78	30
79	150
80	70
90	70
91	150
97	40
105	50
107	561
108	9999
109	971
110	50
133	721
134	40
135	230
240	641
241	90
242	210
