Mass Spectrum: Butyric acid, 3,5-dimethylphenyl ester
Formula: C12 H16 O2
Molecular weight: 192
Origin: Zaikin V.G., TIPS RAS, Moscow, Russia
m/z	RELATIVE INTENSITY
26	30
27	400
28	10
29	30
36	50
39	340
40	50
41	540
42	50
43	1892
44	100
50	60
51	170
52	100
53	210
55	150
63	70
65	180
66	30
67	40
69	30
70	30
71	741
77	791
78	190
79	350
81	30
91	470
92	60
93	100
94	60
103	100
104	60
105	200
107	1692
108	130
120	30
121	641
122	9999
123	931
124	60
192	821
193	90
