Mass Spectrum: 4-Methoxy-1-trihexylsilyloxybenzene
Formula: C25 H46 O2 Si
Molecular weight: 406
Origin: Zaikin V.G., TIPS RAS, Moscow, Russia
m/z	RELATIVE INTENSITY
59	80
73	60
83	100
85	300
99	50
101	30
107	30
108	40
109	170
111	40
113	2402
114	290
115	180
121	60
123	30
129	30
151	470
152	60
153	1311
154	170
155	50
165	40
167	380
168	40
179	190
181	360
182	40
193	80
195	180
197	30
199	90
205	60
235	120
236	50
237	7417
238	1471
239	390
240	40
278	20
321	1852
322	550
323	140
406	9999
407	3313
408	891
409	140
