Mass Spectrum: 2,6-Difluorobenzoic acid, 4-chlorophenyl ester
Formula: C13 H7 Cl F2 O2
Molecular weight: 268
Origin: Zaikin V.G., TIPS RAS, Moscow, Russia
m/z	RELATIVE INTENSITY
28	40
39	30
50	30
62	60
63	460
64	40
73	100
74	30
75	70
93	60
94	30
99	140
101	40
112	70
113	1121
114	90
127	50
128	50
140	30
141	9999
142	761
143	40
268	450
269	60
270	140
