Mass Spectrum: Cyclopropanecarboxamide, N-(4-bromophenyl)-
Formula: C10 H10 Br N O
Molecular weight: 239
Origin: Zaikin V.G., TIPS RAS, Moscow, Russia
m/z	RELATIVE INTENSITY
26	40
27	80
28	10
37	40
38	130
39	801
40	170
41	2342
42	90
45	20
50	130
51	80
52	70
55	80
61	30
62	100
63	460
64	340
65	500
66	80
68	150
69	5625
70	240
74	60
75	170
76	190
77	70
79	80
80	190
81	30
82	90
89	30
90	230
91	591
92	550
93	120
104	40
105	40
117	120
119	90
130	120
131	30
133	40
143	230
144	30
145	230
155	130
157	130
158	30
159	90
169	40
170	150
171	9999
172	801
173	9639
174	631
184	130
186	110
197	60
198	40
199	60
200	30
239	2783
240	320
241	2732
242	300
