Mass Spectrum: 2-Chlorobenzoic acid, 4-methoxyphenyl ester
Formula: C14 H11 Cl O3
Molecular weight: 262
Origin: Zaikin V.G., TIPS RAS, Moscow, Russia
m/z	RELATIVE INTENSITY
41	60
50	50
51	40
52	40
65	30
75	370
76	120
80	30
85	30
95	130
104	40
110	20
111	1421
112	100
113	480
123	220
139	9999
140	801
141	3363
142	240
262	1561
263	220
264	530
265	70
