Mass Spectrum: Benzamide, N-(1-naphthyl)-2-methoxy-
Formula: C18 H15 N O2
Molecular weight: 277
Origin: Zaikin V.G., TIPS RAS, Moscow, Russia
m/z	RELATIVE INTENSITY
28	10
39	30
51	60
63	90
64	120
65	60
75	30
76	60
77	1051
78	80
79	90
88	30
89	80
92	641
93	50
105	70
113	50
114	100
115	651
116	110
120	140
121	70
127	60
135	9999
136	771
137	60
140	110
141	60
142	60
143	320
144	80
169	40
217	30
277	3433
278	691
279	70
