Mass Spectrum: trans-3-Trifluoromethylcinnamic acid, 3,4-dichlorophenyl ester
Formula: C16 H9 Cl2 F3 O2
Molecular weight: 360
Origin: Zaikin V.G., TIPS RAS, Moscow, Russia
m/z	RELATIVE INTENSITY
63	40
75	40
91	40
95	40
101	30
102	220
120	40
133	50
135	40
145	120
151	1381
152	170
161	30
169	80
170	80
171	1692
172	140
199	9999
200	1081
201	60
341	70
343	70
360	40
362	30
