Mass Spectrum: Benzamide, N-(4-methoxyphenyl)-3-fluoro-
Formula: C14 H12 F N O2
Molecular weight: 245
Origin: Zaikin V.G., TIPS RAS, Moscow, Russia
m/z	RELATIVE INTENSITY
28	10
39	60
41	120
50	70
51	90
52	190
53	110
63	70
64	70
65	90
67	30
68	30
69	50
74	40
75	430
76	50
77	50
78	70
79	100
80	130
81	40
91	30
92	40
93	20
94	100
95	3163
96	260
106	60
107	60
108	100
109	110
121	30
122	1161
123	9999
124	1211
125	80
134	60
149	30
172	30
185	30
200	30
201	30
244	40
245	6956
246	1071
247	110
