Mass Spectrum: Benzamide, N-tetrahydrofurfuryl-2-methyl-
Formula: C13 H17 N O2
Molecular weight: 219
Origin: Zaikin V.G., TIPS RAS, Moscow, Russia
m/z	RELATIVE INTENSITY
26	100
27	370
28	50
29	260
30	130
31	30
38	40
39	520
40	80
41	801
42	200
43	2072
44	80
50	80
51	200
52	50
53	60
54	30
55	80
56	200
57	30
58	30
62	60
63	290
64	110
65	1481
66	90
67	30
69	50
70	180
71	7076
72	310
75	30
76	30
77	130
78	30
82	30
83	50
84	4154
85	320
89	571
90	651
91	4614
92	430
93	120
103	30
104	50
105	100
116	90
117	80
118	1752
119	9999
120	811
121	50
130	40
131	30
132	70
133	40
134	661
135	110
136	3423
137	300
146	60
147	60
148	1912
149	4274
150	681
151	50
160	80
161	40
174	20
175	160
176	100
191	30
204	100
219	300
220	70
