Mass Spectrum: Benzamide, N-tetrahydrofurfuryl-4-nitro-
Formula: C12 H14 N2 O4
Molecular weight: 250
Origin: Zaikin V.G., TIPS RAS, Moscow, Russia
m/z	RELATIVE INTENSITY
27	200
28	20
29	120
30	80
39	120
41	550
42	130
43	2082
44	110
50	270
51	90
53	30
54	40
55	50
56	110
63	60
64	90
65	80
69	30
70	90
71	9999
72	440
73	30
74	80
75	290
76	921
77	160
78	30
83	30
84	1631
85	110
92	360
93	30
100	60
103	100
104	1221
105	150
106	40
120	360
121	70
122	30
133	160
134	140
135	60
136	90
137	30
149	40
150	1431
151	701
152	60
162	80
163	170
164	30
167	70
179	550
180	691
181	110
191	90
192	40
205	30
207	30
221	230
222	30
251	40
