Mass Spectrum: Nicotinic acid, 4-methoxyphenyl ester
Formula: C13 H11 N O3
Molecular weight: 229
Origin: Zaikin V.G., TIPS RAS, Moscow, Russia
m/z	RELATIVE INTENSITY
41	70
50	30
51	410
52	80
65	30
77	40
78	2742
79	170
80	30
95	160
106	9999
107	671
108	40
109	80
123	270
124	70
229	3753
230	540
231	40
