Mass Spectrum: 4-Fluorobenzoic acid, 4-benzyloxyphenyl ester
Formula: C20 H15 F O3
Molecular weight: 322
Origin: Zaikin V.G., TIPS RAS, Moscow, Russia
m/z	RELATIVE INTENSITY
39	90
41	30
50	50
51	80
52	30
54	50
63	100
64	40
65	561
66	30
69	30
74	30
75	380
76	40
89	110
90	70
91	9769
92	791
93	30
94	90
95	2342
96	170
110	60
122	30
123	9999
124	781
125	30
322	2903
323	651
324	80
