Mass Spectrum: Benzamide, N-(3-chlorophenyl)-4-fluoro-
Formula: C13 H9 Cl F N O
Molecular weight: 249
Origin: Zaikin V.G., TIPS RAS, Moscow, Russia
m/z	RELATIVE INTENSITY
28	10
39	40
50	60
51	40
63	90
64	50
65	40
69	60
73	40
74	50
75	500
76	50
90	30
91	50
92	30
94	110
95	2402
96	200
99	120
101	40
111	30
122	30
123	9999
124	681
125	50
127	180
129	50
185	50
249	2312
250	340
251	741
252	110
