Mass Spectrum: 6-Bromohexanoic acid, 2-naphthyl ester
Formula: C16 H17 Br O2
Molecular weight: 320
Origin: Zaikin V.G., TIPS RAS, Moscow, Russia
m/z	RELATIVE INTENSITY
28	40
36	40
41	250
43	40
44	40
55	110
69	581
91	60
97	30
115	591
116	150
127	140
144	9999
145	1201
146	70
155	50
172	60
177	110
179	100
200	30
320	250
321	30
322	250
