Mass Spectrum: Benzamide, N-(2,5-dimethoxyphenyl)-2-methoxy-
Formula: C16 H17 N O4
Molecular weight: 287
Origin: Zaikin V.G., TIPS RAS, Moscow, Russia
m/z	RELATIVE INTENSITY
28	40
39	50
50	30
51	80
52	70
53	40
63	60
64	100
65	60
68	40
76	50
77	961
78	100
79	150
80	30
92	530
93	90
94	30
95	50
105	90
106	30
107	60
108	30
109	30
120	120
121	70
122	50
123	50
124	20
125	40
135	9999
136	781
137	80
138	120
139	30
150	20
151	50
152	50
153	70
154	30
241	30
256	380
257	80
272	110
287	4624
288	791
289	100
