Mass Spectrum: 4-Benzyloxy-1-diphenylmethylsilyloxybenzene
Formula: C26 H24 O2 Si
Molecular weight: 396
Origin: Zaikin V.G., TIPS RAS, Moscow, Russia
m/z	RELATIVE INTENSITY
28	30
36	40
44	40
65	40
91	1291
92	90
93	30
105	180
119	140
165	80
181	170
182	30
193	30
195	340
196	80
197	9999
198	1892
199	530
200	50
227	90
228	40
290	90
291	50
305	2182
306	611
307	150
317	80
318	40
355	30
381	120
395	90
396	4544
397	1481
398	400
399	50
