Mass Spectrum: Acetamide, N-(2-iodo-4-methylphenyl)-2,2-dichloro-
Formula: C9 H8 Cl2 I N O
Molecular weight: 343
Origin: Zaikin V.G., TIPS RAS, Moscow, Russia
m/z	RELATIVE INTENSITY
26	40
27	80
28	10
35	30
36	250
38	170
39	280
40	40
41	40
47	30
48	80
49	30
50	270
51	641
52	480
53	80
54	40
61	20
62	110
63	380
64	160
65	170
66	30
74	90
75	130
76	290
77	1081
78	1071
79	280
83	220
85	140
87	30
88	40
89	761
90	1611
91	240
102	90
103	150
104	1782
105	1501
106	340
107	70
116	180
117	480
118	200
125	30
127	210
128	290
130	70
132	110
133	1281
134	160
138	30
145	140
146	981
147	100
152	30
153	40
165	30
180	380
181	460
182	160
183	150
204	40
216	120
217	1001
218	150
230	150
231	80
232	5155
233	911
234	480
235	30
242	30
243	40
244	50
258	80
259	260
260	9268
261	851
262	50
272	50
273	30
307	30
309	90
343	9999
344	1051
345	6686
346	651
347	1041
348	100
