Mass Spectrum: Cyclopropanecarboxylic acid, 3,5-dimethylphenyl ester
Formula: C12 H14 O2
Molecular weight: 190
Origin: Zaikin V.G., TIPS RAS, Moscow, Russia
m/z	RELATIVE INTENSITY
27	180
38	60
39	841
40	120
41	2592
42	80
50	60
51	200
52	100
53	230
55	130
63	80
65	200
66	30
67	30
68	60
69	9999
70	430
77	791
78	190
79	230
89	30
91	581
92	70
93	110
94	30
103	90
104	30
105	160
107	731
108	60
119	30
121	470
122	1882
123	170
147	150
161	100
162	140
190	2272
191	280
