Mass Spectrum: 6-Chlorohexanoic acid, 4-cyanophenyl ester
Formula: C13 H14 Cl N O2
Molecular weight: 251
Origin: Zaikin V.G., TIPS RAS, Moscow, Russia
m/z	RELATIVE INTENSITY
27	130
28	40
29	100
36	50
39	150
41	1571
42	200
43	831
44	20
51	30
53	40
55	621
60	90
63	320
64	100
65	70
67	90
68	40
69	8277
70	440
75	70
77	50
79	30
83	120
90	240
91	110
97	280
102	250
103	30
105	310
107	90
108	80
109	30
111	40
116	70
117	100
118	50
119	641
120	130
122	90
124	50
128	80
132	40
133	9999
134	651
135	3383
136	200
144	30
155	40
161	110
172	100
177	40
179	40
