Mass Spectrum: Acetamide, N-(2,5-dimethoxyphenyl)-2-phenylthio-
Formula: C16 H17 N O3 S
Molecular weight: 303
Origin: Zaikin V.G., TIPS RAS, Moscow, Russia
m/z	RELATIVE INTENSITY
27	30
28	10
36	20
39	170
41	60
42	30
43	30
44	40
45	761
46	30
47	40
50	80
51	260
52	210
53	90
54	30
55	40
63	70
64	40
65	270
66	130
67	70
68	120
69	120
76	40
77	410
78	230
79	390
80	120
81	60
82	60
84	30
90	60
91	190
92	160
93	160
94	80
95	260
96	30
105	60
106	60
107	240
108	190
109	370
110	500
111	70
120	30
121	270
122	350
123	1351
124	581
125	240
126	30
134	70
135	110
136	230
137	60
138	4994
139	460
140	40
148	50
149	30
150	490
151	591
152	340
153	3203
154	350
155	30
162	160
163	400
164	691
165	1061
166	390
167	40
168	30
171	30
178	160
179	1181
180	470
181	50
184	30
192	30
193	40
194	40
195	40
210	40
214	30
229	60
272	110
273	30
288	70
303	9999
304	1872
305	661
306	100
