Mass Spectrum: 4-Butylbenzoic acid, 4-chlorophenyl ester
Formula: C17 H17 Cl O2
Molecular weight: 288
Origin: Zaikin V.G., TIPS RAS, Moscow, Russia
m/z	RELATIVE INTENSITY
27	20
28	10
29	20
39	50
41	60
51	40
55	60
63	60
64	30
65	140
76	30
77	130
78	50
79	40
89	200
90	500
91	1141
92	100
99	60
102	30
103	130
104	90
105	120
115	70
117	30
118	430
119	40
127	40
128	100
130	30
131	100
132	30
133	200
159	50
161	9999
162	1071
163	70
288	30
