Mass Spectrum: Benzamide, N-(2,5-dimethoxyphenyl)-2-fluoro-
Formula: C15 H14 F N O3
Molecular weight: 275
Origin: Zaikin V.G., TIPS RAS, Moscow, Russia
m/z	RELATIVE INTENSITY
28	10
39	30
50	30
51	50
52	70
53	30
65	30
68	60
69	40
75	200
76	30
79	80
80	30
92	30
93	50
94	90
95	1261
96	130
107	50
108	40
109	50
110	30
111	30
122	100
123	9999
124	691
125	110
136	40
138	200
139	150
150	30
152	60
153	40
154	80
164	30
229	30
232	50
244	591
245	100
260	1441
261	240
275	5765
276	851
277	100
