Mass Spectrum: Cyclopentanecarboxylic acid, 4-methoxyphenyl ester
Formula: C13 H16 O3
Molecular weight: 220
Origin: Zaikin V.G., TIPS RAS, Moscow, Russia
m/z	RELATIVE INTENSITY
27	70
28	60
39	150
40	40
41	731
42	30
51	30
52	50
53	80
54	40
55	160
63	40
64	40
65	80
67	180
68	70
69	2863
70	160
77	60
80	30
81	170
92	60
95	160
96	90
97	390
107	30
109	1341
110	120
123	220
124	9999
125	811
126	60
220	871
221	140
