Mass Spectrum: trans-Cinnamamide, N-(4-methoxyphenyl)-3-trifluoromethyl-
Formula: C17 H14 F3 N O2
Molecular weight: 321
Origin: Zaikin V.G., TIPS RAS, Moscow, Russia
m/z	RELATIVE INTENSITY
26	30
28	20
39	60
41	130
50	50
51	100
52	170
53	110
63	70
64	50
65	100
67	40
69	30
74	30
75	90
76	60
77	80
78	60
79	100
80	180
81	50
91	30
92	50
95	530
96	40
101	80
102	450
103	50
106	50
107	100
108	1762
109	220
120	90
121	30
122	901
123	9999
124	821
125	100
126	50
127	30
134	50
145	240
146	30
149	40
151	2412
152	320
169	150
170	210
171	2392
172	270
180	30
198	40
199	5455
200	561
201	40
277	30
302	420
303	70
320	50
321	4724
322	901
323	100
