Mass Spectrum: 2-Bromobenzoic acid, 4-chlorophenyl ester
Formula: C13 H8 Br Cl O2
Molecular weight: 310
Origin: Zaikin V.G., TIPS RAS, Moscow, Russia
m/z	RELATIVE INTENSITY
28	10
38	50
39	70
50	450
51	80
62	40
63	160
64	60
65	50
73	170
74	160
75	871
76	1011
77	100
80	30
82	30
99	280
100	30
101	90
104	240
105	20
111	40
127	110
128	170
129	60
130	60
131	30
139	100
140	30
155	1611
156	140
157	1591
158	110
168	50
183	9999
184	771
185	9519
186	751
187	40
202	30
310	190
312	250
313	30
314	60
