Mass Spectrum: 2-Furoic acid, 4-nitrophenyl ester
Formula: C11 H7 N O5
Molecular weight: 233
Origin: Zaikin V.G., TIPS RAS, Moscow, Russia
m/z	RELATIVE INTENSITY
30	10
36	20
38	50
39	400
44	10
50	10
51	30
53	10
63	50
64	30
65	10
66	10
67	200
75	10
76	10
83	10
91	50
95	9999
96	561
97	40
111	330
112	30
113	10
233	450
234	140
235	10
