Mass Spectrum: 1-Naphthoic acid, 3,5-dimethylphenyl ester
Formula: C19 H16 O2
Molecular weight: 276
Origin: Zaikin V.G., TIPS RAS, Moscow, Russia
m/z	RELATIVE INTENSITY
77	150
101	70
126	200
127	2652
128	310
155	9999
156	1161
157	70
161	40
276	561
277	100
