Mass Spectrum: 2-Chlorobenzoic acid, 2-naphthyl ester
Formula: C17 H11 Cl O2
Molecular weight: 282
Origin: Zaikin V.G., TIPS RAS, Moscow, Russia
m/z	RELATIVE INTENSITY
50	30
51	20
63	40
65	30
75	380
76	110
89	80
104	30
111	1631
112	110
113	550
114	50
115	611
116	40
127	40
139	9999
140	811
141	3413
142	250
143	30
144	30
189	40
199	30
282	1902
283	340
284	641
285	100
