Mass Spectrum: Cyclobutanecarboxylic acid, 3,5-dimethylphenyl ester
Formula: C13 H16 O2
Molecular weight: 204
Origin: Zaikin V.G., TIPS RAS, Moscow, Russia
m/z	RELATIVE INTENSITY
26	50
27	581
28	190
29	480
36	30
39	390
40	40
41	90
50	40
51	140
52	80
53	380
54	220
55	7427
56	340
63	50
65	150
67	30
77	761
78	180
79	320
81	30
82	340
83	3563
84	190
91	510
92	70
93	120
94	170
103	120
104	60
105	440
106	40
107	1251
108	100
119	50
120	40
121	821
122	9999
123	941
124	50
133	120
135	210
148	130
176	90
204	4494
205	641
206	50
