Mass Spectrum: 4-Ethylbenzoic acid, 3,4-dichlorophenyl ester
Formula: C15 H12 Cl2 O2
Molecular weight: 294
Origin: Zaikin V.G., TIPS RAS, Moscow, Russia
m/z	RELATIVE INTENSITY
27	70
28	70
36	20
39	70
50	50
51	110
53	40
62	30
63	150
64	20
65	60
73	40
75	30
76	40
77	581
78	120
79	631
80	30
89	120
90	120
91	30
99	30
102	30
103	370
104	140
105	831
106	70
132	40
133	9999
134	941
135	60
162	70
164	40
294	40
296	30
