Mass Spectrum: 6-Bromohexanoic acid, 4-methoxyphenyl ester
Formula: C13 H17 Br O3
Molecular weight: 300
Origin: Zaikin V.G., TIPS RAS, Moscow, Russia
m/z	RELATIVE INTENSITY
28	90
41	230
43	40
55	80
65	20
69	510
77	20
81	60
95	80
109	941
110	70
123	120
124	9999
125	881
126	70
166	30
177	50
179	50
300	170
302	170
