Mass Spectrum: 1-Dimethylphenylsilyloxy-4-methoxybenzene
Formula: C15 H18 O2 Si
Molecular weight: 258
Origin: Zaikin V.G., TIPS RAS, Moscow, Russia
m/z	RELATIVE INTENSITY
43	120
77	60
91	120
92	50
93	40
105	230
106	40
107	260
109	50
119	120
120	40
121	170
122	460
123	40
133	40
135	2913
136	390
137	210
145	60
150	20
151	80
152	40
157	40
165	1101
166	150
167	40
172	30
179	60
181	200
182	40
183	90
184	180
185	160
197	60
198	20
200	30
211	70
213	30
227	60
228	70
241	140
243	9348
244	1912
245	490
246	40
258	9999
259	2092
260	581
261	50
