Mass Spectrum: Octanoic acid, 3,5-dimethylphenyl ester
Formula: C16 H24 O2
Molecular weight: 248
Origin: Zaikin V.G., TIPS RAS, Moscow, Russia
m/z	RELATIVE INTENSITY
27	60
29	110
39	50
41	230
42	40
43	280
53	40
55	190
57	841
58	30
65	30
67	40
77	190
78	40
79	90
83	30
91	120
93	40
103	30
105	70
107	410
108	50
109	30
121	280
122	9999
123	1031
124	70
127	190
248	470
249	70
