Mass Spectrum: Benzamide, N-(2-iodo-4-methylphenyl)-2-methyl-
Formula: C15 H14 I N O
Molecular weight: 351
Origin: Zaikin V.G., TIPS RAS, Moscow, Russia
m/z	RELATIVE INTENSITY
26	30
27	30
28	50
39	130
41	60
50	50
51	130
52	80
57	30
63	110
64	40
65	520
66	30
76	40
77	170
78	160
79	60
89	200
90	200
91	2362
92	200
103	30
104	260
105	180
106	50
118	60
119	9999
120	731
121	40
127	70
128	110
171	30
223	40
224	50
225	30
232	60
233	110
334	30
351	2913
352	480
353	40
