Mass Spectrum: 1-Naphthoic acid, 3-methylphenyl ester
Formula: C18 H14 O2
Molecular weight: 262
Origin: Zaikin V.G., TIPS RAS, Moscow, Russia
m/z	RELATIVE INTENSITY
75	30
77	170
101	90
126	250
127	2943
128	360
155	9999
156	1221
157	80
262	520
263	100
