Mass Spectrum: Benzamide, N-(3-chlorophenyl)-4-bromo-
Formula: C13 H9 Br Cl N O
Molecular weight: 309
Origin: Zaikin V.G., TIPS RAS, Moscow, Russia
m/z	RELATIVE INTENSITY
28	10
36	40
38	50
39	70
50	390
51	120
52	30
62	40
63	180
64	120
65	100
73	80
74	170
75	941
76	1221
77	170
80	40
82	40
90	80
91	130
92	50
99	290
100	40
101	90
103	40
104	561
105	100
111	60
126	40
127	280
128	40
129	90
137	100
138	110
139	40
154	40
155	2242
156	250
157	2102
158	160
166	60
167	80
183	9999
184	781
185	9489
186	751
187	40
201	40
229	30
309	2442
310	370
311	3123
312	460
313	811
314	110
