Mass Spectrum: Isonicotinamide, N-(2,5-dimethoxyphenyl)-
Formula: C14 H14 N2 O3
Molecular weight: 258
Origin: Zaikin V.G., TIPS RAS, Moscow, Russia
m/z	RELATIVE INTENSITY
26	30
27	30
28	50
39	130
41	50
50	150
51	1001
52	380
53	140
54	60
55	40
63	40
64	30
65	150
66	90
67	70
68	190
69	100
76	50
77	120
78	3203
79	581
80	150
81	70
82	70
90	40
92	180
93	240
94	90
95	210
96	20
105	60
106	8628
107	811
108	180
109	230
110	150
111	40
121	30
122	230
123	110
124	220
125	380
135	30
136	110
138	290
139	641
140	50
150	140
151	50
152	100
153	50
154	90
156	30
164	180
165	70
183	30
211	40
212	60
215	110
226	50
227	581
228	80
243	4094
244	621
245	60
258	9999
259	1571
260	170
