Mass Spectrum: Benzamide, N-(2-iodo-4-methylphenyl)-2-methoxy-
Formula: C15 H14 I N O2
Molecular weight: 367
Origin: Zaikin V.G., TIPS RAS, Moscow, Russia
m/z	RELATIVE INTENSITY
28	30
39	50
50	50
51	120
52	50
63	80
64	100
65	50
76	80
77	1011
78	180
79	110
90	30
92	440
93	50
104	170
105	210
106	60
120	110
121	70
127	50
128	90
135	9999
136	731
137	60
225	40
232	70
233	170
240	60
241	60
367	3693
368	571
369	60
