Mass Spectrum: Benzamide, N-(2,5-dimethoxyphenyl)-4-fluoro-
Formula: C15 H14 F N O3
Molecular weight: 275
Origin: Zaikin V.G., TIPS RAS, Moscow, Russia
m/z	RELATIVE INTENSITY
28	10
39	40
50	30
51	50
52	70
53	30
65	30
68	60
69	40
75	210
76	30
79	70
80	40
92	30
93	50
94	80
95	1912
96	170
107	60
108	40
109	50
110	30
122	80
123	9999
124	721
125	110
136	30
138	210
139	100
151	30
152	50
153	30
154	80
164	30
229	30
232	20
243	40
244	440
245	80
260	851
261	130
275	6035
276	941
277	110
