Mass Spectrum: 4-Bromobutyric acid, 2-naphthyl ester
Formula: C14 H13 Br O2
Molecular weight: 292
Origin: Zaikin V.G., TIPS RAS, Moscow, Russia
m/z	RELATIVE INTENSITY
28	10
36	40
39	30
41	280
77	30
79	30
80	40
82	40
89	50
91	80
115	781
116	210
121	100
123	100
127	140
135	90
143	30
144	9999
145	1181
146	70
149	160
151	150
152	30
200	30
292	350
293	30
294	340
295	30
