Mass Spectrum: Benzamide, N-(3-nitrophenyl)-2,3,4-trifluoro-
Formula: C13 H7 F3 N2 O3
Molecular weight: 296
Origin: Zaikin V.G., TIPS RAS, Moscow, Russia
m/z	RELATIVE INTENSITY
28	10
39	30
62	40
63	90
64	80
65	50
75	30
81	360
91	50
92	30
112	50
130	40
131	1431
132	110
135	30
138	30
159	9999
160	661
161	30
249	30
250	70
266	50
296	2082
297	310
298	30
