Mass Spectrum: Benzamide, N-(4-methoxyphenyl)-4-fluoro-
Formula: C14 H12 F N O2
Molecular weight: 245
Origin: Zaikin V.G., TIPS RAS, Moscow, Russia
m/z	RELATIVE INTENSITY
28	20
39	50
41	100
50	60
51	80
52	160
53	90
63	60
64	50
65	80
69	50
74	40
75	400
76	40
77	30
78	50
79	70
80	100
81	30
91	40
92	30
94	90
95	2622
96	220
106	40
107	40
108	80
109	80
122	450
123	9999
124	911
125	60
134	30
212	50
244	40
245	5375
246	841
247	80
