Mass Spectrum: Benzamide, N-(3-methylphenyl)-2-methoxy-
Formula: C15 H15 N O2
Molecular weight: 241
Origin: Zaikin V.G., TIPS RAS, Moscow, Russia
m/z	RELATIVE INTENSITY
28	10
39	50
50	40
51	90
52	30
53	30
63	70
64	120
65	80
76	60
77	1081
78	140
79	140
91	70
92	561
93	50
104	30
105	100
106	150
107	240
120	190
121	110
133	30
135	9999
136	731
137	60
225	30
241	3053
242	460
243	40
