Mass Spectrum: Bromoacetic acid, 4-methoxyphenyl ester
Formula: C9 H9 Br O3
Molecular weight: 244
Origin: Zaikin V.G., TIPS RAS, Moscow, Russia
m/z	RELATIVE INTENSITY
28	20
36	50
39	70
41	120
42	40
51	50
52	130
53	40
54	70
63	60
64	80
65	110
77	60
79	100
80	120
81	160
82	80
92	60
93	100
95	380
107	50
108	50
109	2322
110	150
115	50
119	200
121	90
123	651
124	9999
125	731
126	50
128	110
130	40
144	330
244	731
245	60
246	731
247	60
