Mass Spectrum: Acetamide, 1-acetoxy-1-phenyl-2-propyl-
Formula: C13 H17 N O3
Molecular weight: 235
Origin: T.Kraemer ET AL., J.Chrom., B, 738,107 (2000)
m/z	RELATIVE INTENSITY
52	130
56	110
57	150
60	70
63	150
65	170
72	641
73	220
77	1381
78	260
79	791
86	9999
87	2412
88	110
89	220
90	150
91	500
105	811
107	1311
108	220
115	500
116	150
117	440
118	170
119	110
129	771
130	90
132	170
133	350
134	701
175	180
176	500
