Mass Spectrum: Butanamide, N,N-bis(2-ethylhexyl)-
Formula: C20 H41 N O
Molecular weight: 311
Origin: Zaikin V.G., TIPS RAS, Moscow, Russia
m/z	RELATIVE INTENSITY
26	70
27	190
28	70
29	180
30	180
39	200
40	40
41	711
42	240
43	1161
44	1061
45	30
51	30
53	60
54	50
55	440
56	220
57	520
58	50
60	30
67	60
68	50
69	240
70	270
71	941
72	110
73	130
79	40
81	40
82	50
83	50
84	170
85	50
86	60
87	40
88	130
91	30
96	30
98	120
100	190
101	120
102	30
111	50
112	160
113	30
114	190
115	90
126	80
127	40
128	100
140	200
141	40
142	9999
143	1041
144	50
154	120
156	420
157	40
168	50
170	410
171	50
182	40
183	40
184	120
196	50
198	40
200	110
210	40
212	1591
213	230
240	100
254	50
268	621
269	110
282	60
