Mass Spectrum: Acetoxyacetamide, N,N-dihexyl-
Formula: C16 H31 N O3
Molecular weight: 285
Origin: Zaikin V.G., TIPS RAS, Moscow, Russia
m/z	RELATIVE INTENSITY
26	30
27	130
29	210
30	210
36	20
39	80
40	20
41	470
42	280
43	3553
44	721
45	20
53	20
54	20
55	350
56	190
57	360
58	70
60	40
67	30
68	20
69	80
70	230
71	110
72	80
73	1081
74	120
76	20
82	40
83	60
84	170
85	771
86	80
87	20
88	40
96	20
97	20
98	160
99	80
100	90
101	2302
102	130
103	70
111	20
112	851
113	180
114	9999
115	671
116	30
126	360
127	100
128	731
129	60
130	40
140	230
141	40
142	490
143	40
144	130
145	20
154	1321
155	270
156	90
158	70
159	90
160	150
168	230
169	60
170	50
172	130
173	30
182	170
183	30
184	210
185	20
186	40
196	40
200	110
210	70
212	2532
213	350
214	370
215	50
225	20
228	30
242	450
243	90
256	30
