Mass Spectrum: Benzamide, N,N-dioctyl-2,3,4-trifluoro-
Formula: C23 H36 F3 N O
Molecular weight: 399
Origin: Zaikin V.G., TIPS RAS, Moscow, Russia
m/z	RELATIVE INTENSITY
27	50
28	30
29	90
30	30
39	40
41	210
42	110
43	220
44	90
55	170
56	90
57	140
69	150
70	60
71	40
81	40
84	40
131	260
132	50
140	150
141	50
142	70
159	9999
160	611
161	40
168	30
170	50
176	120
182	100
183	40
184	70
188	220
189	180
190	70
196	60
197	40
202	1641
203	450
204	40
216	110
217	50
224	30
230	190
231	40
238	30
240	60
244	150
245	30
258	60
268	40
271	60
272	30
280	180
281	70
282	50
286	220
287	50
288	170
294	170
295	40
300	2863
301	801
302	110
314	340
315	90
328	140
329	30
342	70
356	80
370	60
379	40
380	160
381	40
384	30
398	190
399	1011
400	250
401	30
