Mass Spectrum: Benzamide, N-heptyl-N-octyl-2-trifluoromethyl-
Formula: C23 H36 F3 N O
Molecular weight: 399
Origin: Zaikin V.G., TIPS RAS, Moscow, Russia
m/z	RELATIVE INTENSITY
26	40
27	90
28	40
29	100
39	90
41	290
42	160
43	240
44	80
50	30
55	200
56	110
57	140
67	30
69	90
70	70
71	30
75	30
84	60
95	60
96	40
98	30
125	50
126	110
127	50
130	120
140	30
144	30
145	1121
146	170
148	100
150	30
154	70
162	50
170	90
172	50
173	9999
174	721
175	40
182	150
183	50
190	70
196	60
197	40
202	170
203	110
216	711
217	370
218	50
230	160
231	50
232	110
244	130
245	40
246	130
258	170
259	30
260	40
272	80
286	50
288	50
300	450
301	180
302	50
314	470
315	160
328	180
329	40
330	921
331	210
342	130
343	30
356	90
370	80
380	70
398	410
399	320
400	70
