Mass Spectrum: Bromoacetamide, N-ethyl-N-(3-methylphenyl)-
Formula: C11 H14 Br N O
Molecular weight: 255
Origin: Zaikin V.G., TIPS RAS, Moscow, Russia
m/z	RELATIVE INTENSITY
28	140
44	160
45	50
51	50
52	60
65	510
72	50
73	30
77	350
78	120
79	350
80	380
81	30
82	380
90	30
91	2352
92	220
93	90
104	110
105	140
106	300
107	671
108	180
110	50
111	100
117	80
118	1151
119	901
120	8117
121	891
122	190
123	561
132	440
133	250
134	6055
135	961
136	30
146	60
148	1571
150	1411
152	110
161	230
162	681
168	470
175	100
176	9999
177	1191
178	40
227	771
229	701
255	4294
256	520
257	4334
258	410
