Mass Spectrum: Propanamide, N,N-dihexyl-2,2-dimethyl-
Formula: C17 H35 N O
Molecular weight: 269
Origin: Zaikin V.G., TIPS RAS, Moscow, Russia
m/z	RELATIVE INTENSITY
28	60
29	150
30	170
36	60
41	410
42	100
43	2742
44	751
55	230
56	120
57	7827
58	410
69	90
70	90
72	70
73	100
83	40
84	100
85	9999
86	661
87	190
98	60
100	140
101	40
102	30
112	160
114	1712
115	480
126	40
128	1892
129	400
130	60
140	90
142	1591
143	380
156	370
157	80
170	410
184	1291
185	270
186	120
198	3633
199	540
212	8478
213	1271
214	120
226	210
240	110
241	30
254	410
255	40
268	110
269	1451
270	500
271	40
