Mass Spectrum: Acetoxyacetamide, N,N-dioctyl-
Formula: C20 H39 N O3
Molecular weight: 341
Origin: Zaikin V.G., TIPS RAS, Moscow, Russia
m/z	RELATIVE INTENSITY
26	30
27	80
28	60
29	150
30	150
36	30
39	60
41	410
42	190
43	1842
44	661
45	20
53	20
54	30
55	360
56	200
57	881
58	90
60	60
67	50
68	40
69	280
70	230
71	701
72	90
73	771
74	100
76	20
81	40
82	40
83	70
84	160
85	150
86	50
87	20
88	40
95	20
96	40
97	40
98	170
99	80
100	40
101	1932
102	140
103	50
109	10
110	50
111	30
112	270
113	110
114	30
116	10
124	20
126	310
127	110
128	100
130	40
138	20
140	941
141	160
142	9999
143	961
144	150
145	20
154	270
155	70
156	791
157	80
158	30
168	290
169	50
170	801
171	90
172	300
173	30
182	2462
183	480
184	150
186	110
187	90
188	270
189	30
196	370
197	110
198	80
200	190
201	40
210	200
211	60
212	170
213	20
214	40
224	90
225	20
226	70
228	180
229	20
230	30
238	270
239	50
240	370
241	60
242	571
243	100
244	20
245	30
252	110
253	20
254	40
256	100
266	180
267	30
268	6696
269	1221
270	360
271	40
282	40
284	160
285	30
298	1011
299	250
300	30
312	40
326	50
340	50
341	40
342	60
