Mass Spectrum: Isonicotinamide, N,N-dibutyl-
Formula: C14 H22 N2 O
Molecular weight: 234
Origin: Zaikin V.G., TIPS RAS, Moscow, Russia
m/z	RELATIVE INTENSITY
25	50
26	320
27	801
28	390
29	981
30	310
35	40
36	270
37	40
38	190
39	480
40	100
41	1061
42	801
43	490
44	651
49	40
50	340
51	1461
52	280
53	120
54	80
55	310
56	250
57	310
65	60
67	40
68	40
69	70
70	120
71	30
73	50
75	40
76	50
77	130
78	3713
79	550
80	80
82	40
84	230
86	80
91	30
92	100
93	40
100	150
105	70
106	9999
107	751
108	60
112	40
114	170
119	40
120	70
121	70
123	80
128	40
133	30
135	490
136	280
137	30
140	50
142	350
147	50
149	1241
150	290
156	190
162	30
163	40
177	160
179	30
191	2662
192	460
193	30
205	210
219	30
233	500
234	651
235	90
