Mass Spectrum: Benzamide, N-(2-fluorophenyl)-2,3,4-trifluoro-
Formula: C13 H7 F4 N O
Molecular weight: 269
Origin: Zaikin V.G., TIPS RAS, Moscow, Russia
m/z	RELATIVE INTENSITY
28	20
36	50
44	30
57	110
62	40
63	40
75	60
81	591
82	70
83	240
84	30
95	30
110	30
111	120
112	100
123	30
130	50
131	1832
132	170
159	9999
160	701
161	40
176	90
269	3363
270	490
271	30
