Mass Spectrum: Benzamide, N-ethyl-N-(3-methylphenyl)-4-trifluoromethyl-
Formula: C17 H16 F3 N O
Molecular weight: 307
Origin: Zaikin V.G., TIPS RAS, Moscow, Russia
m/z	RELATIVE INTENSITY
42	30
65	70
91	240
95	80
108	30
118	170
119	380
120	50
125	40
126	70
132	40
133	40
134	941
135	80
145	2883
146	230
154	40
172	651
173	9999
174	971
175	50
200	1902
201	200
215	30
279	811
280	130
288	270
289	30
292	250
293	30
306	3493
307	7507
308	1531
309	140
