Mass Spectrum: Bromoacetamide, N,N-didecyl-
Formula: C22 H44 Br N O
Molecular weight: 417
Origin: Zaikin V.G., TIPS RAS, Moscow, Russia
m/z	RELATIVE INTENSITY
28	30
30	90
36	50
41	120
42	30
43	330
44	701
55	250
56	80
57	380
58	60
69	190
70	70
71	170
72	110
73	40
80	30
81	30
83	220
84	80
85	150
86	130
87	50
95	40
97	120
98	50
112	60
114	40
120	40
126	80
128	50
135	50
140	40
150	40
152	120
154	90
156	140
158	80
164	1882
165	80
166	1872
167	80
168	170
170	2332
171	280
182	70
183	40
184	390
185	40
196	70
198	781
199	100
200	80
210	110
212	4094
213	621
214	70
224	50
226	170
238	60
240	140
248	70
250	50
252	30
254	70
268	50
276	40
278	230
280	180
282	30
290	1862
291	260
292	1842
293	260
294	40
296	561
297	110
304	80
306	90
310	130
318	130
320	110
322	150
324	7957
325	1902
326	190
332	50
334	50
336	30
338	9999
339	2482
340	270
346	30
352	90
366	60
374	30
402	320
403	50
404	320
405	60
416	40
418	70
