Mass Spectrum: 2,3,4-Trifluorobenzoic acid, 4-cyanophenyl ester
Formula: C14 H6 F3 N O2
Molecular weight: 277
Origin: Zaikin V.G., TIPS RAS, Moscow, Russia
m/z	RELATIVE INTENSITY
39	40
62	40
63	60
64	70
75	40
81	571
90	90
91	30
112	40
118	50
119	60
130	50
131	1391
132	110
159	9999
160	681
161	40
277	110
