Mass Spectrum: Pentanamide, N,N-diheptyl-
Formula: C19 H39 N O
Molecular weight: 297
Origin: Zaikin V.G., TIPS RAS, Moscow, Russia
m/z	RELATIVE INTENSITY
29	120
30	140
41	230
42	30
43	210
44	861
55	180
56	50
57	1021
58	90
69	30
70	50
72	50
73	160
84	50
85	520
86	160
87	280
98	40
100	150
101	110
102	40
112	30
114	310
115	110
126	90
128	9999
129	991
130	30
141	40
142	761
143	80
154	40
156	1191
157	320
158	50
170	2793
171	440
184	500
185	60
198	360
199	60
200	100
212	871
213	160
226	250
227	30
240	4484
241	741
242	50
254	170
255	300
256	40
268	1081
269	190
282	100
296	90
297	350
298	200
