Mass Spectrum: 1-Naphthamide, N,N-dinonyl-
Formula: C29 H45 N O
Molecular weight: 423
Origin: Zaikin V.G., TIPS RAS, Moscow, Russia
m/z	RELATIVE INTENSITY
26	120
27	210
28	70
29	190
30	50
38	30
39	210
40	50
41	490
42	270
43	500
44	180
50	70
51	70
53	40
54	40
55	330
56	220
57	180
63	70
64	30
67	50
68	30
69	130
70	150
71	60
74	60
75	70
76	50
77	120
78	30
81	30
83	50
84	110
85	40
96	30
98	50
99	30
101	80
102	60
112	40
115	70
126	340
127	2632
128	831
129	140
133	30
139	20
140	30
141	230
142	70
152	40
153	100
154	240
155	9999
156	1281
157	110
165	30
166	30
167	30
168	30
169	40
170	70
171	210
172	340
173	40
182	130
183	70
184	400
185	300
186	40
191	40
196	100
197	40
198	350
199	210
210	30
212	140
213	70
226	140
227	50
238	30
240	220
241	60
252	30
254	150
255	50
268	140
269	30
282	50
296	260
297	180
298	80
308	130
309	60
310	1261
311	881
312	210
313	20
322	30
324	180
325	90
338	300
339	90
352	220
353	70
366	230
367	80
380	210
381	70
394	140
395	40
408	40
421	30
422	2042
423	2382
424	761
425	130
