Mass Spectrum: Benzamide, N,N-dioctyl-4-ethyl-
Formula: C25 H43 N O
Molecular weight: 373
Origin: Zaikin V.G., TIPS RAS, Moscow, Russia
m/z	RELATIVE INTENSITY
26	80
27	220
28	90
29	240
30	60
39	180
40	30
41	500
42	260
43	490
44	220
50	30
51	50
53	40
54	30
55	230
56	170
57	200
58	50
65	30
67	30
69	90
70	100
71	40
77	230
78	70
79	350
84	70
89	40
90	60
91	100
98	40
103	210
104	150
105	601
106	60
112	40
118	40
119	80
131	80
132	110
133	9999
134	961
135	80
140	130
142	80
148	30
150	60
156	130
162	180
163	190
174	30
176	380
177	230
190	130
191	60
204	140
205	50
216	30
218	270
219	60
230	40
232	110
240	50
245	50
246	40
260	140
261	40
262	40
268	50
272	30
274	1111
275	370
276	50
288	150
289	30
302	180
303	40
316	110
330	150
331	30
344	110
358	40
372	1271
373	1051
374	280
375	30
