Mass Spectrum: Cyclopentanecarboxamide, N-(2-fluorophenyl)-
Formula: C12 H14 F N O
Molecular weight: 207
Origin: Zaikin V.G., TIPS RAS, Moscow, Russia
m/z	RELATIVE INTENSITY
26	160
27	430
28	30
29	70
35	30
36	220
37	40
38	180
39	821
40	240
41	2372
42	180
43	50
44	90
50	100
51	120
52	110
53	180
54	60
55	510
56	50
57	320
58	40
62	60
63	180
64	190
65	230
66	100
67	631
68	380
69	5945
70	350
72	30
73	80
74	40
75	180
76	30
77	70
79	70
81	100
82	150
83	951
84	400
85	50
86	40
89	40
90	210
91	240
92	60
93	40
94	60
95	240
96	490
97	641
98	50
108	20
109	200
110	510
111	9999
112	871
113	30
118	20
122	100
124	50
128	30
130	50
133	20
135	140
136	40
137	150
138	140
146	20
148	40
150	100
156	30
159	40
166	230
167	20
207	641
208	90
