Mass Spectrum: 2,3,4-Trifluorobenzoic acid, 3-methylphenyl ester
Formula: C14 H9 F3 O2
Molecular weight: 266
Origin: Zaikin V.G., TIPS RAS, Moscow, Russia
m/z	RELATIVE INTENSITY
27	30
39	80
51	70
52	40
53	50
62	30
63	40
65	40
77	190
78	70
79	80
81	460
107	60
108	30
112	40
130	40
131	1381
132	110
159	9999
160	721
161	40
266	1491
267	230
