Mass Spectrum: (Phenylthio)acetic acid, (4-methoxyphenyl)methyl ester
Formula: C16 H16 O3 S
Molecular weight: 288
Origin: Zaikin V.G., TIPS RAS, Moscow, Russia
m/z	RELATIVE INTENSITY
28	30
39	70
44	50
45	260
50	50
51	150
52	50
63	40
64	30
65	150
66	50
69	40
77	480
78	310
79	80
89	60
90	60
91	200
92	70
94	40
105	30
106	50
107	60
108	40
109	190
110	140
120	30
121	9999
122	811
123	480
124	50
125	30
134	30
135	270
136	80
137	100
138	30
168	40
288	260
289	40
