Mass Spectrum: Hexanamide, N,N-bis(2-ethylhexyl)-6-bromo-
Formula: C22 H44 Br N O
Molecular weight: 417
Origin: Zaikin V.G., TIPS RAS, Moscow, Russia
m/z	RELATIVE INTENSITY
26	170
27	430
28	110
29	290
30	190
38	180
39	490
40	110
41	1371
42	460
43	861
44	1231
45	30
50	100
51	140
52	90
53	150
54	110
55	1241
56	330
57	811
58	70
59	30
60	130
65	50
67	200
68	140
69	1782
70	400
71	360
72	120
73	150
74	30
75	40
77	100
78	60
79	290
80	370
81	240
82	380
83	120
84	240
85	60
86	100
87	70
91	50
95	70
96	90
97	210
98	190
99	50
100	110
102	30
106	40
107	80
109	70
110	50
111	340
112	250
113	50
114	130
115	80
124	20
126	110
127	40
128	280
129	30
130	50
133	40
135	30
140	230
141	60
142	9999
143	1121
144	50
149	50
151	40
153	20
154	80
156	400
157	40
168	50
170	460
171	80
177	250
179	240
182	40
183	30
184	310
185	40
194	40
196	50
198	60
206	30
210	30
212	90
220	50
222	40
226	80
238	40
240	140
268	631
269	120
306	60
308	50
318	681
319	120
320	681
321	100
338	90
