Mass Spectrum: 2-Thiopheneacetamide, N-heptyl-N-octyl-
Formula: C21 H37 N O S
Molecular weight: 351
Origin: Zaikin V.G., TIPS RAS, Moscow, Russia
m/z	RELATIVE INTENSITY
28	40
29	100
30	50
36	50
41	350
42	60
43	1241
44	380
53	30
55	320
56	70
57	9599
58	430
69	180
70	50
71	4074
72	220
84	40
85	40
96	30
97	1341
98	250
99	420
111	30
112	60
113	210
124	130
126	80
128	851
129	40
140	40
142	1161
143	90
154	20
156	460
157	20
168	40
170	70
215	30
226	170
239	20
248	120
252	110
253	100
254	9999
255	1802
256	140
266	80
267	60
280	30
281	60
282	50
350	50
351	1682
352	430
353	90
