Mass Spectrum: Benzamide, N-decyl-N-methyl-4-butyl-
Formula: C22 H37 N O
Molecular weight: 331
Origin: Zaikin V.G., TIPS RAS, Moscow, Russia
m/z	RELATIVE INTENSITY
26	130
27	250
28	100
29	250
36	40
39	200
40	50
41	561
42	290
43	470
44	410
50	40
51	60
53	50
55	340
56	120
57	250
58	180
63	40
65	120
67	50
69	90
70	110
71	40
77	160
78	70
79	80
83	40
84	50
89	140
90	410
91	1451
92	180
103	140
104	110
105	220
107	50
115	80
116	50
117	70
118	360
119	260
120	50
131	210
132	60
133	160
134	110
135	80
136	50
145	30
147	30
148	50
159	130
160	40
161	9999
162	1251
163	90
170	70
174	40
176	50
178	40
189	30
190	290
191	220
192	80
198	70
204	1812
205	721
206	80
218	390
219	80
232	360
233	70
246	200
247	50
260	250
261	50
274	280
275	60
288	190
289	40
302	130
303	30
316	50
330	1291
331	1131
332	260
333	30
