Mass Spectrum: Cyclopropanecarboxamide, N,N-dihexyl-
Formula: C16 H31 N O
Molecular weight: 253
Origin: Zaikin V.G., TIPS RAS, Moscow, Russia
m/z	RELATIVE INTENSITY
26	90
27	240
28	110
29	270
30	140
36	120
38	70
39	400
40	100
41	1852
42	420
43	871
44	621
53	60
54	50
55	410
56	210
57	170
58	60
67	50
68	160
69	4874
70	470
71	70
72	40
82	50
83	70
84	260
85	100
86	60
96	50
97	30
98	520
99	320
100	120
110	60
111	50
112	1151
113	911
114	9999
115	861
124	30
126	390
127	240
128	270
138	110
140	460
141	240
142	230
152	100
153	50
154	460
155	110
156	80
166	30
168	250
169	50
170	130
180	40
182	5975
183	1081
184	510
185	60
196	510
197	80
210	701
211	130
212	410
213	60
224	520
225	80
238	120
252	70
253	781
254	190
