Mass Spectrum: Benzamide, N-heptyl-N-octyl-4-trifluoromethyl-
Formula: C23 H36 F3 N O
Molecular weight: 399
Origin: Zaikin V.G., TIPS RAS, Moscow, Russia
m/z	RELATIVE INTENSITY
28	20
41	60
43	80
44	40
55	90
56	30
57	120
69	60
70	20
83	20
97	30
126	120
128	50
140	80
141	30
142	50
145	771
146	50
154	30
156	60
159	50
170	50
173	9999
174	901
175	40
190	160
202	280
203	230
204	30
216	2122
217	761
218	70
226	70
230	220
231	90
244	370
245	100
254	180
258	300
259	60
271	80
272	110
285	90
286	210
287	40
288	80
300	3083
301	771
302	160
314	3103
315	821
316	90
328	370
329	80
342	210
343	50
356	140
357	30
370	140
380	120
384	40
398	1752
399	1722
400	420
401	40
