Mass Spectrum: Cyclohexanecarboxamide, N,N-bis(2-ethylhexyl)-
Formula: C23 H45 N O
Molecular weight: 351
Origin: Zaikin V.G., TIPS RAS, Moscow, Russia
m/z	RELATIVE INTENSITY
25	10
26	100
27	200
29	240
30	150
36	50
37	10
38	50
39	270
40	110
41	921
42	310
43	651
44	671
45	10
50	40
51	40
52	30
53	130
54	180
55	1441
56	330
57	651
58	50
65	20
66	20
67	320
68	70
69	210
70	210
71	240
72	60
73	40
77	40
78	10
79	80
80	20
81	170
82	80
83	3693
84	380
85	50
86	60
87	10
91	10
93	10
94	10
95	30
96	20
97	10
98	90
99	20
100	70
105	10
108	10
109	50
110	130
111	821
112	220
113	30
114	20
115	10
124	20
125	10
126	60
127	20
128	220
129	20
138	10
140	230
141	180
142	9999
143	991
144	40
152	40
153	10
154	100
155	60
156	581
157	60
166	10
168	60
169	10
170	290
171	30
180	20
182	70
183	80
184	120
185	10
194	30
196	80
197	10
198	20
207	40
208	10
210	90
211	10
212	60
222	20
223	10
224	30
226	10
236	10
238	30
239	110
240	180
241	30
250	10
252	581
253	110
254	10
268	831
269	150
270	10
294	50
295	10
296	10
308	30
322	70
323	10
336	10
350	40
351	80
352	30
