Mass Spectrum: 2,2-Dimethylpropanoic acid, 3-methylphenyl ester
Formula: C12 H16 O2
Molecular weight: 192
Origin: Zaikin V.G., TIPS RAS, Moscow, Russia
m/z	RELATIVE INTENSITY
27	70
28	130
29	330
39	200
41	641
42	70
51	60
52	50
53	70
55	70
56	50
57	4334
58	160
65	140
69	60
77	330
78	70
79	380
80	200
81	30
85	1641
86	70
90	180
91	290
107	1191
108	9999
109	921
110	40
124	120
128	80
149	190
192	1351
193	160
