Mass Spectrum: Chloroacetamide, N,N-dinonyl-
Formula: C20 H40 Cl N O
Molecular weight: 345
Origin: Zaikin V.G., TIPS RAS, Moscow, Russia
m/z	RELATIVE INTENSITY
26	140
27	430
28	260
29	661
30	510
35	40
36	210
38	110
39	430
40	100
41	1782
42	811
43	2262
44	1932
45	60
49	120
50	30
51	50
52	30
53	130
54	160
55	1501
56	741
57	1011
58	210
60	50
67	230
68	150
69	1011
70	571
71	480
72	240
73	80
76	30
77	360
78	60
79	190
81	150
82	140
83	530
84	430
85	300
86	280
87	110
94	150
95	80
96	90
97	100
98	350
99	140
100	130
101	30
106	400
107	150
108	470
109	60
110	130
111	30
112	380
113	130
114	110
120	6146
121	480
122	2052
123	170
124	60
126	330
127	70
128	110
134	60
140	290
141	50
142	150
144	30
148	90
150	30
154	811
155	100
156	2662
157	310
162	90
168	200
169	80
170	911
171	100
176	40
182	300
183	70
184	3193
185	410
186	220
190	50
196	400
197	90
198	1091
199	150
203	30
210	220
211	110
212	180
218	80
220	540
221	60
222	170
224	200
225	70
226	260
227	40
232	3263
233	470
234	1151
235	150
238	110
240	120
246	240
247	30
248	70
252	70
254	100
260	280
261	40
262	100
266	120
268	500
269	100
274	130
276	40
280	50
282	170
283	30
288	50
294	150
295	40
296	9999
297	2062
298	230
302	70
308	30
309	70
310	5275
311	1181
312	140
316	100
318	30
330	140
332	40
344	90
345	40
346	110
347	30
