Mass Spectrum: Benzamide, N-heptyl-N-octyl-3-bromo-
Formula: C22 H36 Br N O
Molecular weight: 409
Origin: Zaikin V.G., TIPS RAS, Moscow, Russia
m/z	RELATIVE INTENSITY
25	70
26	430
27	931
28	410
29	1021
30	240
35	30
36	200
37	80
38	210
39	801
40	160
41	2132
42	1121
43	1752
44	681
49	50
50	440
51	310
52	80
53	150
54	140
55	1011
56	641
57	771
58	60
63	50
65	70
67	160
68	110
69	350
70	340
71	150
73	70
74	160
75	410
76	651
77	1041
78	200
79	230
80	270
81	230
82	330
83	110
84	270
85	90
89	40
90	40
91	250
92	30
95	40
96	50
97	40
98	120
99	30
102	70
103	100
104	190
105	1852
106	150
112	70
115	40
116	30
117	60
118	50
119	50
120	30
126	200
128	80
130	100
131	40
132	80
133	70
134	110
135	50
139	60
140	170
141	30
142	40
145	30
146	370
147	100
148	250
149	30
154	50
155	1061
156	170
157	991
158	110
160	80
162	110
168	50
169	40
170	30
171	40
174	50
176	30
182	90
183	9999
184	811
185	9739
186	721
187	30
188	50
191	50
200	230
201	30
202	210
212	290
213	160
214	310
215	150
218	80
226	731
227	310
228	701
229	300
230	70
232	500
233	80
240	180
241	50
242	160
243	40
244	100
246	550
247	80
254	190
255	50
256	180
257	40
258	50
260	130
266	30
267	30
268	300
269	40
270	240
274	80
280	30
282	100
283	50
284	100
288	70
296	120
298	170
300	60
310	821
311	230
312	831
313	230
314	80
324	801
325	250
326	791
327	230
328	60
329	30
330	4504
331	1071
332	120
338	270
339	50
340	260
341	60
352	240
353	30
354	240
355	50
366	170
367	30
368	160
369	30
380	130
382	130
394	40
396	30
408	1161
409	731
410	1271
411	701
412	160
