Mass Spectrum: 2,3,4-Trifluorobenzoic acid, 3,5-dimethylphenyl ester
Formula: C15 H11 F3 O2
Molecular weight: 280
Origin: Zaikin V.G., TIPS RAS, Moscow, Russia
m/z	RELATIVE INTENSITY
39	40
51	30
53	40
65	40
77	130
78	40
81	270
91	110
121	50
122	30
131	1111
132	80
159	9999
160	721
161	40
280	2032
281	340
282	30
