Mass Spectrum: Acetamide, N-[1-(3-acetoxyphenyl)-2-propyl]-
Formula: C13 H17 N O3
Molecular weight: 235
Origin: T.Kraemer ET AL., J.Chrom., B, 738,107 (2000)
m/z	RELATIVE INTENSITY
52	510
53	370
55	160
56	40
57	150
60	130
63	260
64	70
65	270
72	110
77	1852
78	731
79	440
80	50
85	130
86	7016
87	380
89	180
90	160
91	420
103	110
105	380
107	4634
108	921
133	1792
134	9999
135	1141
136	130
150	160
176	7146
177	991
178	200
235	90
