Mass Spectrum: Benzamide, N-(2-fluorophenyl)-3-methyl-
Formula: C14 H12 F N O
Molecular weight: 229
Origin: Zaikin V.G., TIPS RAS, Moscow, Russia
m/z	RELATIVE INTENSITY
26	160
27	160
28	120
35	100
36	530
37	30
38	280
39	641
40	60
41	220
42	40
43	80
44	310
45	50
50	230
51	330
52	140
53	40
57	200
61	40
62	170
63	571
64	210
65	1672
66	90
74	60
75	110
76	60
77	150
78	60
79	110
80	40
81	40
82	100
83	480
84	90
86	30
89	601
90	420
91	5395
92	561
96	40
105	70
109	40
110	100
111	300
116	40
117	60
118	130
119	9999
120	901
121	60
133	90
229	2672
230	400
