Mass Spectrum: Nicotinamide, N-(3-methylphenyl)-
Formula: C13 H12 N2 O
Molecular weight: 212
Origin: Zaikin V.G., TIPS RAS, Moscow, Russia
m/z	RELATIVE INTENSITY
26	30
27	90
28	10
38	20
39	150
41	30
50	160
51	991
52	210
53	90
63	70
64	40
65	160
76	50
77	530
78	4224
79	490
80	40
89	40
91	150
104	80
105	120
106	9999
107	911
108	250
132	40
133	30
168	30
181	30
197	80
211	631
212	7096
213	1041
214	80
