Mass Spectrum: Benzamide, N-ethyl-N-(3-methylphenyl)-3-trifluoromethyl-
Formula: C17 H16 F3 N O
Molecular weight: 307
Origin: Zaikin V.G., TIPS RAS, Moscow, Russia
m/z	RELATIVE INTENSITY
42	70
65	90
77	40
91	270
92	40
95	70
108	40
118	210
119	520
120	60
125	50
126	90
132	50
133	60
134	1131
135	100
145	2873
146	210
155	40
172	691
173	9999
174	901
175	50
200	1872
201	210
215	30
279	831
280	130
288	190
292	290
293	40
306	2192
307	6456
308	1231
309	110
