Mass Spectrum: Benzamide, N-ethyl-N-(3-methylphenyl)-4-butyl-
Formula: C20 H25 N O
Molecular weight: 295
Origin: Zaikin V.G., TIPS RAS, Moscow, Russia
m/z	RELATIVE INTENSITY
26	70
27	150
28	40
29	110
36	40
39	160
41	180
42	30
43	60
44	30
50	60
51	100
52	40
53	40
55	100
63	90
64	40
65	360
76	50
77	310
78	130
79	110
89	260
90	711
91	2262
92	260
93	30
102	30
103	200
104	170
105	210
106	40
107	40
115	110
116	70
117	90
118	741
119	310
120	200
131	160
132	80
133	190
134	260
135	130
136	40
159	90
160	40
161	9999
162	1171
163	80
178	40
188	170
224	30
252	90
267	80
294	651
295	2152
296	500
297	50
