Mass Spectrum: Octanamide, N-ethyl-N-(3-methylphenyl)-
Formula: C17 H27 N O
Molecular weight: 261
Origin: Zaikin V.G., TIPS RAS, Moscow, Russia
m/z	RELATIVE INTENSITY
27	50
29	100
36	30
39	100
41	350
42	80
43	300
44	50
51	40
52	30
53	40
54	30
55	280
56	80
57	781
58	40
63	50
65	290
66	30
67	70
69	70
70	120
71	30
72	70
73	50
77	220
78	100
79	140
80	60
81	30
82	40
83	60
84	50
85	30
86	40
87	130
89	90
90	90
91	1411
92	230
93	150
98	60
103	30
104	120
105	150
106	1251
107	540
108	110
109	50
111	120
114	30
115	50
116	30
117	100
118	731
119	701
120	8538
121	921
122	40
126	60
127	150
128	30
130	30
131	30
132	240
133	300
134	1561
135	9999
136	1281
137	70
144	30
146	40
148	80
149	1291
150	130
154	220
160	30
162	360
163	40
174	40
175	30
176	571
177	3303
178	420
179	30
188	30
190	941
191	160
204	120
218	70
232	130
246	30
260	100
261	801
262	170
