Mass Spectrum: Benzamide, N,N-bis(2-ethylhexyl)-4-fluoro-
Formula: C23 H38 F N O
Molecular weight: 363
Origin: Zaikin V.G., TIPS RAS, Moscow, Russia
m/z	RELATIVE INTENSITY
27	20
28	10
29	30
36	80
38	20
39	30
41	140
42	60
43	130
44	120
45	20
55	130
56	50
57	120
67	20
69	80
70	70
71	50
72	20
75	50
81	20
83	30
84	30
85	20
94	20
95	571
96	80
97	20
109	40
112	40
122	30
123	9999
124	781
125	50
140	180
142	20
152	200
153	240
154	50
164	20
166	1001
167	190
168	20
180	40
181	30
184	40
194	120
195	50
206	20
208	40
222	210
223	30
234	30
235	70
236	40
250	80
251	50
252	160
253	20
262	30
264	5175
265	1041
266	100
306	40
320	30
334	70
335	20
362	50
363	210
364	60
