Mass Spectrum: Benzamide, N,N-dibutyl-4-butyl-
Formula: C19 H31 N O
Molecular weight: 289
Origin: Zaikin V.G., TIPS RAS, Moscow, Russia
m/z	RELATIVE INTENSITY
27	40
28	20
29	50
36	40
39	50
41	120
42	60
43	60
44	30
55	70
56	30
57	60
65	70
77	120
78	50
79	50
84	80
89	110
90	430
91	1111
92	130
99	30
100	60
103	130
104	120
105	180
107	30
115	70
116	40
117	60
118	651
119	90
128	40
131	180
132	60
133	110
134	50
135	60
136	40
147	40
156	30
159	100
160	40
161	9999
162	1231
163	90
177	20
178	30
190	450
191	360
192	40
204	460
205	220
217	60
218	60
232	190
233	50
246	1181
247	330
248	40
260	80
274	50
288	1421
289	1411
290	300
291	30
