Mass Spectrum: Bromoacetic acid, 4-cyanophenyl ester
Formula: C9 H6 Br N O2
Molecular weight: 239
Origin: Zaikin V.G., TIPS RAS, Moscow, Russia
m/z	RELATIVE INTENSITY
37	40
38	30
39	160
42	360
50	30
51	60
62	50
63	230
64	330
65	40
75	90
76	60
77	30
89	30
90	430
91	230
92	30
93	380
95	380
102	430
103	30
104	30
118	80
119	9999
120	1361
121	1501
122	510
123	1511
211	160
213	170
239	611
240	60
241	601
242	40
