Mass Spectrum: Pentanamide, N-ethyl-N-(3-methylphenyl)-
Formula: C14 H21 N O
Molecular weight: 219
Origin: Zaikin V.G., TIPS RAS, Moscow, Russia
m/z	RELATIVE INTENSITY
28	40
29	110
36	110
41	160
55	70
57	651
65	120
70	50
72	30
77	110
79	100
84	50
85	380
87	130
91	801
92	120
93	80
104	30
105	120
106	781
107	270
111	40
112	260
118	390
119	450
120	9999
121	941
123	30
132	100
133	130
134	981
135	8938
136	971
137	30
148	30
149	901
150	70
152	40
162	220
176	390
177	5045
178	611
190	591
191	130
204	50
218	90
219	2742
220	480
