Mass Spectrum: Benzamide, N,N-dibutyl-3-bromo-
Formula: C15 H22 Br N O
Molecular weight: 311
Origin: Zaikin V.G., TIPS RAS, Moscow, Russia
m/z	RELATIVE INTENSITY
26	150
27	581
28	250
29	641
30	90
36	30
37	40
38	70
39	380
40	60
41	891
42	721
43	370
44	80
49	30
50	470
51	280
52	40
53	50
54	60
55	200
56	200
57	260
63	40
65	40
70	70
73	40
74	200
75	601
76	841
77	811
78	120
79	90
80	130
81	90
82	140
84	290
86	40
89	60
90	50
91	190
102	70
103	110
104	210
105	1051
106	90
112	30
115	40
116	30
117	50
118	50
119	40
128	40
130	60
131	90
132	90
133	40
134	120
135	30
139	60
145	30
146	270
147	80
148	210
155	1822
156	270
157	1802
158	180
160	40
169	50
171	40
176	140
182	70
183	9999
184	831
185	9609
186	731
187	40
188	70
190	470
191	60
200	250
201	30
202	250
212	470
213	220
214	470
215	200
226	561
227	200
228	550
229	180
232	2472
233	400
234	30
240	40
242	30
254	100
256	120
268	791
269	200
270	781
271	190
282	80
284	60
310	290
311	180
312	310
313	180
