Mass Spectrum: Butanamide, N-heptyl-N-octyl-
Formula: C19 H39 N O
Molecular weight: 297
Origin: Zaikin V.G., TIPS RAS, Moscow, Russia
m/z	RELATIVE INTENSITY
25	30
26	220
27	561
28	200
29	500
30	410
35	60
36	370
37	40
38	200
39	500
40	120
41	1692
42	681
43	3043
44	2462
45	60
50	50
51	60
52	40
53	130
54	130
55	1011
56	601
57	1121
58	230
60	80
65	40
67	160
68	120
69	480
70	641
71	1992
72	260
73	280
77	60
78	30
79	80
80	30
81	80
82	90
83	90
84	410
85	110
86	260
87	410
88	160
91	60
95	50
96	70
97	60
98	310
99	90
100	561
101	440
102	50
110	40
111	100
112	250
113	80
114	621
115	490
116	40
124	30
126	320
127	70
128	9639
129	1021
130	50
133	30
140	320
141	70
142	9999
143	1091
144	50
154	210
155	50
156	2282
157	310
158	30
168	140
169	40
170	1581
171	230
182	90
183	40
184	731
185	120
186	150
191	40
196	70
198	981
199	190
200	140
210	60
212	901
213	150
224	60
226	941
227	170
238	60
240	500
241	80
252	40
254	5455
255	981
256	90
268	290
269	50
282	290
283	50
296	100
297	230
298	70
