Mass Spectrum: Benzamide, N,N-dioctyl-3-trifluoromethyl-
Formula: C24 H38 F3 N O
Molecular weight: 413
Origin: Zaikin V.G., TIPS RAS, Moscow, Russia
m/z	RELATIVE INTENSITY
41	60
43	100
44	60
55	70
56	30
57	120
69	90
71	30
112	30
126	30
140	200
142	140
145	651
146	50
155	120
159	40
168	30
170	160
173	9999
174	901
175	50
190	180
202	290
203	250
204	60
216	2392
217	791
218	70
230	230
231	110
240	90
244	450
245	110
258	350
259	80
268	280
269	50
272	140
285	200
286	70
300	450
301	110
302	250
303	30
314	7086
315	2052
316	260
328	520
329	120
342	330
343	80
356	160
357	30
370	180
371	40
384	170
385	40
392	140
393	30
394	90
398	70
412	1081
413	1551
414	420
415	50
