Mass Spectrum: Thiophene-2-carboxamide, N,N-dioctyl-
Formula: C21 H37 N O S
Molecular weight: 351
Origin: Zaikin V.G., TIPS RAS, Moscow, Russia
m/z	RELATIVE INTENSITY
29	20
39	40
41	80
43	130
44	60
55	70
56	30
57	110
58	90
69	60
70	30
71	50
83	50
86	30
97	100
98	40
111	9999
112	681
113	490
122	50
127	30
128	80
136	30
140	400
141	260
142	250
154	641
155	480
156	510
157	50
168	90
169	30
182	250
183	50
196	340
197	80
206	160
207	30
210	140
211	20
220	561
221	80
223	110
224	60
234	110
238	360
239	80
240	180
248	60
252	3964
253	831
254	270
255	30
266	210
267	30
280	150
281	30
294	90
295	30
308	150
309	30
318	3503
319	831
320	90
322	110
323	30
336	40
350	130
351	1251
352	340
353	90
