Mass Spectrum: Propanamide, N,N-dihexyl-3-chloro-
Formula: C15 H30 Cl N O
Molecular weight: 275
Origin: Zaikin V.G., TIPS RAS, Moscow, Russia
m/z	RELATIVE INTENSITY
26	160
27	460
28	130
29	320
30	370
35	30
36	190
38	90
39	240
40	60
41	741
42	440
43	1111
44	1301
45	40
53	60
54	60
55	621
56	300
57	230
58	90
63	711
65	240
67	50
68	40
69	80
70	230
71	40
72	70
79	20
82	30
83	50
84	230
85	100
86	130
90	30
91	561
92	30
93	180
98	230
99	80
100	360
108	60
112	290
113	60
114	9999
115	741
120	140
121	110
122	60
123	30
126	150
127	30
128	490
129	40
134	520
135	190
136	170
137	60
140	210
141	30
142	480
143	40
148	60
154	50
156	721
157	70
162	80
168	260
169	60
170	1021
171	120
176	60
182	120
184	310
185	40
190	70
192	150
194	40
196	70
198	90
204	1551
205	200
206	510
207	30
210	60
212	1391
213	210
218	180
220	50
232	180
234	50
239	40
240	3853
241	641
242	50
246	100
248	30
275	70
276	40
277	30
