Mass Spectrum: Acetoxyacetic acid, 5-pentadecyl ester
Formula: C19 H36 O4
Molecular weight: 328
Origin: Zaikin V.G., TIPS RAS, Moscow, Russia
m/z	RELATIVE INTENSITY
26	160
27	400
28	40
29	971
30	40
31	40
39	410
40	90
41	2372
42	651
43	5435
44	500
45	100
50	40
51	40
52	30
53	170
54	420
55	2883
56	1501
57	4414
58	270
59	30
60	50
61	120
65	40
66	40
67	591
68	440
69	2202
70	1311
71	2632
72	140
73	2662
74	370
75	40
77	60
78	30
79	140
80	30
81	400
82	581
83	1702
84	831
85	1822
86	110
91	430
93	30
95	230
96	390
97	1451
98	490
99	510
100	100
101	9999
102	420
103	60
109	90
110	200
111	761
112	320
113	340
114	20
119	911
120	30
123	30
124	160
125	390
126	240
127	240
128	40
138	80
139	160
140	120
141	160
142	30
152	50
153	110
154	70
155	100
167	40
168	40
169	160
182	100
187	20
210	540
211	240
227	40
