Mass Spectrum: Cyclopentanecarboxamide, N,N-diundecyl-
Formula: C28 H55 N O
Molecular weight: 421
Origin: Zaikin V.G., TIPS RAS, Moscow, Russia
m/z	RELATIVE INTENSITY
25	40
26	260
27	520
28	180
29	470
30	220
36	50
37	50
38	90
39	631
40	210
41	1672
42	591
43	1491
44	981
50	50
51	50
52	30
53	160
54	150
55	941
56	530
57	871
58	120
65	50
66	50
67	440
68	230
69	4244
70	611
71	280
72	80
73	40
77	30
79	60
81	110
82	80
83	170
84	310
85	190
86	140
91	30
95	160
96	210
97	1361
98	330
99	120
100	200
110	40
111	40
112	200
113	80
114	170
124	30
126	220
127	170
128	80
138	40
140	280
141	260
142	70
152	30
154	210
155	90
156	40
168	170
169	50
170	120
180	30
182	480
183	80
184	9999
185	1331
186	80
191	30
196	150
197	40
198	751
199	100
210	180
211	40
212	931
213	130
224	120
226	490
227	70
238	150
239	60
240	240
241	30
252	90
253	30
254	190
255	30
264	30
266	170
267	280
268	320
269	50
280	290
281	130
282	110
294	170
295	40
296	70
308	400
309	80
310	80
322	250
323	60
324	400
325	100
326	30
336	210
337	40
350	250
351	60
352	4154
353	1101
354	130
364	220
365	50
378	210
379	60
380	1141
381	310
382	40
392	160
393	50
406	70
420	260
421	350
422	100
