Mass Spectrum: Chloroacetamide, N-heptyl-N-octyl-
Formula: C17 H34 Cl N O
Molecular weight: 303
Origin: Zaikin V.G., TIPS RAS, Moscow, Russia
m/z	RELATIVE INTENSITY
26	140
27	330
28	200
29	500
30	490
35	150
36	931
37	40
38	350
39	410
40	90
41	1802
42	811
43	1752
44	2963
45	80
49	160
50	110
51	130
52	140
53	160
54	180
55	1742
56	851
57	1812
58	280
60	70
65	50
66	30
67	240
68	170
69	1121
70	651
71	500
72	350
73	130
74	30
76	50
77	500
78	110
79	460
80	80
81	160
82	170
83	190
84	450
85	150
86	440
87	170
91	40
93	70
94	230
95	100
96	220
97	280
98	420
99	120
100	170
101	40
105	80
106	611
107	210
108	701
109	90
110	180
111	90
112	350
113	100
114	210
115	30
116	30
120	9949
121	771
122	3353
123	340
124	50
126	611
127	90
128	2752
129	250
130	40
133	30
134	100
135	40
136	30
138	30
140	671
141	120
142	2752
143	280
148	110
150	30
154	320
155	80
156	2542
157	270
158	130
162	120
164	40
168	360
169	70
170	2742
171	330
172	120
176	50
182	300
183	130
184	821
185	150
190	60
191	30
192	330
193	40
194	110
196	160
197	40
198	280
199	30
202	20
204	2022
205	250
206	911
207	310
208	110
209	30
210	100
212	220
218	2132
219	280
220	721
221	90
224	110
226	641
227	100
232	310
233	40
234	100
238	40
240	190
241	30
246	250
247	30
248	80
252	150
253	30
254	9999
255	1932
256	170
260	100
262	30
266	50
267	60
268	6376
269	1271
270	130
274	80
281	30
288	90
302	70
303	50
304	40
