Mass Spectrum: 1-Naphthamide, N,N-didecyl-
Formula: C31 H49 N O
Molecular weight: 451
Origin: Zaikin V.G., TIPS RAS, Moscow, Russia
m/z	RELATIVE INTENSITY
26	110
27	170
28	60
29	150
30	40
36	60
38	30
39	190
40	40
41	430
42	210
43	460
44	210
50	60
51	70
53	40
54	40
55	330
56	210
57	230
63	70
64	30
67	70
68	30
69	160
70	150
71	60
73	50
74	60
75	80
76	50
77	130
78	30
79	40
81	40
82	30
83	70
84	110
85	50
91	30
95	30
96	80
97	40
98	60
99	30
101	70
102	60
112	50
115	90
126	330
127	2442
128	811
129	150
133	70
139	30
140	40
141	260
142	70
152	40
153	110
154	170
155	9999
156	1341
157	120
165	40
166	40
167	40
168	160
169	50
170	100
171	220
172	430
173	50
177	30
182	100
183	60
184	420
185	320
186	40
191	100
193	50
196	100
197	40
198	370
199	230
200	30
210	40
212	150
213	70
226	150
227	60
238	30
240	230
241	60
252	40
254	140
255	40
266	30
267	50
268	120
269	50
282	90
283	30
294	20
296	110
310	260
311	200
312	100
322	90
323	50
324	1411
325	1061
326	250
327	30
336	30
338	200
339	110
352	320
353	110
366	250
367	90
380	260
381	100
394	210
395	80
408	220
409	80
422	150
423	50
436	50
449	40
450	2372
451	2883
452	991
453	180
