Mass Spectrum: Benzamide, N-decyl-N-methyl-3-methyl-
Formula: C19 H31 N O
Molecular weight: 289
Origin: Zaikin V.G., TIPS RAS, Moscow, Russia
m/z	RELATIVE INTENSITY
26	120
27	240
28	100
29	260
30	40
36	80
38	60
39	310
40	70
41	661
42	400
43	540
44	540
50	50
51	70
52	30
53	60
54	40
55	340
56	150
57	270
58	170
63	100
64	30
65	561
66	40
67	50
69	110
70	140
71	60
72	190
73	30
77	60
79	50
81	30
82	30
83	40
84	70
85	30
89	190
90	200
91	2672
92	250
93	50
105	140
114	30
117	30
118	100
119	9999
120	911
121	50
132	70
133	60
134	120
135	30
136	50
148	581
149	180
150	130
162	2042
163	791
164	80
170	60
176	420
177	80
184	330
185	40
190	400
191	70
198	130
204	200
205	40
218	200
219	40
232	200
233	40
246	140
247	30
260	100
274	90
288	921
289	1271
290	260
