Mass Spectrum: 2-Thiopheneacetic acid, 4-nitrophenyl ester
Formula: C12 H9 N O4 S
Molecular weight: 263
Origin: Zaikin V.G., TIPS RAS, Moscow, Russia
m/z	RELATIVE INTENSITY
28	40
39	100
45	370
51	30
53	380
63	80
64	30
65	40
69	70
70	80
71	40
95	60
96	280
97	9999
98	681
99	470
109	120
123	40
124	1862
125	571
126	110
139	60
263	2352
264	320
265	140
