Mass Spectrum: Benzamide, N,N-dibutyl-4-fluoro-
Formula: C15 H22 F N O
Molecular weight: 251
Origin: Zaikin V.G., TIPS RAS, Moscow, Russia
m/z	RELATIVE INTENSITY
27	40
28	30
29	80
39	30
41	80
42	80
43	40
55	30
57	60
75	130
84	60
94	40
95	1101
96	100
99	50
109	30
122	40
123	9999
124	621
125	40
140	60
152	230
153	220
166	290
167	140
179	30
194	80
208	1121
209	280
210	30
222	50
250	360
251	530
252	80
