Mass Spectrum: Pentanamide, N,N-dioctyl-5-bromo-
Formula: C21 H42 Br N O
Molecular weight: 403
Origin: Zaikin V.G., TIPS RAS, Moscow, Russia
m/z	RELATIVE INTENSITY
28	20
29	60
30	100
36	30
41	140
42	30
43	260
44	741
55	490
56	140
57	390
58	50
69	140
70	70
71	220
72	30
83	50
84	40
85	90
86	50
98	60
100	180
101	30
112	60
114	110
126	60
127	40
128	280
135	180
137	170
140	110
142	9999
143	1051
144	30
154	30
156	701
157	60
163	140
165	140
168	50
170	1141
171	110
182	30
184	430
185	50
196	40
198	330
199	40
206	30
212	621
213	100
224	50
226	450
227	60
229	30
236	30
238	30
240	360
241	80
242	60
248	60
250	50
252	30
254	50
262	40
264	40
266	30
268	5825
269	1101
270	90
290	30
292	100
294	70
296	741
297	150
304	500
305	80
306	500
307	90
310	50
318	90
320	90
324	4644
325	1071
326	110
332	160
334	160
346	110
348	110
360	50
362	60
374	80
376	90
402	40
403	110
404	110
405	120
406	70
