Mass Spectrum: Benzamide, N-ethyl-N-(3-methylphenyl)-4-bromo-
Formula: C16 H16 Br N O
Molecular weight: 317
Origin: Zaikin V.G., TIPS RAS, Moscow, Russia
m/z	RELATIVE INTENSITY
26	60
27	100
29	60
37	30
38	100
39	240
40	30
41	60
42	30
49	40
50	771
51	330
52	140
53	50
57	160
62	80
63	260
64	140
65	691
66	60
73	30
74	330
75	1251
76	1992
77	641
78	210
79	130
80	90
81	70
82	130
83	370
84	70
89	210
90	150
91	1892
92	240
93	40
102	30
103	110
104	1181
105	230
106	80
107	100
108	30
110	60
111	140
115	50
116	30
117	80
118	1061
119	871
120	370
121	30
129	40
130	30
131	50
132	180
133	190
134	1161
135	210
139	30
152	110
153	40
154	30
155	2522
156	260
157	2462
158	230
165	120
166	70
167	130
180	100
182	140
183	9649
184	881
185	9999
186	711
187	40
194	50
195	70
209	110
210	791
211	80
212	781
213	60
237	30
238	30
288	30
289	460
290	80
291	440
292	60
302	180
303	30
304	150
316	1882
317	3523
318	2552
319	3503
320	701
321	70
