Mass Spectrum: Nicotinamide, N-(1-naphthyl)-
Formula: C16 H12 N2 O
Molecular weight: 248
Origin: Zaikin V.G., TIPS RAS, Moscow, Russia
m/z	RELATIVE INTENSITY
27	40
39	70
50	120
51	741
52	100
62	40
63	140
64	40
65	80
74	30
75	60
76	50
77	110
78	4054
79	270
87	40
88	80
89	250
90	30
101	40
105	60
106	9999
107	681
108	30
113	140
114	230
115	2282
116	330
117	30
126	70
127	110
140	290
141	150
142	220
143	490
144	1611
145	160
169	60
190	30
218	50
219	30
247	140
248	8348
249	1501
250	140
