Mass Spectrum: 2,3,4-Trifluorobenzoic acid, 4-benzyloxyphenyl ester
Formula: C20 H13 F3 O3
Molecular weight: 358
Origin: Zaikin V.G., TIPS RAS, Moscow, Russia
m/z	RELATIVE INTENSITY
39	50
51	30
54	30
63	40
65	350
81	170
89	60
90	50
91	9999
92	731
131	571
132	60
159	2502
160	190
358	1672
359	360
360	50
