Mass Spectrum: 2,3,4-Trifluorobenzoic acid, 4-chlorophenyl ester
Formula: C13 H6 Cl F3 O2
Molecular weight: 286
Origin: Zaikin V.G., TIPS RAS, Moscow, Russia
m/z	RELATIVE INTENSITY
39	30
62	40
63	90
73	100
75	80
81	500
99	170
101	50
112	50
127	40
128	50
130	60
131	1351
132	110
159	9999
160	701
161	30
286	631
287	90
288	210
