Mass Spectrum: Isonicotinamide, N-ethyl-N-(3-methylphenyl)-
Formula: C15 H16 N2 O
Molecular weight: 240
Origin: Zaikin V.G., TIPS RAS, Moscow, Russia
m/z	RELATIVE INTENSITY
25	50
26	310
27	561
28	120
29	320
30	70
39	641
40	100
41	310
42	190
43	70
44	310
49	80
50	641
51	2803
52	520
53	190
54	40
55	60
56	40
57	30
62	90
63	390
64	160
65	1411
66	130
67	30
74	60
75	110
76	180
77	821
78	6356
79	861
80	100
89	290
90	200
91	2783
92	380
93	120
102	40
103	70
104	320
105	1291
106	9999
107	891
108	190
115	90
116	40
117	150
118	1181
119	1211
120	360
121	50
123	60
128	30
130	60
132	350
133	2032
134	1802
135	230
139	50
140	20
141	30
142	50
148	40
154	40
156	30
157	30
167	30
168	40
183	50
195	40
196	30
197	40
211	140
212	971
213	130
225	340
226	40
239	2332
240	5015
241	821
242	50
