Mass Spectrum: Pentafluoropropanoic acid, 2-naphthyl ester
Formula: C13 H7 F5 O2
Molecular weight: 290
Origin: Zaikin V.G., TIPS RAS, Moscow, Russia
m/z	RELATIVE INTENSITY
36	10
39	40
44	10
45	10
50	10
51	20
62	20
63	140
64	50
65	110
69	100
74	10
75	40
77	30
87	10
88	50
89	220
100	30
101	10
108	10
109	70
113	60
114	210
115	4754
116	450
119	260
124	50
125	10
126	50
127	691
128	120
130	10
142	30
143	1822
144	180
223	30
243	90
254	30
289	50
290	9999
291	1391
292	110
