Mass Spectrum: 2-Methylpropionic acid, 4-nitrophenyl ester
Formula: C10 H11 N O4
Molecular weight: 209
Origin: Zaikin V.G., TIPS RAS, Moscow, Russia
m/z	RELATIVE INTENSITY
27	330
28	30
30	80
36	30
38	30
39	320
40	20
41	791
42	220
43	8928
44	280
50	60
51	20
52	10
53	30
55	70
56	10
62	10
63	170
64	190
65	410
69	10
70	190
71	9999
72	450
73	20
74	10
75	100
76	70
77	10
79	10
81	110
91	40
92	60
93	280
94	10
107	20
108	10
109	891
110	90
111	10
115	140
116	20
119	390
120	20
122	80
123	240
124	20
139	1531
140	130
141	20
156	30
209	70
