Mass Spectrum: Benzamide, N-ethyl-N-(3-methylphenyl)-4-fluoro-
Formula: C16 H16 F N O
Molecular weight: 257
Origin: Zaikin V.G., TIPS RAS, Moscow, Russia
m/z	RELATIVE INTENSITY
27	20
39	50
41	20
42	20
51	40
63	30
65	170
75	110
76	20
77	80
78	30
89	40
90	20
91	430
92	50
94	30
95	1822
96	140
104	30
107	20
117	20
118	210
119	250
120	90
122	140
123	9999
124	601
125	30
132	40
133	50
134	390
135	60
150	470
151	50
229	120
230	20
242	50
256	571
257	1762
258	300
259	20
