Mass Spectrum: Trichloroacetamide, N,N-bis(2-ethylhexyl)-
Formula: C18 H34 Cl3 N O
Molecular weight: 385
Origin: Zaikin V.G., TIPS RAS, Moscow, Russia
m/z	RELATIVE INTENSITY
25	50
26	310
27	1281
28	1111
29	2793
30	951
35	581
36	3273
37	250
38	1411
39	1551
40	390
41	8327
42	3263
43	7717
44	1822
45	50
47	130
48	370
49	240
50	170
51	200
52	130
53	741
54	621
55	6656
56	2542
57	9999
58	571
59	30
60	20
63	140
64	40
65	230
66	120
67	1031
68	891
69	6676
70	3033
71	6236
72	691
73	100
74	30
75	80
76	480
77	280
78	210
79	380
80	350
81	791
82	1041
83	1121
84	3063
85	711
86	140
87	50
88	100
89	70
90	100
91	190
92	50
93	190
94	190
95	490
96	591
97	390
98	1101
99	130
100	80
102	30
103	60
104	40
105	140
106	290
107	100
108	180
109	470
110	851
111	1471
112	1832
113	530
114	140
115	40
116	30
117	170
118	90
119	190
120	731
121	130
122	290
123	190
124	410
125	180
126	691
127	150
128	320
129	40
130	60
131	30
132	120
133	50
134	60
135	40
136	80
138	380
139	210
140	5435
141	641
142	1051
143	40
144	150
145	50
146	130
147	40
148	90
149	40
150	80
151	50
152	220
153	370
154	3623
155	520
156	2492
157	230
158	300
159	30
160	310
162	200
163	30
164	140
165	30
166	230
167	50
168	961
169	140
170	901
171	70
172	40
174	380
176	500
177	50
178	420
179	30
180	460
181	100
182	721
183	550
184	130
185	60
186	20
188	5695
189	260
190	5455
191	260
192	1892
193	80
194	360
195	50
196	320
197	30
200	40
202	80
204	200
205	30
206	120
210	290
211	50
214	50
216	370
217	70
218	310
219	50
220	60
222	90
224	190
225	20
230	150
232	50
234	40
236	40
238	210
239	30
240	270
241	40
242	140
243	40
244	60
250	80
252	631
253	90
254	330
255	30
256	80
258	70
264	30
266	470
267	110
268	1641
269	270
272	30
274	150
276	130
278	90
279	20
280	70
282	40
286	921
287	100
288	921
289	80
290	280
292	40
314	50
316	100
350	90
352	40
