Mass Spectrum: Phenylacetamide, N,N-bis(2-ethylhexyl)-
Formula: C24 H41 N O
Molecular weight: 359
Origin: Zaikin V.G., TIPS RAS, Moscow, Russia
m/z	RELATIVE INTENSITY
27	50
28	40
29	120
30	200
36	50
39	70
41	320
42	120
43	510
44	831
55	240
56	100
57	701
58	40
65	70
69	180
70	110
71	520
72	60
83	40
84	80
85	30
89	80
90	130
91	2002
92	340
98	50
100	40
105	30
111	20
112	70
113	110
118	220
119	70
123	120
126	30
128	70
135	30
136	160
140	100
142	9999
143	961
144	40
148	70
149	160
150	40
156	881
157	90
162	210
163	120
168	70
170	410
171	40
184	40
190	40
191	40
212	70
218	60
240	140
241	20
246	30
247	140
248	180
249	30
260	1231
261	310
262	40
268	1972
269	380
270	30
302	60
316	50
330	80
331	30
359	500
360	140
