Mass Spectrum: 2,2-Dimethylpropanoic acid, 4-chlorophenyl ester
Formula: C11 H13 Cl O2
Molecular weight: 212
Origin: Zaikin V.G., TIPS RAS, Moscow, Russia
m/z	RELATIVE INTENSITY
27	30
28	120
29	310
36	40
39	130
41	721
42	80
55	80
56	70
57	5605
58	250
63	60
64	50
65	170
69	100
70	40
73	100
75	110
79	30
85	3553
86	190
93	40
99	270
100	120
101	90
102	30
109	40
111	220
113	60
124	50
127	100
128	9999
129	771
130	3413
131	230
169	330
171	90
212	1291
213	160
214	450
215	50
