Mass Spectrum: Nicotinamide, N-ethyl-N-(3-methylphenyl)-
Formula: C15 H16 N2 O
Molecular weight: 240
Origin: Zaikin V.G., TIPS RAS, Moscow, Russia
m/z	RELATIVE INTENSITY
26	100
27	190
28	40
29	100
30	70
35	90
36	530
38	220
39	280
40	40
41	210
42	90
43	100
44	350
49	30
50	310
51	1221
52	320
53	100
55	90
56	60
57	70
62	30
63	150
64	60
65	661
66	60
67	40
69	40
70	40
71	30
73	30
74	30
75	80
76	110
77	520
78	4904
79	611
80	90
82	30
84	30
89	150
90	90
91	1421
92	200
93	60
98	30
103	40
104	180
105	801
106	9999
107	831
108	100
114	30
115	50
116	30
117	90
118	671
119	691
120	270
121	30
122	40
123	300
128	50
130	20
132	180
133	1491
134	1131
135	180
140	40
142	100
148	40
149	30
154	130
155	30
156	30
157	30
167	50
168	60
169	40
181	30
182	40
183	90
185	70
193	40
195	40
196	70
197	60
200	60
202	60
210	30
211	270
212	621
213	90
223	20
225	300
226	50
238	30
239	3373
240	4264
241	701
242	60
