Mass Spectrum: trans-Cinnamamide, N,N-diheptyl-3-trifluoromethyl-
Formula: C24 H36 F3 N O
Molecular weight: 411
Origin: Zaikin V.G., TIPS RAS, Moscow, Russia
m/z	RELATIVE INTENSITY
30	30
41	50
43	80
44	160
55	90
56	30
57	120
70	30
84	50
96	30
98	80
99	80
102	40
112	70
113	100
114	70
126	120
128	2262
129	190
140	30
141	40
142	160
151	370
152	60
154	170
155	70
156	30
168	170
169	30
170	20
171	981
172	120
180	40
181	50
182	250
183	180
184	30
186	40
196	130
197	160
198	80
199	9999
200	1171
201	80
210	90
212	200
214	30
216	60
228	140
229	90
238	120
239	40
242	470
243	621
244	80
245	30
252	350
253	50
256	320
257	190
266	50
270	661
271	150
284	440
285	100
297	50
298	230
299	40
312	150
313	30
314	50
326	3433
327	1311
328	210
340	1001
341	220
354	1081
355	280
356	30
368	631
369	170
382	370
383	90
392	130
393	30
396	70
410	110
411	1391
412	450
413	70
