Mass Spectrum: Benzamide, N-heptyl-N-octyl-4-bromo-
Formula: C22 H36 Br N O
Molecular weight: 409
Origin: Zaikin V.G., TIPS RAS, Moscow, Russia
m/z	RELATIVE INTENSITY
26	90
27	220
28	100
29	270
30	90
36	70
38	30
39	220
40	50
41	691
42	400
43	611
44	280
50	130
51	70
53	50
54	50
55	430
56	270
57	370
58	60
67	60
68	40
69	170
70	180
71	70
73	30
74	60
75	200
76	450
77	200
78	40
79	60
80	70
81	70
82	100
83	40
84	160
85	50
91	60
98	100
103	70
104	891
105	460
106	40
112	60
119	30
126	170
128	100
132	30
133	40
140	170
141	70
142	100
146	50
147	30
148	30
154	40
155	1021
156	170
157	981
158	100
168	40
169	50
170	30
171	40
182	40
183	9999
184	811
185	9979
186	741
187	40
200	110
202	100
212	240
213	230
214	240
215	220
224	40
226	691
227	330
228	581
229	310
230	30
232	20
240	180
241	60
242	160
243	50
254	390
255	70
256	200
257	60
266	40
268	260
269	50
270	210
271	40
280	40
281	40
282	130
283	60
284	80
295	40
296	130
297	60
298	150
299	30
300	30
310	1191
311	310
312	1141
313	300
314	60
324	1131
325	300
326	1111
327	280
328	30
330	70
338	180
339	40
340	180
341	40
352	140
353	30
354	130
355	30
366	110
368	100
380	90
382	90
394	40
408	831
409	761
410	981
411	741
412	170
