Mass Spectrum: Benzamide, N,N-diheptyl-4-bromo-
Formula: C21 H34 Br N O
Molecular weight: 395
Origin: Zaikin V.G., TIPS RAS, Moscow, Russia
m/z	RELATIVE INTENSITY
26	90
27	270
28	130
29	340
30	100
36	30
38	40
39	250
40	60
41	811
42	480
43	661
44	280
50	170
51	80
53	60
54	50
55	460
56	290
57	410
58	60
67	50
68	40
69	110
70	170
71	40
74	70
75	250
76	550
77	230
78	40
79	30
80	70
81	30
82	70
84	170
85	40
91	60
98	90
103	80
104	1001
105	390
106	30
112	40
119	40
126	310
127	30
128	160
132	40
133	30
141	100
142	40
146	60
147	30
154	60
155	1091
156	210
157	1091
158	110
169	50
171	50
182	40
183	9879
184	801
185	9999
186	731
187	40
200	90
202	80
203	30
212	360
213	250
214	260
215	220
224	50
225	30
226	631
227	350
228	591
229	310
230	30
231	30
232	30
238	30
240	330
241	70
242	170
243	50
254	250
255	70
256	220
257	60
266	60
268	270
269	40
270	210
271	30
280	30
282	100
283	80
284	70
296	210
297	40
298	250
299	50
300	60
308	30
310	2002
311	530
312	2032
313	510
314	60
316	80
324	220
325	40
326	190
327	40
338	190
339	40
340	180
341	40
352	110
354	100
366	100
368	90
380	30
394	851
395	781
396	1041
397	791
398	190
