Mass Spectrum: Propanamide, N,N-diundecyl-3-chloro-
Formula: C25 H50 Cl N O
Molecular weight: 415
Origin: Zaikin V.G., TIPS RAS, Moscow, Russia
m/z	RELATIVE INTENSITY
25	60
26	380
27	751
28	270
29	671
30	681
35	40
36	310
37	60
38	170
39	571
40	150
41	1892
42	781
43	2432
44	2873
45	80
50	40
51	60
52	30
53	170
54	210
55	1882
56	971
57	1491
58	220
63	661
65	210
66	30
67	290
68	170
69	861
70	721
71	430
72	130
77	30
79	70
80	30
81	170
82	150
83	350
84	480
85	250
86	210
87	30
90	30
91	711
92	20
93	190
95	110
96	50
97	190
98	571
99	220
100	380
101	40
108	120
109	40
110	60
111	70
112	380
113	120
114	160
120	180
121	130
122	90
123	30
124	50
126	400
127	80
128	100
134	831
135	230
136	280
137	60
138	30
140	350
141	60
142	80
148	80
152	30
154	220
155	40
156	90
160	30
162	110
164	30
168	150
169	30
170	160
176	130
178	40
180	30
182	470
183	70
184	9999
185	1341
186	80
190	60
196	130
197	30
198	581
199	80
204	30
210	230
211	40
212	931
213	140
218	20
224	100
226	851
227	140
228	40
232	30
238	771
239	210
240	1421
241	230
252	340
253	80
254	250
255	40
260	70
262	300
263	40
264	90
266	360
267	40
268	170
274	1661
275	270
276	540
277	80
280	240
282	30
288	200
289	30
290	70
294	170
295	30
296	100
302	210
303	30
304	60
308	90
310	80
316	120
318	40
322	80
324	400
325	100
330	70
336	50
338	40
344	90
346	30
350	110
351	30
352	2793
353	731
354	90
358	80
364	50
372	70
378	60
379	130
380	4474
381	1291
382	170
386	60
400	30
414	80
415	40
416	40
