Mass Spectrum: Propanamide, N,N-dibutyl-2-bromo-
Formula: C11 H22 Br N O
Molecular weight: 263
Origin: Zaikin V.G., TIPS RAS, Moscow, Russia
m/z	RELATIVE INTENSITY
27	180
28	140
29	360
30	260
39	40
41	460
42	250
43	240
44	2082
51	30
52	60
55	190
56	150
57	1481
58	170
70	30
72	60
79	320
80	470
81	90
82	440
84	110
85	40
86	9999
87	520
98	50
100	691
101	100
106	60
107	320
109	280
111	170
128	490
135	140
137	130
142	1201
143	70
156	1712
157	130
164	30
166	40
178	330
180	360
184	4234
185	440
220	1341
221	80
222	1361
223	100
