Mass Spectrum: Octanamide, N-heptyl-N-octyl-
Formula: C23 H47 N O
Molecular weight: 353
Origin: Zaikin V.G., TIPS RAS, Moscow, Russia
m/z	RELATIVE INTENSITY
25	30
26	230
27	540
28	300
29	761
30	490
35	30
36	300
37	30
38	160
39	571
40	160
41	2292
42	861
43	2722
44	2492
45	80
50	50
51	60
52	40
53	150
54	160
55	1712
56	851
57	4364
58	370
59	50
60	100
65	40
67	340
68	150
69	711
70	611
71	520
72	260
73	420
74	40
77	50
79	110
80	40
81	210
82	170
83	310
84	510
85	210
86	440
87	621
88	40
91	50
93	40
95	130
96	90
97	190
98	500
99	160
100	480
101	300
105	30
107	40
109	190
110	60
111	110
112	310
113	130
114	550
115	180
123	50
124	40
125	60
126	490
127	781
128	9398
129	921
130	50
133	30
137	30
138	30
140	380
141	140
142	9539
143	1001
144	120
154	220
155	110
156	1872
157	430
158	100
168	210
169	50
170	4664
171	881
172	120
182	130
183	50
184	4114
185	671
186	60
187	50
191	30
196	140
197	50
198	1201
199	200
210	90
211	30
212	961
213	170
224	100
225	40
226	1171
227	220
228	110
238	60
239	30
240	410
241	80
242	120
252	160
253	30
254	9999
255	1842
256	290
257	30
266	60
268	420
269	510
270	90
280	50
282	2933
283	581
284	50
296	911
297	190
310	611
311	130
324	701
325	160
338	230
339	50
352	390
353	400
354	120
