Mass Spectrum: Benzamide, N,N-dihexyl-4-methyl-
Formula: C20 H33 N O
Molecular weight: 303
Origin: Zaikin V.G., TIPS RAS, Moscow, Russia
m/z	RELATIVE INTENSITY
28	10
41	20
43	50
44	10
55	20
57	10
58	40
65	70
89	10
90	30
91	761
92	60
105	50
112	70
114	60
118	70
119	9999
120	931
121	50
127	40
128	130
135	10
136	70
140	10
142	20
148	220
149	250
150	20
162	601
163	380
164	30
176	270
177	100
184	60
190	230
191	40
202	10
203	70
204	110
212	60
218	230
219	50
220	30
232	2202
233	641
234	70
246	230
247	40
260	270
261	60
274	150
275	20
288	50
302	1802
303	2112
304	500
305	60
