Mass Spectrum: But-2-enamide, N,N-dibutyl-3-methyl-
Formula: C13 H25 N O
Molecular weight: 211
Origin: Zaikin V.G., TIPS RAS, Moscow, Russia
m/z	RELATIVE INTENSITY
28	50
29	140
30	40
36	140
38	40
39	60
41	90
42	50
43	40
44	450
53	30
55	641
56	60
57	130
58	40
70	30
72	60
82	120
83	9999
84	661
85	40
86	2422
87	130
98	90
100	290
101	30
112	220
113	240
114	30
126	240
127	290
128	170
140	360
141	30
145	40
154	520
155	90
156	130
168	1051
169	851
170	80
173	160
182	320
183	30
196	1431
197	170
210	70
211	2102
212	350
