Mass Spectrum: Benzamide, N,N-diundecyl-2,3,4-trifluoro-
Formula: C29 H48 F3 N O
Molecular weight: 483
Origin: Zaikin V.G., TIPS RAS, Moscow, Russia
m/z	RELATIVE INTENSITY
27	60
28	30
29	90
30	40
39	50
41	250
42	120
43	370
44	180
55	310
56	140
57	260
58	30
67	40
68	30
69	200
70	110
71	80
81	40
82	20
83	110
84	80
85	40
95	30
97	80
98	40
112	40
126	30
131	160
132	60
140	30
141	80
145	30
159	9999
160	721
161	50
170	40
176	180
182	390
183	60
184	280
188	280
189	250
190	110
196	100
197	70
198	30
202	2202
203	661
204	60
210	110
211	30
212	50
216	170
217	70
224	30
228	30
230	280
231	60
242	30
244	190
245	40
258	90
272	50
286	70
300	50
313	110
314	60
322	330
323	150
324	200
325	40
328	400
329	110
330	370
331	70
336	320
337	90
340	30
342	5395
343	1812
344	290
350	30
352	80
356	581
357	180
358	30
370	240
371	70
384	130
385	40
398	150
399	50
412	120
413	40
426	100
427	40
440	110
441	40
454	120
455	30
463	120
464	280
465	80
466	30
468	70
482	480
483	2592
484	821
485	140
