Mass Spectrum: Heptafluorobutanamide, N,N-diheptyl-
Formula: C18 H30 F7 N O
Molecular weight: 409
Origin: Zaikin V.G., TIPS RAS, Moscow, Russia
m/z	RELATIVE INTENSITY
27	30
28	70
29	180
30	40
36	30
41	470
42	140
43	761
44	120
55	1561
56	270
57	1862
58	70
68	30
69	350
70	240
72	50
83	50
97	1682
98	210
126	40
128	290
142	170
156	811
157	50
169	160
170	30
210	50
212	50
214	160
222	80
226	210
227	130
228	571
240	9999
241	1571
242	140
254	60
256	50
268	170
282	30
310	160
312	821
313	80
324	3413
325	420
326	50
338	130
352	240
366	30
390	30
