Mass Spectrum: Benzamide, N-heptyl-N-octyl-4-butyl-
Formula: C26 H45 N O
Molecular weight: 387
Origin: Zaikin V.G., TIPS RAS, Moscow, Russia
m/z	RELATIVE INTENSITY
26	110
27	220
28	80
29	200
30	50
36	60
39	170
40	40
41	480
42	220
43	440
44	210
50	30
51	40
53	40
54	30
55	300
56	160
57	240
58	60
65	80
67	50
69	100
70	90
71	50
73	30
77	110
78	40
79	60
81	30
83	30
84	70
85	30
89	70
90	300
91	1151
92	140
96	40
98	40
103	90
104	100
105	200
107	30
115	60
116	30
117	70
118	561
119	280
120	30
126	70
128	50
131	200
132	60
133	150
134	50
135	70
136	40
140	70
142	130
145	30
147	60
148	30
156	90
159	130
160	60
161	9999
162	1171
163	100
177	20
178	60
190	170
191	210
193	30
204	360
205	240
206	30
218	130
219	50
226	60
232	170
233	60
246	250
247	50
254	50
259	30
260	90
274	100
275	30
288	661
289	220
290	50
302	641
303	210
304	30
316	170
317	40
330	170
331	40
344	190
345	50
358	120
359	30
372	40
386	1371
387	1091
388	270
389	30
