Mass Spectrum: Octanamide, N,N-bis(2-ethylhexyl)-
Formula: C24 H49 N O
Molecular weight: 367
Origin: Zaikin V.G., TIPS RAS, Moscow, Russia
m/z	RELATIVE INTENSITY
26	60
27	190
28	100
29	260
30	230
36	80
39	190
40	50
41	771
42	290
43	911
44	941
45	30
53	60
54	50
55	601
56	270
57	1371
58	80
60	30
67	110
68	50
69	270
70	210
71	300
72	70
73	90
79	30
81	60
82	60
83	110
84	170
85	60
86	70
87	50
95	40
96	20
97	60
98	180
99	30
100	80
109	60
111	40
112	130
113	30
114	60
115	70
126	140
127	320
128	120
140	170
141	30
142	9999
143	1001
144	130
154	50
156	390
157	70
168	80
170	400
171	130
182	30
184	611
185	80
196	40
198	90
210	30
212	110
226	80
239	30
240	140
254	30
256	100
266	30
268	1591
269	280
296	30
310	60
324	40
338	60
366	40
