Mass Spectrum: Benzamide, N-decyl-N-methyl-3-trifluoromethyl-
Formula: C19 H28 F3 N O
Molecular weight: 343
Origin: Zaikin V.G., TIPS RAS, Moscow, Russia
m/z	RELATIVE INTENSITY
36	40
41	20
43	30
44	70
55	50
57	130
69	30
126	30
145	1031
146	80
155	70
170	50
173	9999
174	931
175	50
186	40
198	430
199	60
202	731
203	170
204	440
205	40
216	4834
217	2382
218	240
230	1001
231	210
244	510
245	210
258	270
259	130
272	290
273	70
286	260
287	50
300	200
301	40
314	170
315	30
322	80
324	110
326	40
328	130
342	1291
343	1922
344	440
345	50
