Mass Spectrum: Pentanamide, N,N-dioctyl-
Formula: C21 H43 N O
Molecular weight: 325
Origin: Zaikin V.G., TIPS RAS, Moscow, Russia
m/z	RELATIVE INTENSITY
29	110
30	140
41	210
42	30
43	280
44	891
55	120
56	50
57	821
58	80
69	120
70	60
71	180
72	50
73	160
84	50
85	510
86	140
87	270
98	40
100	160
101	100
102	40
112	40
114	200
115	90
126	40
128	280
129	100
140	90
142	9999
143	1031
144	40
155	40
156	771
157	80
168	30
170	1371
171	320
172	50
184	2923
185	450
186	30
197	30
198	470
199	70
212	340
213	70
214	120
226	671
227	120
240	520
241	90
254	370
255	60
268	4794
269	871
270	70
282	120
283	220
284	30
296	941
297	180
310	90
324	100
325	240
326	130
