Mass Spectrum: Benzamide, N,N-diheptyl-4-methyl-
Formula: C22 H37 N O
Molecular weight: 331
Origin: Zaikin V.G., TIPS RAS, Moscow, Russia
m/z	RELATIVE INTENSITY
28	20
29	50
41	110
42	30
43	140
44	80
55	110
56	30
57	120
58	150
65	100
90	40
91	931
92	60
105	50
118	70
119	9999
120	851
121	40
126	80
128	50
136	100
141	30
142	140
148	170
149	200
162	390
163	250
176	130
177	40
190	190
191	50
204	180
212	30
217	40
218	40
232	120
234	20
240	30
246	1231
247	370
248	30
260	110
274	120
288	70
302	70
330	861
331	901
332	180
