Mass Spectrum: Benzamide, N-decyl-N-methyl-3-bromo-
Formula: C18 H28 Br N O
Molecular weight: 353
Origin: Zaikin V.G., TIPS RAS, Moscow, Russia
m/z	RELATIVE INTENSITY
26	150
27	470
28	210
29	530
30	40
36	30
37	40
38	70
39	420
40	90
41	1091
42	821
43	861
44	631
49	30
50	360
51	220
52	40
53	80
54	70
55	460
56	200
57	390
58	100
63	40
65	40
67	70
68	40
69	120
70	210
71	40
73	30
74	160
75	480
76	701
77	751
78	120
79	120
80	120
81	110
82	120
83	40
84	100
89	50
90	50
91	200
92	30
98	40
102	50
103	70
104	220
105	1121
106	90
116	30
117	60
118	190
119	90
130	70
131	30
132	60
133	50
134	350
135	60
139	50
146	440
147	130
148	530
149	80
155	1561
156	220
157	1541
158	170
160	120
161	30
162	260
163	20
169	30
170	50
171	30
174	30
176	100
182	40
183	9999
184	811
185	9719
186	731
187	30
190	60
196	90
198	170
199	40
200	140
201	30
202	130
204	50
212	510
213	100
214	741
215	110
216	240
218	50
224	40
226	2402
227	811
228	2372
229	761
230	70
232	30
240	480
241	70
242	440
243	60
254	380
255	50
256	350
257	50
268	90
270	90
274	801
275	150
282	100
284	90
296	80
298	60
310	60
312	60
324	50
326	40
352	490
353	310
354	530
355	310
356	60
