Mass Spectrum: Benzamide, N,N-dibutyl-2,6-difluoro-
Formula: C15 H21 F2 N O
Molecular weight: 269
Origin: Zaikin V.G., TIPS RAS, Moscow, Russia
m/z	RELATIVE INTENSITY
26	80
27	220
28	110
29	270
30	40
36	100
38	30
39	140
41	310
42	280
43	120
44	90
50	30
55	90
56	70
57	80
63	270
68	40
74	30
75	30
84	90
93	50
94	50
95	20
112	80
113	911
114	170
123	50
127	50
140	130
141	9999
142	781
143	50
152	100
158	100
164	70
165	90
166	180
170	130
171	180
184	490
185	350
186	30
198	30
206	120
207	140
208	100
212	80
214	30
220	180
221	30
226	981
227	270
240	100
250	280
251	40
268	50
269	350
270	50
