Mass Spectrum: 2-Thiopheneacetic acid, 3,4-dichlorophenyl ester
Formula: C12 H8 Cl2 O2 S
Molecular weight: 286
Origin: Zaikin V.G., TIPS RAS, Moscow, Russia
m/z	RELATIVE INTENSITY
28	40
39	100
45	440
51	20
53	450
63	110
69	90
70	90
71	50
73	40
95	70
96	490
97	9999
98	691
99	510
109	50
124	7977
125	661
126	400
133	120
135	80
145	30
161	50
162	190
163	40
164	130
286	460
287	50
288	310
289	30
290	50
