Mass Spectrum: Furan-2-carboxamide, N,N-bis(2-ethylhexyl)-
Formula: C21 H37 N O2
Molecular weight: 335
Origin: Zaikin V.G., TIPS RAS, Moscow, Russia
m/z	RELATIVE INTENSITY
28	20
43	40
55	60
57	140
69	100
71	90
81	40
82	40
83	70
95	3333
96	160
97	40
111	40
112	160
124	510
125	210
126	230
135	50
138	7727
139	761
140	60
152	50
166	80
180	50
194	380
195	30
206	70
207	140
208	70
222	90
223	70
224	220
236	9999
237	1782
238	180
278	240
279	40
292	100
306	300
307	60
335	971
336	220
