Mass Spectrum: Propanamide, N,N-diheptyl-3-phenyl-
Formula: C23 H39 N O
Molecular weight: 345
Origin: Zaikin V.G., TIPS RAS, Moscow, Russia
m/z	RELATIVE INTENSITY
29	30
30	130
41	100
43	190
44	881
55	150
56	40
57	480
58	110
69	40
70	40
72	70
77	40
79	50
84	30
86	90
91	1231
92	90
97	30
98	30
100	90
103	60
104	200
105	1261
106	210
111	40
114	280
116	50
126	100
128	9999
129	971
130	40
131	90
132	80
133	440
134	30
142	1121
143	100
150	30
156	1551
157	160
162	40
163	380
164	30
170	220
172	30
174	140
176	190
177	520
178	60
184	200
190	220
191	180
198	250
204	210
205	90
212	430
213	80
214	110
218	310
219	40
232	150
240	6105
241	1001
242	90
246	170
247	210
248	110
254	390
255	60
260	731
261	460
262	70
274	440
275	110
288	691
289	160
302	360
303	80
316	380
317	90
330	130
344	140
345	3753
346	1161
347	160
