Mass Spectrum: Benzamide, N-decyl-N-methyl-4-chloro-
Formula: C18 H28 Cl N O
Molecular weight: 309
Origin: Zaikin V.G., TIPS RAS, Moscow, Russia
m/z	RELATIVE INTENSITY
26	110
27	250
28	120
29	320
30	30
36	150
37	30
38	110
39	240
40	100
41	681
42	460
43	540
44	731
50	190
51	120
53	60
54	40
55	390
56	160
57	370
58	130
65	30
67	70
68	40
69	110
70	150
71	50
73	40
74	100
75	530
76	260
77	150
78	40
79	30
81	40
82	30
83	40
84	80
85	60
91	60
97	30
98	30
103	40
104	220
105	120
110	40
111	1822
112	190
113	591
114	80
115	30
119	40
125	50
127	30
133	30
137	40
138	30
139	9999
140	811
141	3403
142	270
152	70
154	40
155	40
156	40
168	490
169	250
170	320
171	80
172	30
182	2342
183	851
184	801
185	260
191	30
194	40
196	440
197	70
198	200
210	290
211	60
212	90
224	120
225	30
226	30
238	140
240	40
249	100
251	30
252	160
253	30
254	40
266	100
267	30
268	30
280	60
281	40
282	30
294	30
308	661
309	661
310	340
311	210
312	30
