Mass Spectrum: Pentanamide, N,N-diheptyl-5-bromo-
Formula: C19 H38 Br N O
Molecular weight: 375
Origin: Zaikin V.G., TIPS RAS, Moscow, Russia
m/z	RELATIVE INTENSITY
28	10
29	40
30	90
36	40
41	120
42	30
43	180
44	631
55	490
56	70
57	530
58	60
69	50
70	50
71	30
80	30
82	30
83	30
84	40
86	50
97	40
98	50
100	130
112	40
114	190
126	100
127	40
128	9999
129	951
135	210
137	200
142	711
143	50
154	50
156	1011
157	90
163	170
165	160
168	30
170	450
171	40
182	40
184	320
185	30
198	611
199	80
206	40
208	40
210	40
212	651
213	100
214	70
226	50
238	30
240	5125
241	851
242	60
248	90
250	80
268	821
269	150
276	30
278	90
280	60
282	50
290	530
291	90
292	540
293	80
296	4634
297	991
298	80
304	100
306	100
318	180
320	180
332	80
334	90
346	70
348	70
375	130
376	110
377	160
378	60
