Mass Spectrum: Benzamide, N,N-didecyl-2,6-difluoro-
Formula: C27 H45 F2 N O
Molecular weight: 437
Origin: Zaikin V.G., TIPS RAS, Moscow, Russia
m/z	RELATIVE INTENSITY
26	70
27	170
28	70
29	180
30	40
39	150
40	30
41	420
42	200
43	430
44	120
53	30
54	30
55	470
56	260
57	270
58	30
63	80
67	80
68	50
69	190
70	160
71	60
79	30
81	50
82	30
83	80
84	130
85	50
94	30
95	40
96	30
97	40
98	60
112	40
113	260
114	160
123	70
126	50
127	60
136	40
140	110
141	9999
142	761
143	50
152	80
154	30
158	240
164	140
165	110
166	220
168	150
170	170
171	260
172	100
178	120
179	90
180	50
184	1291
185	731
186	70
192	50
193	40
196	30
198	180
199	70
206	70
210	40
212	160
213	50
220	40
224	30
226	200
227	30
234	20
240	110
254	70
268	50
282	60
290	230
291	140
292	180
293	30
294	30
296	280
297	60
298	270
299	40
304	440
305	110
306	40
310	1922
311	731
312	110
318	60
324	330
325	90
338	230
339	50
352	120
353	30
366	120
367	30
380	100
381	20
394	100
408	90
417	100
418	591
419	160
420	30
422	40
436	210
437	550
438	160
