Mass Spectrum: Thiophene-2-carboxamide, N-(2-fluorophenyl)-
Formula: C11 H8 F N O S
Molecular weight: 221
Origin: Zaikin V.G., TIPS RAS, Moscow, Russia
m/z	RELATIVE INTENSITY
39	671
45	30
57	60
82	60
83	681
84	50
110	40
111	9999
112	621
113	460
128	60
221	4484
222	611
223	250
