Mass Spectrum: trans-Cinnamamide, N,N-dihexyl-3-trifluoromethyl-
Formula: C22 H32 F3 N O
Molecular weight: 383
Origin: Zaikin V.G., TIPS RAS, Moscow, Russia
m/z	RELATIVE INTENSITY
30	40
41	50
42	30
43	160
44	170
55	70
56	40
57	30
70	30
84	50
98	90
99	80
100	70
102	50
112	140
113	90
114	2072
115	150
126	30
127	50
128	150
140	180
141	90
142	30
151	460
152	90
154	160
168	260
169	160
170	30
171	1091
172	130
180	50
182	130
183	120
184	170
186	40
196	30
198	40
199	9999
200	1201
201	90
210	90
211	50
214	40
216	50
224	240
225	30
228	150
229	100
238	40
242	440
243	530
244	70
245	30
256	310
257	180
270	480
271	110
283	40
284	320
285	50
298	150
299	30
300	40
312	2843
313	1211
314	180
326	811
327	180
340	801
341	190
354	510
355	120
364	200
365	40
368	100
382	80
383	1341
384	430
385	60
