Mass Spectrum: 2,2-Dimethylpropanoic acid, 4-cyanophenyl ester
Formula: C12 H13 N O2
Molecular weight: 203
Origin: Zaikin V.G., TIPS RAS, Moscow, Russia
m/z	RELATIVE INTENSITY
27	70
28	280
29	701
36	40
39	230
40	30
41	1581
42	170
51	40
55	140
56	631
57	9999
58	450
63	110
64	130
69	160
70	60
75	50
79	30
85	4014
86	200
90	260
91	100
102	290
118	50
119	3463
120	1601
121	110
124	60
146	30
160	440
161	30
203	70
204	120
