Mass Spectrum: Trichloroacetamide, N,N-dihexyl-
Formula: C14 H26 Cl3 N O
Molecular weight: 329
Origin: Zaikin V.G., TIPS RAS, Moscow, Russia
m/z	RELATIVE INTENSITY
25	30
26	260
27	1171
28	681
29	1702
30	460
35	340
36	1692
37	160
38	621
39	1001
40	240
41	3984
42	2032
43	9999
44	1301
47	120
48	140
49	140
50	60
51	90
52	70
53	320
54	340
55	3143
56	1511
57	2162
58	200
63	50
65	60
66	30
67	330
68	300
69	701
70	1101
71	200
72	130
75	50
76	250
77	110
78	160
79	90
80	90
81	180
82	601
83	1651
84	1171
85	5905
86	400
89	40
90	40
91	40
93	40
94	40
95	110
96	220
97	90
98	751
99	330
100	110
105	30
106	120
108	50
110	661
111	110
112	2933
113	350
114	901
115	50
117	480
118	50
119	490
120	130
121	140
122	50
123	30
124	120
125	60
126	360
127	340
128	1161
129	80
130	70
132	90
134	30
138	170
139	100
140	1421
141	220
142	1111
143	100
144	130
146	80
148	230
150	60
152	120
153	310
154	2512
155	400
156	1411
157	110
158	230
160	360
162	370
164	150
166	130
168	200
169	60
170	40
174	571
175	60
176	941
177	70
178	520
180	260
181	30
182	150
183	40
184	901
185	120
188	9288
189	460
190	8908
191	450
192	2883
193	140
194	340
196	50
202	120
204	50
210	510
211	70
212	8638
213	1331
214	160
216	150
218	60
222	80
223	50
224	991
225	120
226	561
227	60
228	90
230	40
238	30
244	60
246	410
247	40
248	310
250	130
252	60
258	2042
259	230
260	2262
261	250
262	731
263	70
264	70
272	40
274	30
294	2172
295	350
296	1441
297	220
298	230
299	30
300	50
302	50
330	50
331	30
332	40
