Mass Spectrum: Benzamide, N,N-bis(2-ethylhexyl)-3-methyl-
Formula: C24 H41 N O
Molecular weight: 359
Origin: Zaikin V.G., TIPS RAS, Moscow, Russia
m/z	RELATIVE INTENSITY
26	30
27	50
28	20
29	60
36	110
38	30
39	80
41	210
42	90
43	170
44	110
51	30
55	140
56	70
57	200
63	30
65	150
69	70
70	60
71	30
77	30
79	30
82	30
84	40
89	70
90	100
91	1351
92	140
93	30
98	30
105	220
112	60
118	110
119	9999
120	881
121	60
133	40
134	30
135	30
136	180
140	70
148	230
149	240
150	40
160	30
162	360
163	120
176	40
177	30
190	130
191	70
204	30
218	160
219	30
230	30
231	50
232	30
246	30
247	30
248	90
258	30
260	2883
261	591
262	60
330	30
358	30
359	190
360	40
