Mass Spectrum: Furan-2-carboxamide, N,N-didecyl-
Formula: C25 H45 N O2
Molecular weight: 391
Origin: Zaikin V.G., TIPS RAS, Moscow, Russia
m/z	RELATIVE INTENSITY
29	30
41	110
42	30
43	270
44	190
55	200
56	50
57	200
58	100
69	120
70	50
71	70
81	200
82	30
83	100
84	50
85	50
95	7277
96	410
97	100
98	70
110	80
111	40
112	300
114	30
123	30
124	440
125	410
126	210
138	5855
139	1021
140	90
152	270
153	90
156	50
166	761
167	160
168	430
169	40
170	550
171	40
180	470
181	170
183	80
184	510
185	50
194	280
195	60
196	80
208	320
209	60
222	280
223	40
234	50
235	210
236	270
237	130
238	70
248	30
250	991
251	260
252	410
253	50
264	9999
265	2442
266	300
278	1481
279	340
280	50
292	1511
293	530
294	100
296	310
297	50
306	510
307	320
308	60
320	571
321	170
334	320
335	100
348	751
349	190
362	841
363	310
364	30
373	40
374	100
376	110
390	370
391	3233
392	951
393	130
