Mass Spectrum: 2-Methylpropionic acid, 3-methylphenyl ester
Formula: C11 H14 O2
Molecular weight: 178
Origin: Zaikin V.G., TIPS RAS, Moscow, Russia
m/z	RELATIVE INTENSITY
27	170
39	160
41	300
42	140
43	4114
44	90
51	70
53	70
55	30
63	30
65	130
70	2172
71	2082
72	50
77	480
78	100
79	440
80	220
90	230
91	340
107	1772
108	9999
109	651
178	2702
179	290
