Mass Spectrum: (Phenylthio)acetic acid, cyclopentyl ester
Formula: C13 H16 O2 S
Molecular weight: 236
Origin: Zaikin V.G., TIPS RAS, Moscow, Russia
m/z	RELATIVE INTENSITY
26	50
27	140
28	10
29	180
38	30
39	410
40	60
41	1581
42	240
43	80
44	110
45	1301
46	80
47	60
50	100
51	400
52	50
53	100
55	130
57	30
58	30
63	60
65	500
66	170
67	510
68	120
69	4374
70	230
74	30
75	30
76	40
77	681
78	320
79	260
82	50
83	110
84	60
85	50
91	210
94	40
95	30
97	40
105	40
108	160
109	1061
110	1151
111	140
112	50
113	70
121	350
122	130
123	9999
124	1631
125	520
126	100
150	60
151	110
168	2983
169	310
170	150
236	5555
237	811
238	310
239	30
