Mass Spectrum: Benzamide, N-heptyl-N-octyl-3-methyl-
Formula: C23 H39 N O
Molecular weight: 345
Origin: Zaikin V.G., TIPS RAS, Moscow, Russia
m/z	RELATIVE INTENSITY
26	70
27	140
28	60
29	150
30	40
35	30
36	150
38	40
39	190
40	30
41	440
42	220
43	370
44	250
50	40
51	50
53	30
54	30
55	260
56	160
57	200
58	40
63	60
65	270
67	50
69	100
70	100
71	40
73	30
77	50
79	40
80	50
81	30
82	50
83	30
84	80
89	110
90	150
91	2022
92	200
93	40
96	30
98	40
105	190
112	30
117	30
118	130
119	9999
120	881
121	60
126	70
128	40
133	60
134	40
135	30
136	130
140	70
142	60
148	240
149	190
156	50
160	30
162	410
163	260
170	50
176	130
177	60
190	170
191	80
202	40
204	230
205	40
216	40
218	80
226	50
232	90
234	30
246	751
247	240
248	50
254	70
260	691
261	220
274	160
275	40
288	140
289	30
302	110
316	80
330	60
344	731
345	851
346	210
