Mass Spectrum: Benzamide, N,N-bis(2-ethylhexyl)-3-bromo-
Formula: C23 H38 Br N O
Molecular weight: 423
Origin: Zaikin V.G., TIPS RAS, Moscow, Russia
m/z	RELATIVE INTENSITY
25	40
26	270
27	561
28	250
29	631
30	150
35	30
36	220
37	50
38	160
39	480
40	100
41	1491
42	701
43	1041
44	370
49	30
50	290
51	190
52	50
53	130
54	90
55	801
56	390
57	841
58	40
63	30
65	50
67	120
68	80
69	340
70	350
71	150
73	40
74	110
75	270
76	410
77	591
78	100
79	140
80	160
81	140
82	210
83	60
84	180
85	40
90	30
91	160
95	30
96	40
98	90
102	40
103	60
104	130
105	1191
106	110
112	170
115	30
117	40
118	40
119	40
128	20
130	60
131	30
132	40
133	40
134	110
135	30
139	40
140	260
146	480
147	80
148	60
155	951
156	190
157	951
158	90
160	30
169	40
170	30
171	40
176	160
182	60
183	9999
184	841
185	9709
186	751
187	40
188	40
190	50
200	250
201	30
202	260
212	300
213	280
214	400
215	270
216	120
226	1061
227	260
228	1001
229	240
232	50
240	40
241	30
242	30
243	30
244	70
246	190
254	160
255	40
256	130
257	30
268	70
270	40
277	40
282	200
283	30
284	170
296	60
298	30
310	40
312	260
313	50
314	230
315	20
324	1641
325	350
326	1591
327	360
328	30
344	861
345	210
366	50
368	40
394	50
396	50
422	50
423	70
424	70
425	70
