Mass Spectrum: Pentafluoropropanamide, N,N-dinonyl-
Formula: C21 H38 F5 N O
Molecular weight: 415
Origin: Zaikin V.G., TIPS RAS, Moscow, Russia
m/z	RELATIVE INTENSITY
26	70
27	210
28	130
29	320
30	40
39	250
40	60
41	1041
42	390
43	1371
44	140
50	40
51	40
53	80
54	120
55	1081
56	440
57	781
58	110
67	170
68	110
69	1241
70	310
71	390
72	70
79	30
81	110
82	90
83	791
84	210
85	220
86	20
95	50
96	50
97	120
98	140
99	70
100	70
101	30
112	120
113	50
119	230
124	30
125	110
126	110
128	30
140	80
147	60
154	180
156	220
160	30
164	130
168	30
170	440
171	50
172	60
176	340
177	220
178	460
182	100
183	30
184	1842
185	230
189	40
190	8327
191	641
192	110
196	40
198	70
202	80
204	110
205	40
210	40
211	70
212	30
216	90
218	300
219	30
224	70
225	30
226	40
230	40
232	120
238	30
244	30
246	60
260	40
266	80
268	90
288	160
290	1011
291	120
294	100
295	30
296	9999
297	1872
298	200
302	4054
303	591
304	80
316	170
330	410
331	70
344	60
358	40
372	30
386	30
396	260
397	50
414	50
416	50
