Mass Spectrum: trans-Cinnamamide, N,N-dioctyl-3-trifluoromethyl-
Formula: C26 H40 F3 N O
Molecular weight: 439
Origin: Zaikin V.G., TIPS RAS, Moscow, Russia
m/z	RELATIVE INTENSITY
30	40
41	60
43	120
44	210
55	70
56	40
57	110
69	90
70	40
71	50
84	60
98	90
99	100
112	100
113	120
126	50
128	80
140	150
142	2622
143	260
151	290
152	60
154	30
155	40
156	200
168	220
169	90
170	40
171	881
172	120
180	40
181	60
182	210
183	30
186	30
196	290
197	210
198	90
199	9999
200	1131
201	80
210	170
211	200
212	40
214	30
216	60
224	80
228	140
229	100
238	70
240	290
241	40
242	500
243	731
244	90
245	30
256	350
257	200
266	170
267	60
268	30
270	691
271	140
280	430
284	500
285	100
294	50
298	200
299	40
311	40
312	200
313	40
326	160
327	40
328	70
340	3613
341	1331
342	210
354	1071
355	270
356	30
368	1271
369	320
370	30
382	851
383	220
396	390
397	90
410	240
411	60
420	90
424	60
438	130
439	1301
440	450
441	60
