Mass Spectrum: Propanamide, N,N-diheptyl-2-methyl-
Formula: C18 H37 N O
Molecular weight: 283
Origin: Zaikin V.G., TIPS RAS, Moscow, Russia
m/z	RELATIVE INTENSITY
28	10
29	30
30	50
36	30
41	160
43	1211
44	591
55	150
57	711
58	60
69	40
70	50
71	911
72	90
73	40
84	30
86	40
87	60
88	30
100	150
101	190
114	280
115	330
126	50
128	9999
129	961
142	911
143	90
149	80
156	1021
157	90
170	140
184	200
185	190
186	110
198	801
199	160
212	410
213	50
226	260
240	2883
241	480
254	110
268	50
283	440
284	100
