Mass Spectrum: Benzamide, N-ethyl-N-(3-methylphenyl)-2,6-difluoro-
Formula: C16 H15 F2 N O
Molecular weight: 275
Origin: Zaikin V.G., TIPS RAS, Moscow, Russia
m/z	RELATIVE INTENSITY
26	40
27	80
28	10
29	30
36	50
37	30
38	40
39	210
41	70
42	60
44	30
50	120
51	160
52	80
53	40
57	50
61	30
62	90
63	641
64	90
65	430
66	30
68	50
69	30
74	70
75	70
76	30
77	220
78	120
79	70
81	40
83	50
88	40
89	110
90	60
91	891
92	130
93	100
94	70
104	80
105	30
106	40
107	60
108	50
111	40
112	90
113	1501
114	290
117	40
118	410
119	440
120	140
127	30
132	100
133	110
134	420
135	70
139	50
140	621
141	9999
142	751
143	40
158	80
168	821
169	80
183	40
192	90
232	40
240	220
241	30
246	30
247	360
248	50
251	260
252	30
254	40
255	80
256	641
257	110
260	60
274	170
275	1601
276	280
