Mass Spectrum: Hexanamide, N,N-bis(2-ethylhexyl)-6-chloro-
Formula: C22 H44 Cl N O
Molecular weight: 373
Origin: Zaikin V.G., TIPS RAS, Moscow, Russia
m/z	RELATIVE INTENSITY
25	40
26	290
27	671
28	10
29	410
30	160
35	130
36	561
37	80
38	270
39	681
40	150
41	1561
42	520
43	911
44	1181
45	80
49	30
50	160
51	190
52	120
53	180
54	140
55	1501
56	330
57	741
58	120
59	60
60	210
63	90
65	70
66	30
67	250
68	190
69	1621
70	370
71	300
72	110
73	210
74	40
75	90
76	60
77	130
78	100
79	390
80	420
81	290
82	470
83	140
84	230
85	70
86	110
87	90
91	100
93	40
94	30
95	80
96	140
97	210
98	190
99	40
100	120
102	60
105	90
106	130
107	50
109	40
110	70
111	691
112	270
113	50
114	240
115	130
119	30
121	30
122	30
123	50
124	30
126	130
127	50
128	170
130	110
131	30
132	30
133	520
134	60
135	220
138	30
139	50
140	250
141	60
142	9999
143	1071
144	50
147	50
148	40
149	40
150	80
152	40
153	50
154	90
155	70
156	430
157	80
162	80
163	50
164	50
166	30
168	70
170	450
171	90
176	110
177	90
178	50
179	50
182	60
183	270
184	380
185	310
191	70
193	40
196	60
198	140
204	40
210	40
212	120
216	30
217	30
226	150
228	50
232	50
238	60
240	500
241	80
262	120
264	30
268	751
269	130
274	1201
275	190
276	380
277	60
296	30
310	140
316	40
338	40
344	50
