Mass Spectrum: Cyclopropanecarboxamide, N-ethyl-N-(3-methylphenyl)-
Formula: C13 H17 N O
Molecular weight: 203
Origin: Zaikin V.G., TIPS RAS, Moscow, Russia
m/z	RELATIVE INTENSITY
25	40
26	230
27	530
28	150
29	380
30	20
37	60
38	160
39	1832
40	280
41	4384
42	270
43	30
44	70
50	180
51	420
52	220
53	150
54	50
55	160
62	60
63	340
64	130
65	1481
66	140
67	40
68	250
69	5625
70	270
74	30
75	50
76	90
77	771
78	360
79	280
80	80
89	340
90	230
91	3193
92	450
93	140
96	490
97	40
98	120
102	30
103	90
104	280
105	180
106	380
107	781
108	80
111	30
115	110
116	80
117	230
118	1291
119	821
120	9999
121	901
122	30
130	130
131	110
132	450
133	611
134	1041
135	8888
136	861
137	30
144	100
145	50
146	210
147	50
148	280
149	771
150	60
158	30
160	200
161	50
162	90
174	270
175	420
176	40
188	400
189	40
202	480
203	4994
204	711
205	50
