Mass Spectrum: trans-Cinnamamide, N,N-dinonyl-3-trifluoromethyl-
Formula: C28 H44 F3 N O
Molecular weight: 467
Origin: Zaikin V.G., TIPS RAS, Moscow, Russia
m/z	RELATIVE INTENSITY
30	40
41	60
43	160
44	240
55	100
56	50
57	100
69	80
70	40
71	50
83	40
84	60
85	30
98	100
99	120
112	110
113	140
126	50
140	30
142	80
151	230
152	50
154	170
156	2973
157	320
168	30
169	30
170	210
171	781
172	100
180	30
181	60
182	250
183	90
184	60
186	30
196	250
197	40
198	40
199	9999
200	1161
201	80
210	280
211	230
212	50
214	30
216	60
224	210
225	230
226	50
228	140
229	110
238	100
242	510
243	781
244	100
245	40
252	30
256	400
257	210
258	30
266	60
268	350
269	50
270	821
271	180
280	30
284	561
285	120
294	230
295	90
296	50
298	200
299	50
308	601
309	130
312	170
313	50
322	40
325	60
326	210
327	30
340	190
341	60
342	90
354	4344
355	1631
356	280
368	1281
369	330
370	40
382	1631
383	420
384	40
396	1121
397	300
398	30
410	470
411	130
424	300
425	80
438	220
439	60
448	130
449	30
452	100
466	200
467	1511
468	571
469	90
