Mass Spectrum: Dichloroacetamide, N,N-diheptyl-
Formula: C16 H31 Cl2 N O
Molecular weight: 323
Origin: Zaikin V.G., TIPS RAS, Moscow, Russia
m/z	RELATIVE INTENSITY
25	60
26	440
27	1351
28	831
29	2072
30	711
35	310
36	1051
37	170
38	490
39	1171
40	430
41	6416
42	2973
43	5525
44	3183
45	110
47	160
48	260
49	310
50	190
51	200
52	130
53	500
54	500
55	5365
56	2092
57	9348
58	611
63	40
64	50
65	100
66	60
67	510
68	410
69	1411
70	1201
71	320
72	240
73	50
74	30
75	80
76	561
77	300
78	240
79	160
80	80
81	270
82	350
83	881
84	1021
85	651
86	110
87	50
90	50
91	120
92	70
93	60
94	120
95	130
96	250
97	911
98	841
99	350
100	70
104	30
105	60
106	390
107	60
108	160
109	40
110	140
111	100
112	591
113	190
114	120
118	40
119	90
120	681
121	80
122	230
124	80
126	1291
127	150
128	1031
129	60
130	110
132	80
133	30
134	50
138	40
139	60
140	1081
141	250
142	2182
143	180
144	470
146	110
148	40
152	30
154	9999
155	651
156	6496
157	811
158	1041
159	80
160	80
162	100
166	30
168	490
169	50
170	160
174	80
176	40
182	210
183	70
184	100
190	520
191	60
192	290
194	70
196	100
197	30
198	110
202	160
204	1241
205	130
206	380
207	90
208	30
210	90
212	370
213	40
218	60
224	60
226	390
228	230
230	60
232	40
238	1862
239	230
240	9589
241	1601
242	250
252	340
253	40
254	130
260	90
266	110
268	90
274	220
276	60
280	40
282	30
288	3603
289	611
290	1211
291	190
324	30
