Mass Spectrum: Benzamide, N-(2-fluorophenyl)-2-fluoro-
Formula: C13 H9 F2 N O
Molecular weight: 233
Origin: Zaikin V.G., TIPS RAS, Moscow, Russia
m/z	RELATIVE INTENSITY
57	40
69	30
75	410
76	30
83	190
94	80
95	1882
96	140
122	30
123	9999
124	761
125	40
140	30
233	5125
234	751
235	50
