Mass Spectrum: Benzamide, N,N-didecyl-4-trifluoromethyl-
Formula: C28 H46 F3 N O
Molecular weight: 469
Origin: Zaikin V.G., TIPS RAS, Moscow, Russia
m/z	RELATIVE INTENSITY
28	20
41	50
43	140
44	80
55	110
56	40
57	160
69	70
71	30
83	70
97	30
98	30
112	40
145	440
146	30
154	30
155	30
159	40
168	260
169	30
170	210
173	9999
174	921
175	40
183	50
190	170
196	30
198	180
202	290
203	290
204	70
216	2472
217	911
218	80
230	270
231	110
244	490
245	140
258	340
259	90
272	170
273	30
286	140
287	30
294	30
296	130
300	80
313	240
314	90
324	390
325	90
328	571
329	170
330	320
331	50
342	8868
343	2853
344	420
345	30
356	681
357	200
370	400
371	120
384	210
385	60
398	250
399	60
412	230
413	60
426	190
427	40
440	180
441	40
450	140
451	40
452	30
454	90
468	2913
469	3113
470	931
471	150
