Mass Spectrum: Benzamide, N,N-dinonyl-4-methyl-
Formula: C26 H45 N O
Molecular weight: 387
Origin: Zaikin V.G., TIPS RAS, Moscow, Russia
m/z	RELATIVE INTENSITY
28	10
41	40
43	70
44	40
55	50
57	50
58	80
69	20
91	490
92	30
105	40
118	60
119	9999
120	901
121	50
136	80
148	180
149	300
154	120
156	100
162	510
163	370
169	30
170	280
176	170
177	70
184	20
190	220
191	90
204	270
205	70
218	240
219	50
232	90
245	90
246	40
260	240
261	80
262	70
268	100
274	2542
275	931
276	120
288	250
289	60
296	100
302	280
303	70
316	170
317	40
330	200
331	50
344	170
345	40
358	150
359	30
372	40
386	2232
387	2002
388	520
389	60
