Mass Spectrum: 4-Nitrobenzoic acid, 3,4-dichlorophenyl ester
Formula: C13 H7 Cl2 N O4
Molecular weight: 311
Origin: Zaikin V.G., TIPS RAS, Moscow, Russia
m/z	RELATIVE INTENSITY
28	10
36	130
44	70
50	110
63	50
64	50
65	60
74	10
75	180
76	831
77	40
92	520
103	10
104	1571
105	80
111	10
119	20
120	1051
121	90
122	10
130	30
133	30
134	100
135	10
136	10
139	10
150	9999
151	781
152	40
162	10
167	70
311	480
312	20
313	270
314	10
315	50
