Mass Spectrum: Trichloroacetamide, N-(2-fluorophenyl)-
Formula: C8 H5 Cl3 F N O
Molecular weight: 255
Origin: Zaikin V.G., TIPS RAS, Moscow, Russia
m/z	RELATIVE INTENSITY
27	30
31	60
39	120
50	100
51	130
52	70
55	30
56	60
57	671
61	70
62	130
63	110
64	120
68	70
69	110
70	40
75	500
81	220
83	601
89	90
90	971
91	110
94	70
95	140
102	110
108	30
109	260
110	3763
111	260
118	170
122	100
137	621
138	9999
139	831
140	40
150	110
156	230
157	30
158	60
184	761
185	80
186	270
187	40
192	150
194	50
220	240
221	220
222	170
223	50
224	30
255	1221
256	110
257	1151
258	100
259	380
261	40
