Mass Spectrum: Benzamide, N,N-diundecyl-3-methyl-
Formula: C30 H53 N O
Molecular weight: 443
Origin: Zaikin V.G., TIPS RAS, Moscow, Russia
m/z	RELATIVE INTENSITY
25	30
26	160
27	270
28	110
29	280
30	60
38	50
39	300
40	70
41	641
42	260
43	741
44	260
50	50
51	60
53	70
54	80
55	490
56	250
57	400
58	30
63	40
65	160
67	110
68	40
69	190
70	190
71	100
73	60
77	60
78	30
79	40
80	40
81	60
82	80
83	100
84	120
85	50
89	70
90	80
91	1311
92	150
93	60
95	40
97	70
98	70
105	220
106	30
112	40
117	40
118	130
119	9999
120	951
121	50
126	30
133	50
134	50
135	30
136	100
147	50
148	200
149	210
150	30
160	20
162	370
163	220
176	120
177	30
182	200
184	90
190	160
191	90
193	40
198	90
204	220
205	40
212	40
218	90
232	60
246	70
260	70
267	40
273	40
274	40
288	230
289	80
290	110
300	40
302	1992
303	831
304	140
316	210
317	50
324	80
330	270
331	70
344	140
345	30
352	130
358	170
359	40
372	140
373	30
386	160
387	40
400	140
401	40
414	110
415	30
428	120
441	30
442	1661
443	1752
444	550
445	60
