Mass Spectrum: 1-(Trihexylsilyloxy)tetradecane
Formula: C32 H68 O Si
Molecular weight: 496
Origin: Zaikin V.G., TIPS RAS, Moscow, Russia
m/z	RELATIVE INTENSITY
25	20
26	210
27	410
28	150
29	390
38	50
39	400
40	100
41	1081
42	440
43	1521
44	120
45	260
47	190
50	50
51	30
53	80
54	100
55	1071
56	470
57	1651
58	50
59	310
61	520
65	30
67	270
68	80
69	1091
70	170
71	941
72	40
73	470
74	60
75	510
77	60
79	60
80	20
81	240
82	100
83	1591
84	210
85	811
86	70
87	591
88	40
89	220
91	40
93	30
95	180
96	80
97	1351
98	110
99	340
100	30
101	1341
102	130
103	130
109	100
110	30
111	801
112	80
113	1381
114	160
115	1191
116	100
117	90
121	30
123	60
125	350
127	160
128	30
129	490
130	50
131	430
132	50
139	120
141	90
143	340
145	190
149	30
151	40
153	30
155	70
157	330
169	40
171	340
179	50
185	320
186	30
197	40
199	350
200	50
213	90
215	60
227	80
229	80
241	330
242	50
243	70
255	260
256	40
269	170
270	30
283	70
297	40
325	390
326	100
327	3623
328	991
329	230
409	30
411	9999
412	3213
413	851
414	120
425	30
