Mass Spectrum: Benzamide, N-(2-fluorophenyl)-4-trifluoromethyl-
Formula: C14 H9 F4 N O
Molecular weight: 283
Origin: Zaikin V.G., TIPS RAS, Moscow, Russia
m/z	RELATIVE INTENSITY
75	70
83	180
95	280
125	130
126	100
144	30
145	3703
146	270
173	9999
174	831
264	190
283	5205
284	831
285	30
