Mass Spectrum: Propanamide, N,N-didecyl-3-phenyl-
Formula: C29 H51 N O
Molecular weight: 429
Origin: Zaikin V.G., TIPS RAS, Moscow, Russia
m/z	RELATIVE INTENSITY
28	40
30	120
41	70
43	300
44	961
55	140
56	30
57	290
58	90
69	100
70	50
71	130
72	50
83	70
84	40
85	110
86	70
91	831
92	50
97	50
98	30
100	80
104	170
105	1011
106	150
112	40
114	50
128	50
131	70
132	40
133	360
156	240
157	30
158	40
163	300
168	120
170	9489
171	1221
172	50
176	140
177	430
178	30
184	1171
185	130
190	140
191	140
196	30
198	1952
199	220
204	170
205	70
212	250
214	60
216	140
218	210
219	40
226	190
232	120
233	30
240	300
246	130
247	30
254	140
260	90
268	90
274	100
282	110
288	140
289	240
290	160
296	641
297	140
298	110
302	781
303	550
304	90
316	450
317	110
324	9999
325	2362
326	260
330	651
331	170
338	360
339	70
344	390
345	100
358	370
359	90
372	420
373	120
386	420
387	110
400	380
401	90
414	110
428	390
429	3693
430	1261
431	190
