Mass Spectrum: Phosphoric acid, trihexyl ester
Formula: C18 H39 O4 P
Molecular weight: 350
Origin: Zaikin V.G., Institute of Petrochemical Synthesis RAS
m/z	RELATIVE INTENSITY
27	100
29	120
39	110
41	420
42	180
43	731
53	40
54	70
55	510
56	270
57	110
67	100
68	30
69	130
81	40
82	70
83	180
84	100
85	180
99	9999
101	70
111	50
112	60
113	160
125	250
126	30
127	270
139	90
141	30
153	110
165	50
167	30
181	50
183	2082
184	140
211	180
267	2092
268	270
269	30
321	30
351	90
