Mass Spectrum: Benzamide, N,N-dibutyl-3-fluoro-
Formula: C15 H22 F N O
Molecular weight: 251
Origin: Zaikin V.G., TIPS RAS, Moscow, Russia
m/z	RELATIVE INTENSITY
27	40
28	30
29	90
39	30
41	100
42	100
43	50
55	40
56	30
57	60
75	130
84	70
94	50
95	1381
96	140
109	150
122	50
123	9999
124	651
125	40
140	50
152	290
153	230
156	30
166	410
167	190
179	40
180	30
194	100
208	1521
209	380
210	30
222	80
250	420
251	741
252	120
