Mass Spectrum: Propanamide, N,N-diheptyl-3-cyclopentyl-
Formula: C22 H43 N O
Molecular weight: 337
Origin: Zaikin V.G., TIPS RAS, Moscow, Russia
m/z	RELATIVE INTENSITY
26	40
27	90
28	50
29	130
30	150
36	60
39	110
40	50
41	500
42	150
43	440
44	851
45	60
53	50
54	70
55	1091
56	210
57	781
58	100
60	60
65	10
67	260
68	80
69	380
70	160
71	80
72	110
73	210
74	20
77	30
79	250
80	80
81	350
82	90
83	130
84	140
85	60
86	230
87	360
88	20
91	30
93	20
95	140
96	50
97	250
98	150
99	60
100	240
101	160
105	20
107	380
108	40
109	40
110	20
111	50
112	110
113	50
114	360
115	90
116	20
123	40
124	40
125	260
126	270
127	50
128	9999
129	951
130	40
137	10
138	20
140	70
141	130
142	771
143	70
154	130
155	40
156	1261
157	330
158	130
166	30
168	80
169	40
170	7357
171	1071
172	90
182	100
183	40
184	951
185	130
196	100
197	30
198	581
199	100
210	190
211	30
212	721
213	130
214	100
223	10
224	110
225	20
226	270
227	40
238	240
239	50
240	6866
241	1171
242	110
244	30
245	80
252	300
253	70
254	30
255	991
256	190
257	20
266	190
267	30
268	3783
269	751
270	70
280	370
281	50
294	250
295	50
308	230
309	50
322	100
323	20
336	240
337	180
338	70
