Mass Spectrum: Pentanamide, N-ethyl-N-(3-methylphenyl)-5-bromo-
Formula: C14 H20 Br N O
Molecular weight: 297
Origin: Zaikin V.G., TIPS RAS, Moscow, Russia
m/z	RELATIVE INTENSITY
27	70
29	200
39	70
41	60
42	40
44	40
55	1161
56	40
57	30
65	180
77	110
78	30
79	70
83	50
91	871
92	120
93	70
100	40
101	70
104	40
105	80
106	110
107	210
109	30
118	420
119	470
120	8948
121	841
132	100
133	130
134	1191
135	9999
136	1131
137	460
162	510
163	240
164	130
165	190
190	1591
191	250
192	290
193	30
198	50
204	50
217	30
218	7787
219	1241
220	70
297	1351
298	230
299	1311
300	200
