Mass Spectrum: But-2-enamide, N,N-dinonyl-3-methyl-
Formula: C23 H45 N O
Molecular weight: 351
Origin: Zaikin V.G., TIPS RAS, Moscow, Russia
m/z	RELATIVE INTENSITY
29	60
30	60
41	100
43	210
44	290
55	440
56	60
57	140
58	40
69	100
70	50
71	80
82	100
83	9999
84	591
85	70
98	100
100	40
112	250
113	260
126	380
127	410
128	40
140	300
141	130
142	90
154	561
155	110
156	4414
157	490
168	290
169	70
170	581
171	60
182	300
183	80
184	120
196	190
197	100
198	40
210	470
211	110
212	60
224	981
225	350
226	150
238	2752
239	951
240	170
252	1982
253	390
254	70
266	1601
267	320
268	480
269	110
280	581
281	50
294	751
295	170
296	781
297	160
308	621
309	220
322	270
323	50
336	2793
337	691
338	70
350	230
351	2362
352	911
353	150
