Mass Spectrum: Hexanamide, N-ethyl-N-(3-methylphenyl)-6-chloro-
Formula: C15 H22 Cl N O
Molecular weight: 267
Origin: Zaikin V.G., TIPS RAS, Moscow, Russia
m/z	RELATIVE INTENSITY
25	30
26	140
27	370
28	180
29	460
37	40
38	60
39	430
40	80
41	1471
42	160
43	440
44	40
49	120
50	90
51	230
52	120
53	160
54	50
55	290
56	30
62	100
63	460
64	110
65	931
66	90
67	90
69	1431
70	150
72	70
75	30
76	60
77	591
78	250
79	190
87	90
88	30
89	260
90	230
91	2803
92	420
93	150
96	50
103	70
104	260
105	220
106	1041
107	480
108	100
115	30
116	50
117	160
118	1201
119	1051
120	9999
121	951
122	30
130	30
131	50
132	410
133	591
134	1752
135	8297
136	951
137	20
144	40
146	60
148	70
149	991
150	80
160	300
161	40
162	370
163	30
174	50
175	50
176	380
177	1732
178	210
188	30
190	450
191	40
204	190
218	40
232	671
233	100
266	40
267	751
268	150
269	250
270	40
