Mass Spectrum: 2-Methylpropionic acid, 4-cyanophenyl ester
Formula: C11 H11 N O2
Molecular weight: 189
Origin: Zaikin V.G., TIPS RAS, Moscow, Russia
m/z	RELATIVE INTENSITY
27	380
28	110
39	290
41	891
42	200
43	8818
44	220
51	50
55	50
63	160
64	350
65	40
70	230
71	9999
72	390
75	80
76	30
90	370
91	410
92	30
102	330
118	40
119	6906
120	641
189	370
