Mass Spectrum: Thiophene-2-carboxamide, N,N-diundecyl-
Formula: C27 H49 N O S
Molecular weight: 435
Origin: Zaikin V.G., TIPS RAS, Moscow, Russia
m/z	RELATIVE INTENSITY
41	70
43	210
44	100
55	120
56	40
57	180
58	130
69	70
70	30
71	60
83	30
84	40
85	30
97	130
98	90
111	9999
112	721
113	490
122	30
128	100
136	40
140	140
141	290
142	30
154	711
155	380
156	60
168	80
169	30
170	50
182	791
183	140
184	390
185	40
196	200
197	130
198	801
199	90
210	130
211	30
224	90
238	250
239	50
248	180
252	80
253	30
262	791
263	140
264	30
265	170
266	80
276	120
280	460
281	60
282	180
290	70
294	5115
295	1201
296	350
297	50
308	250
309	40
322	210
323	70
324	240
325	40
336	110
337	70
350	200
351	60
364	140
365	30
378	90
392	80
402	5305
403	1531
404	220
406	110
407	50
420	60
434	230
435	1461
436	440
437	120
