Mass Spectrum: 2-Thiopheneacetic acid, 3-methylphenyl ester
Formula: C13 H12 O2 S
Molecular weight: 232
Origin: Zaikin V.G., TIPS RAS, Moscow, Russia
m/z	RELATIVE INTENSITY
28	40
39	110
45	350
51	50
52	30
53	400
63	40
65	80
69	70
70	70
71	40
77	170
78	40
79	110
91	120
95	50
96	661
97	7427
98	500
99	340
107	250
108	520
109	40
124	9999
125	761
126	480
232	731
233	100
234	30
