Mass Spectrum: Bromoacetic acid, 2-naphthyl ester
Formula: C12 H9 Br O2
Molecular weight: 264
Origin: Zaikin V.G., TIPS RAS, Moscow, Russia
m/z	RELATIVE INTENSITY
28	30
36	80
39	30
44	30
63	80
65	100
79	60
80	60
82	70
89	140
109	40
110	30
114	60
115	1441
116	320
119	60
121	80
123	120
124	30
127	120
128	30
139	150
143	50
144	9999
145	1071
146	50
264	981
265	110
266	991
267	110
