Mass Spectrum: (Phenylthio)acetic acid, 2-phenylethyl ester
Formula: C16 H16 O2 S
Molecular weight: 272
Origin: Zaikin V.G., TIPS RAS, Moscow, Russia
m/z	RELATIVE INTENSITY
26	30
27	110
29	90
39	280
41	290
42	90
43	110
44	50
45	1111
46	50
47	50
50	120
51	440
52	70
53	50
55	480
56	30
57	280
58	30
63	100
65	631
66	100
67	100
68	30
69	561
70	30
71	80
74	30
75	30
76	50
77	1061
78	380
79	741
80	50
81	80
82	50
83	1011
84	100
89	80
90	40
91	991
92	110
95	40
97	390
98	30
102	50
103	520
104	3193
105	2853
106	250
108	100
109	901
110	370
111	60
117	50
121	220
122	90
123	4704
124	661
125	240
126	30
133	40
135	30
139	80
165	30
168	9999
169	951
170	520
171	40
272	4154
273	791
274	270
275	40
