Mass Spectrum: Pentanamide, N,N-dibutyl-5-bromo-
Formula: C13 H26 Br N O
Molecular weight: 291
Origin: Zaikin V.G., TIPS RAS, Moscow, Russia
m/z	RELATIVE INTENSITY
27	70
29	350
30	270
39	40
41	290
42	90
43	70
44	540
53	30
55	841
56	100
57	851
58	60
65	30
70	40
72	120
84	100
86	9999
87	550
100	821
112	30
114	500
120	530
128	500
129	30
135	550
137	310
142	230
156	2192
157	200
160	40
163	200
165	170
170	290
184	631
185	50
198	160
212	2863
213	400
248	320
249	40
250	340
251	40
262	40
264	40
291	130
293	140
