Mass Spectrum: Acetoxyacetic acid, 4-pentadecyl ester
Formula: C19 H36 O4
Molecular weight: 328
Origin: Zaikin V.G., TIPS RAS, Moscow, Russia
m/z	RELATIVE INTENSITY
25	40
26	290
27	761
28	80
29	1571
30	70
31	80
39	671
40	150
41	3833
42	1101
43	8047
44	871
45	150
50	60
51	80
52	70
53	230
54	540
55	4224
56	2102
57	5665
58	290
60	70
61	170
65	40
66	60
67	821
68	611
69	2732
70	1822
71	3223
72	180
73	3163
74	440
75	50
77	80
78	50
79	200
80	50
81	490
82	721
83	2022
84	981
85	1992
86	250
87	40
91	641
93	50
95	300
96	460
97	1732
98	550
99	540
100	30
101	9999
102	420
103	60
109	120
110	260
111	941
112	370
113	310
115	30
119	1331
120	40
123	60
124	140
125	420
126	210
127	210
128	60
138	80
139	160
140	150
141	150
152	50
153	70
154	60
155	80
167	60
169	30
173	30
182	110
183	90
191	20
210	470
211	170
227	30
