Mass Spectrum: Pentafluoropropanoic acid, 4-benzyloxyphenyl ester
Formula: C16 H11 F5 O3
Molecular weight: 346
Origin: Zaikin V.G., TIPS RAS, Moscow, Russia
m/z	RELATIVE INTENSITY
28	20
39	60
41	20
51	30
52	10
54	10
63	50
64	30
65	540
66	20
69	50
77	10
82	10
89	80
90	70
91	9999
92	781
93	20
109	10
115	10
119	270
130	10
144	40
147	40
152	10
153	10
183	30
346	631
347	100
