Mass Spectrum: Propanamide, N-(2-fluorophenyl)-2-chloro-
Formula: C9 H9 Cl F N O
Molecular weight: 201
Origin: Zaikin V.G., TIPS RAS, Moscow, Russia
m/z	RELATIVE INTENSITY
27	70
39	40
55	80
57	100
63	350
65	20
72	30
75	60
77	60
78	30
83	611
84	90
90	80
91	50
95	50
104	20
110	1321
111	9999
112	681
137	110
138	3934
139	220
166	30
173	20
201	5705
202	500
203	1922
204	70
