Mass Spectrum: 2-Methylpropionic acid, 4-chlorophenyl ester
Formula: C10 H11 Cl O2
Molecular weight: 198
Origin: Zaikin V.G., TIPS RAS, Moscow, Russia
m/z	RELATIVE INTENSITY
27	330
28	20
36	60
38	20
39	330
41	801
42	340
43	9999
44	320
50	20
51	20
55	70
62	10
63	190
64	170
65	490
69	20
70	5195
71	8558
72	330
73	250
74	10
75	240
79	10
92	30
93	70
99	500
100	300
101	160
102	70
107	20
108	30
109	100
111	310
113	80
124	140
127	140
128	9048
129	621
130	3053
131	150
198	2442
199	220
200	831
201	50
