Mass Spectrum: l-Proline, N-butyryl-, methyl ester
Formula: C10 H17 N O3
Molecular weight: 199
Origin: Zaikin V.G., TIPS RAS, Moscow, Russia
m/z	RELATIVE INTENSITY
27	180
28	10
29	30
39	110
40	30
41	500
42	190
43	801
44	80
55	120
56	40
59	70
68	280
69	200
70	9999
71	771
72	30
82	30
83	30
85	30
88	80
96	40
111	40
112	130
113	30
120	50
128	320
140	2552
141	230
167	60
168	50
171	90
199	490
200	60
