Mass Spectrum: Thiophene-2-carboxamide, N,N-dihexyl-
Formula: C17 H29 N O S
Molecular weight: 295
Origin: Zaikin V.G., TIPS RAS, Moscow, Russia
m/z	RELATIVE INTENSITY
29	30
39	80
41	80
42	30
43	190
44	50
55	60
56	30
57	40
58	70
83	90
97	90
111	9999
112	811
113	490
114	130
122	70
127	190
128	350
136	40
140	180
141	250
154	530
155	320
156	40
168	190
169	50
178	130
182	210
183	30
184	90
192	350
193	40
195	70
196	70
206	70
210	240
211	40
212	60
220	30
224	2983
225	540
226	170
238	130
252	110
253	30
262	2152
263	390
264	30
266	70
294	60
295	1041
296	230
297	60
