Mass Spectrum: Propanamide, N-decyl-N-methyl-3-cyclopentyl-
Formula: C19 H37 N O
Molecular weight: 295
Origin: Zaikin V.G., TIPS RAS, Moscow, Russia
m/z	RELATIVE INTENSITY
26	40
27	160
28	100
29	250
30	90
38	20
39	190
40	60
41	951
42	330
43	671
44	6336
45	290
51	10
53	110
54	120
55	1852
56	260
57	711
58	741
59	50
60	20
65	30
66	30
67	410
68	130
69	601
70	260
71	220
72	140
73	731
74	280
77	20
79	400
80	110
81	480
82	120
83	190
84	100
85	170
86	1111
87	3033
88	180
91	20
93	20
94	20
95	140
96	30
97	360
98	200
99	90
100	1081
101	711
102	30
107	611
108	60
109	40
110	30
111	30
112	150
113	60
114	941
115	290
123	30
124	40
125	420
126	160
127	40
128	540
129	80
138	20
139	10
140	80
141	30
142	591
143	100
153	10
154	120
155	40
156	751
157	100
168	270
169	140
170	721
171	180
172	200
182	260
183	40
184	230
185	20
196	530
197	80
198	9999
199	1441
200	130
210	200
211	40
212	160
213	1752
214	280
215	20
224	160
225	30
226	3863
227	611
228	50
238	170
239	30
252	280
253	50
266	220
267	40
280	100
293	20
294	160
295	130
296	40
