Mass Spectrum: Benzamide, N,N-dinonyl-3-methoxy-
Formula: C26 H45 N O2
Molecular weight: 403
Origin: Zaikin V.G., TIPS RAS, Moscow, Russia
m/z	RELATIVE INTENSITY
41	50
43	110
44	60
55	60
57	60
58	40
69	40
71	20
77	130
92	60
107	500
108	70
109	30
121	1732
122	150
134	30
135	9999
136	951
137	70
151	70
152	70
154	160
156	120
164	210
165	350
166	30
169	30
170	150
178	440
179	390
180	30
184	70
192	150
193	80
206	270
207	60
220	290
221	60
234	190
235	50
248	100
261	100
262	60
268	140
276	250
277	100
278	80
288	30
290	2222
291	1091
292	180
296	200
297	30
304	270
305	90
318	330
319	90
332	200
333	50
346	220
347	60
360	200
361	60
374	170
375	40
388	120
402	2692
403	3153
404	911
405	130
