Mass Spectrum: 2-Thiopheneacetamide, N-decyl-N-methyl-
Formula: C17 H29 N O S
Molecular weight: 295
Origin: Zaikin V.G., TIPS RAS, Moscow, Russia
m/z	RELATIVE INTENSITY
28	80
29	220
36	90
39	40
41	601
42	140
43	3243
44	1661
45	70
53	120
55	530
56	80
57	6025
58	290
69	250
70	60
71	4204
72	510
83	150
85	5025
86	310
96	50
97	1631
98	480
99	961
100	50
111	50
112	30
119	30
124	100
141	30
155	30
168	90
169	140
170	100
196	50
198	9999
199	1321
200	50
212	50
295	1792
296	330
297	80
