Mass Spectrum: Hexanamide, N-ethyl-N-(3-methylphenyl)-6-bromo-
Formula: C15 H22 Br N O
Molecular weight: 311
Origin: Zaikin V.G., TIPS RAS, Moscow, Russia
m/z	RELATIVE INTENSITY
27	120
29	380
39	230
41	631
43	70
51	110
52	60
53	80
62	40
63	170
64	60
65	781
66	70
69	430
70	30
72	30
77	440
78	200
79	100
87	40
89	220
90	150
91	2602
92	370
93	170
100	30
103	50
104	250
105	200
106	931
107	611
108	110
109	130
115	30
116	60
117	180
118	1431
119	1211
120	9999
121	941
131	70
132	430
133	430
134	1852
135	9098
136	1041
142	50
144	50
145	40
146	70
148	70
149	991
150	80
159	230
160	60
162	260
170	130
173	40
174	60
175	90
176	340
177	2002
178	230
183	30
184	50
188	60
189	50
190	300
204	140
206	60
226	140
232	400
233	60
311	140
313	140
