Mass Spectrum: Propanamide, N-(2-fluorophenyl)-2-methyl-
Formula: C10 H12 F N O
Molecular weight: 181
Origin: Zaikin V.G., TIPS RAS, Moscow, Russia
m/z	RELATIVE INTENSITY
39	70
41	270
43	2913
44	290
70	130
71	821
83	80
84	70
86	430
91	110
95	200
110	150
111	9999
112	961
123	50
138	110
181	1661
182	70
