Mass Spectrum: Phenylacetamide, N,N-dioctyl-
Formula: C24 H41 N O
Molecular weight: 359
Origin: Zaikin V.G., TIPS RAS, Moscow, Russia
m/z	RELATIVE INTENSITY
26	80
27	210
28	170
29	430
30	440
36	40
39	210
40	50
41	1071
42	410
43	2102
44	1491
45	40
50	30
51	40
53	50
54	50
55	811
56	430
57	5085
58	310
63	60
65	230
67	80
68	50
69	561
70	300
71	4794
72	340
73	30
77	30
79	30
81	50
82	40
83	90
84	220
85	140
86	100
89	180
90	280
91	4564
92	1071
93	80
95	30
97	30
98	240
99	140
100	100
104	170
105	100
106	80
107	30
111	30
112	190
113	180
114	60
117	60
118	540
119	130
120	70
123	30
126	150
127	30
128	190
133	30
134	40
135	30
136	60
140	280
141	30
142	9999
143	991
144	40
146	30
148	120
149	220
150	30
154	50
156	1381
157	140
162	140
163	280
164	30
168	110
170	1011
171	110
172	200
176	80
177	60
182	50
184	160
188	340
189	60
190	100
191	30
196	30
198	120
204	180
205	30
212	190
213	30
218	120
226	90
231	20
232	50
238	30
240	400
241	80
246	230
247	210
248	170
260	641
261	420
262	60
266	50
268	7567
269	1351
270	130
274	200
275	50
288	400
289	90
302	210
303	50
316	140
317	30
330	190
331	40
344	120
345	30
358	160
359	1762
360	500
361	60
