Mass Spectrum: 2-Thiophenecarboxylic acid, 4-methoxyphenyl ester
Formula: C12 H10 O3 S
Molecular weight: 234
Origin: Zaikin V.G., TIPS RAS, Moscow, Russia
m/z	RELATIVE INTENSITY
39	360
41	50
52	30
80	30
82	30
83	330
95	120
109	50
111	9999
112	621
113	480
123	220
124	40
234	2592
235	350
236	150
