Mass Spectrum: Cyclohexanecarboxamide, N,N-dihexyl-
Formula: C19 H37 N O
Molecular weight: 295
Origin: Zaikin V.G., TIPS RAS, Moscow, Russia
m/z	RELATIVE INTENSITY
25	30
26	190
27	470
28	190
29	480
30	230
37	30
38	60
39	530
40	150
41	1591
42	641
43	1812
44	901
45	20
50	50
51	70
52	40
53	220
54	300
55	2502
56	450
57	360
58	130
59	10
63	10
65	50
66	40
67	571
68	130
69	140
70	260
71	60
72	100
73	80
74	10
77	60
78	20
79	150
80	40
81	300
82	150
83	5905
84	681
85	410
86	140
87	120
91	10
93	10
94	10
95	50
96	30
97	20
98	180
99	90
100	330
101	80
102	10
105	10
108	20
109	90
110	180
111	981
112	460
113	90
114	9999
115	821
116	30
124	30
125	10
126	120
127	50
128	1071
129	100
130	10
138	30
139	10
140	240
141	240
142	881
143	150
144	10
152	50
153	20
154	240
155	330
156	821
157	100
159	10
166	30
167	10
168	270
169	160
170	440
171	50
180	30
182	290
183	90
184	450
185	80
186	50
194	30
195	10
196	260
197	40
198	30
208	20
210	260
211	250
212	3093
213	460
214	40
222	10
224	360
225	230
226	30
236	20
238	230
239	40
240	1291
241	220
242	10
252	510
253	110
254	180
255	30
266	320
267	60
280	200
281	30
294	110
295	711
296	220
297	20
