Mass Spectrum: Benzamide, N,N-dioctyl-2-fluoro-
Formula: C23 H38 F N O
Molecular weight: 363
Origin: Zaikin V.G., TIPS RAS, Moscow, Russia
m/z	RELATIVE INTENSITY
41	60
43	100
44	60
55	70
56	30
57	80
58	30
69	60
95	210
96	20
122	40
123	9999
124	821
125	50
140	390
142	100
146	90
147	40
148	30
152	290
153	280
154	50
156	20
160	110
161	70
166	1391
167	761
168	80
170	70
174	30
178	70
180	240
181	90
188	40
194	300
195	80
202	30
208	310
209	90
222	150
223	30
235	90
236	60
240	120
244	390
245	200
246	90
250	410
251	90
252	240
253	30
258	500
259	120
264	4904
265	1361
266	180
268	100
272	40
278	450
279	100
292	340
293	70
306	180
307	30
320	210
321	50
334	180
335	40
343	100
344	350
345	70
348	80
362	1291
363	1792
364	490
365	60
