Mass Spectrum: Phenylthioacetamide, N,N-didecyl-
Formula: C28 H49 N O S
Molecular weight: 447
Origin: Zaikin V.G., TIPS RAS, Moscow, Russia
m/z	RELATIVE INTENSITY
28	10
29	30
30	110
41	170
42	30
43	1081
44	571
45	90
55	340
56	90
57	2983
58	200
69	200
70	80
71	2803
72	150
81	30
83	150
84	50
85	3223
86	210
91	30
97	80
98	40
99	781
100	50
109	80
110	130
112	70
123	701
124	310
125	30
126	70
135	80
140	30
141	200
154	30
156	60
158	130
167	200
168	200
170	2823
171	330
182	50
184	540
185	50
196	70
198	350
199	30
200	40
210	170
212	1211
213	150
224	30
226	50
240	120
254	80
260	160
268	70
274	310
275	40
282	30
294	50
296	1081
297	220
298	80
307	30
308	30
310	290
311	50
320	430
321	140
322	90
324	9999
325	2342
326	250
336	30
338	7617
339	1972
340	220
348	130
362	60
376	30
390	30
404	90
414	1141
415	360
416	50
418	80
432	60
446	200
447	2172
448	721
449	190
