Mass Spectrum: Propanamide, N-(3-nitrophenyl)-3-phenyl-
Formula: C15 H14 N2 O3
Molecular weight: 270
Origin: Zaikin V.G., TIPS RAS, Moscow, Russia
m/z	RELATIVE INTENSITY
26	50
27	180
28	30
30	80
36	30
38	60
39	320
40	40
41	140
42	50
43	60
44	390
50	180
51	390
52	190
53	90
54	50
55	190
57	100
62	50
63	310
64	280
65	1181
66	100
67	40
69	60
71	70
74	40
75	120
76	260
77	1261
78	540
79	921
80	260
81	100
83	50
85	30
89	140
90	150
91	9999
92	1702
93	460
94	40
95	60
97	60
99	40
102	120
103	921
104	1071
105	8097
106	781
107	140
108	1091
109	150
110	30
111	50
115	30
118	30
119	40
120	40
121	30
122	320
123	120
124	30
127	40
131	981
132	791
133	1341
134	200
135	230
137	80
138	7277
139	591
140	60
141	50
147	30
149	40
151	140
152	40
153	60
155	30
165	80
166	30
167	30
171	100
173	50
178	30
179	40
180	60
181	40
182	30
185	90
192	30
193	40
194	30
195	50
196	50
209	40
210	130
211	80
222	30
223	90
225	110
227	120
228	90
238	30
239	30
240	581
241	100
252	110
253	861
254	170
255	50
269	80
270	4854
271	871
272	100
