Mass Spectrum: Benzamide, N,N-diheptyl-2-fluoro-
Formula: C21 H34 F N O
Molecular weight: 335
Origin: Zaikin V.G., TIPS RAS, Moscow, Russia
m/z	RELATIVE INTENSITY
41	60
43	80
44	50
55	70
57	90
95	260
122	40
123	9999
124	791
125	50
126	120
128	70
140	140
146	90
147	40
148	40
152	280
153	240
154	50
156	80
160	90
161	60
166	1241
167	671
168	60
174	30
180	200
181	80
187	30
188	40
194	300
195	80
208	310
209	80
212	80
221	80
222	90
230	320
231	140
232	70
236	350
237	70
238	170
240	70
244	380
245	80
250	4024
251	1141
252	120
258	30
264	340
265	80
278	280
279	50
292	150
293	30
306	170
307	30
315	80
316	290
317	60
320	60
334	1031
335	1571
336	400
337	50
