Mass Spectrum: 2-Thiopheneacetic acid, 3,5-dimethylphenyl ester
Formula: C14 H14 O2 S
Molecular weight: 246
Origin: Zaikin V.G., TIPS RAS, Moscow, Russia
m/z	RELATIVE INTENSITY
28	20
39	60
45	220
51	20
53	280
65	40
69	50
70	50
77	200
78	40
79	60
91	130
93	30
95	40
96	571
97	5995
98	400
99	280
103	30
105	50
107	250
121	250
122	1331
123	130
124	9999
125	811
126	500
127	30
246	821
247	120
248	40
