Mass Spectrum: Isonicotinamide, N,N-diheptyl-
Formula: C20 H34 N2 O
Molecular weight: 318
Origin: Zaikin V.G., TIPS RAS, Moscow, Russia
m/z	RELATIVE INTENSITY
25	30
26	220
27	480
28	190
29	480
30	140
39	380
40	80
41	1101
42	561
43	831
44	510
50	180
51	611
52	160
53	110
54	90
55	671
56	340
57	440
58	30
65	40
67	100
68	60
69	160
70	180
71	50
75	40
76	40
77	130
78	2893
79	450
80	90
81	60
82	40
83	50
84	150
85	30
91	60
92	80
93	90
95	30
96	40
97	40
98	70
104	30
105	80
106	9999
107	801
108	90
112	40
117	30
119	50
120	50
121	30
122	60
123	230
126	190
128	70
130	30
133	60
134	40
135	540
136	250
137	90
142	40
147	80
148	40
149	3253
150	671
151	50
154	60
156	400
157	30
161	50
162	70
163	260
164	90
175	50
177	330
178	140
182	50
183	30
184	130
189	120
191	300
192	40
203	60
204	100
205	90
210	30
212	60
216	60
217	30
219	280
220	50
221	220
222	30
231	40
233	3363
234	781
235	80
240	450
241	70
245	30
247	400
248	80
261	260
262	50
275	100
289	100
303	30
317	831
318	841
319	180
