Mass Spectrum: Heptafluorobutanamide, N-ethyl-N-(3-methylphenyl)-
Formula: C13 H12 F7 N O
Molecular weight: 331
Origin: Zaikin V.G., TIPS RAS, Moscow, Russia
m/z	RELATIVE INTENSITY
29	370
65	180
69	60
77	80
78	40
79	50
89	30
91	1151
92	120
104	60
105	30
106	200
107	50
108	70
118	460
119	1581
120	150
132	160
133	200
134	3583
135	320
162	1211
163	110
169	60
196	801
212	30
224	3263
225	220
239	120
284	210
289	50
302	40
303	380
312	310
316	2172
317	270
330	160
331	9999
332	1471
333	90
