Mass Spectrum: 1-Naphthoic acid, 3-methylbut-2-enyl ester
Formula: C16 H16 O2
Molecular weight: 240
Origin: Zaikin V.G., TIPS RAS, Moscow, Russia
m/z	RELATIVE INTENSITY
27	60
28	10
29	40
39	150
40	50
41	921
42	40
43	30
44	40
50	60
51	100
53	160
62	30
63	140
65	20
67	190
68	100
69	1291
70	70
74	80
75	170
76	90
77	330
78	30
85	30
86	30
87	30
100	30
101	240
102	60
115	150
116	60
125	40
126	701
127	3293
128	971
129	110
141	30
144	130
152	30
153	50
154	300
155	4384
156	991
157	90
165	120
166	100
167	80
171	150
172	9999
173	1251
174	110
178	60
179	40
181	150
182	30
184	100
193	30
195	130
197	40
211	50
222	40
225	30
240	2282
241	410
242	40
