Mass Spectrum: 1-Naphthamide, N-(2-fluorophenyl)-
Formula: C17 H12 F N O
Molecular weight: 265
Origin: Zaikin V.G., TIPS RAS, Moscow, Russia
m/z	RELATIVE INTENSITY
50	30
51	60
57	100
64	60
74	30
75	140
76	50
77	300
82	30
83	330
84	100
91	30
101	280
102	50
109	30
110	90
111	380
125	40
126	641
127	5475
128	831
129	50
132	30
153	40
155	9999
156	1141
157	80
245	30
264	40
265	1982
266	390
267	30
