Mass Spectrum: Benzamide, N,N-diundecyl-2,6-difluoro-
Formula: C29 H49 F2 N O
Molecular weight: 465
Origin: Zaikin V.G., TIPS RAS, Moscow, Russia
m/z	RELATIVE INTENSITY
25	30
26	260
27	430
28	160
29	420
30	110
36	140
37	30
38	100
39	380
40	90
41	1051
42	480
43	1071
44	430
50	60
51	50
52	30
53	80
54	100
55	731
56	390
57	490
58	40
63	100
67	140
68	80
69	330
70	240
71	110
73	40
75	30
77	40
79	60
80	40
81	80
82	90
83	130
84	170
85	70
93	30
94	40
95	60
96	70
97	70
98	70
109	30
112	50
113	260
114	170
123	90
126	50
127	70
133	50
136	40
140	120
141	9999
142	791
143	60
152	90
154	30
158	290
164	140
165	140
166	230
170	160
171	260
172	100
178	140
179	100
180	50
182	150
184	1361
185	751
186	70
191	40
192	60
193	50
198	140
199	60
206	70
210	50
212	190
213	50
220	30
224	30
226	180
227	30
240	110
254	60
268	60
282	80
295	30
296	50
304	220
305	150
306	170
307	30
310	210
311	40
312	280
313	40
318	480
319	130
320	40
322	40
324	1992
325	771
326	120
332	60
338	280
339	80
352	270
353	60
366	110
367	30
380	120
381	30
394	110
408	100
422	90
436	90
445	120
446	591
447	180
448	30
450	40
464	230
465	571
466	180
