Mass Spectrum: Phenylacetamide, N,N-dinonyl-
Formula: C26 H45 N O
Molecular weight: 387
Origin: Zaikin V.G., TIPS RAS, Moscow, Russia
m/z	RELATIVE INTENSITY
26	60
27	150
28	110
29	280
30	310
36	30
39	150
40	30
41	731
42	290
43	1962
44	1131
45	30
51	30
53	30
54	40
55	721
56	350
57	2222
58	160
63	40
65	140
67	70
68	40
69	400
70	260
71	3153
72	240
73	30
81	50
82	30
83	170
84	190
85	2142
86	210
89	130
90	200
91	3313
92	781
93	60
95	30
97	40
98	180
99	130
100	70
104	140
105	70
106	60
112	180
113	60
114	50
117	40
118	450
119	110
120	60
126	150
127	110
128	40
134	40
136	50
140	130
142	120
148	100
149	190
154	260
155	30
156	9008
157	951
158	50
162	140
163	250
164	30
168	50
170	1191
171	140
176	70
177	50
182	120
184	1011
185	130
186	210
190	80
191	30
196	50
198	150
202	340
203	60
204	160
205	30
210	40
212	120
218	100
224	40
226	230
227	30
232	100
238	30
240	100
245	30
246	50
254	60
260	270
261	270
262	230
263	30
266	40
268	530
269	120
270	40
274	761
275	530
276	90
288	240
289	60
294	70
296	9999
297	2002
298	230
302	520
303	120
316	310
317	70
330	190
331	50
344	260
345	70
358	320
359	80
372	180
373	50
386	330
387	2582
388	831
389	130
