Mass Spectrum: Phenylthioacetamide, N,N-dioctyl-
Formula: C24 H41 N O S
Molecular weight: 391
Origin: Zaikin V.G., TIPS RAS, Moscow, Russia
m/z	RELATIVE INTENSITY
29	100
30	160
41	280
42	70
43	1181
44	701
45	180
55	280
56	90
57	5435
58	320
69	350
70	110
71	5765
72	340
77	40
83	30
84	80
85	80
86	80
91	50
98	70
105	30
106	30
109	100
110	90
112	80
113	350
121	30
123	941
124	400
125	60
126	80
128	90
130	140
135	30
140	210
142	3373
143	320
154	60
156	801
157	70
167	280
168	80
170	360
172	40
182	190
184	1261
185	140
196	30
198	100
212	120
226	50
232	170
238	40
240	861
241	150
242	60
246	390
247	50
254	270
255	30
266	40
268	9999
269	1852
270	170
279	30
280	50
282	6686
283	1351
284	130
292	520
293	140
294	30
320	140
334	80
348	60
358	1021
359	260
362	60
376	50
390	130
391	2412
392	741
393	190
394	30
