Mass Spectrum: Cyclohexanecarboxamide, N,N-diundecyl-
Formula: C29 H57 N O
Molecular weight: 435
Origin: Zaikin V.G., TIPS RAS, Moscow, Russia
m/z	RELATIVE INTENSITY
25	50
26	270
27	450
29	410
30	200
37	40
38	40
39	591
40	70
41	1501
42	510
43	1471
44	711
50	70
51	100
52	40
53	210
54	290
55	2202
56	641
57	1121
58	130
65	60
66	40
67	540
68	170
69	540
70	390
71	360
72	70
73	30
77	90
78	40
79	170
80	50
81	330
82	200
83	5275
84	661
85	250
86	130
87	30
91	70
93	80
94	40
95	180
97	210
98	220
99	90
100	190
105	50
107	40
108	30
109	170
110	190
111	961
112	280
113	50
114	130
122	30
123	40
124	70
126	170
127	30
128	180
129	20
135	60
138	40
140	210
141	220
142	130
152	40
154	270
155	290
156	200
168	230
169	100
170	250
171	30
180	40
182	520
183	100
184	9999
185	1371
186	60
196	280
197	50
198	1111
199	140
210	180
211	50
212	1261
213	190
224	160
226	571
227	60
238	150
239	50
240	350
241	50
252	190
253	50
254	280
255	30
266	130
268	150
278	40
280	240
282	460
294	330
295	240
296	230
297	30
306	40
308	250
309	50
310	90
322	510
323	120
324	591
325	150
326	30
336	320
337	60
350	330
351	80
352	6015
353	1591
354	180
364	280
365	70
378	370
379	90
380	1191
381	300
392	320
393	80
394	140
406	200
407	40
420	170
421	40
434	440
435	571
436	170
