Mass Spectrum: Trichloroacetamide, N,N-diheptyl-
Formula: C16 H30 Cl3 N O
Molecular weight: 357
Origin: Zaikin V.G., TIPS RAS, Moscow, Russia
m/z	RELATIVE INTENSITY
25	30
26	220
27	711
28	480
29	1201
30	490
35	380
36	2522
37	170
38	931
39	741
40	190
41	3553
42	1481
43	3493
44	1371
45	30
47	60
48	140
49	90
50	70
51	100
52	80
53	270
54	320
55	3573
56	1481
57	9999
58	601
65	60
66	40
67	430
68	370
69	1071
70	1141
71	370
72	150
73	70
75	40
76	240
77	130
78	140
79	140
80	90
81	270
82	440
83	440
84	931
85	350
86	100
89	30
90	30
91	80
92	30
93	60
94	70
95	200
96	300
97	1081
98	811
99	370
100	80
104	40
105	40
106	150
107	30
108	60
109	100
110	420
111	110
112	661
113	150
114	160
117	210
118	50
119	260
120	250
121	100
122	100
123	50
124	130
125	80
126	3133
127	340
128	1021
129	70
130	60
132	80
133	30
134	40
138	130
139	60
140	741
141	370
142	1121
143	100
144	140
146	60
152	100
153	210
154	3513
155	420
156	2532
157	210
158	280
160	200
162	370
164	150
166	280
167	30
168	430
169	60
170	90
174	260
175	30
176	530
177	40
178	330
180	230
181	40
182	260
183	70
184	50
185	30
188	5935
189	290
190	5725
191	290
192	1872
193	90
194	370
195	50
196	120
197	20
198	80
202	220
203	40
204	390
205	50
206	120
210	130
211	30
212	841
213	120
216	120
218	60
224	280
225	40
226	360
227	40
228	160
230	150
232	50
236	90
238	1061
239	150
240	8007
241	1441
242	150
244	40
246	30
250	60
251	30
252	370
253	60
254	80
258	40
260	280
262	230
264	140
266	90
268	30
272	1411
273	150
274	1441
275	160
276	470
277	50
278	60
280	40
286	210
287	40
288	1121
289	200
290	360
291	60
300	90
302	30
322	1672
323	300
324	1131
325	180
326	190
