Mass Spectrum: Benzamide, N-ethyl-N-(3-methylphenyl)-2,3,4-trifluoro-
Formula: C16 H14 F3 N O
Molecular weight: 293
Origin: Zaikin V.G., TIPS RAS, Moscow, Russia
m/z	RELATIVE INTENSITY
39	30
42	20
65	150
77	70
78	30
81	40
89	30
91	410
92	60
104	40
108	40
118	240
119	340
120	70
131	971
132	160
133	60
134	581
135	70
158	801
159	9999
160	781
161	50
201	30
210	70
216	60
246	30
264	70
265	591
266	90
272	50
273	120
274	1201
275	220
276	30
278	250
279	40
292	701
293	5565
294	1021
295	100
