Mass Spectrum: 2-Thiophenecarboxylic acid, 2-naphthyl ester
Formula: C15 H10 O2 S
Molecular weight: 254
Origin: Zaikin V.G., TIPS RAS, Moscow, Russia
m/z	RELATIVE INTENSITY
28	10
36	40
39	380
44	30
83	410
89	50
111	9999
112	611
113	470
115	520
116	40
127	40
128	50
144	60
254	2722
255	440
256	140
