Mass Spectrum: Benzamide, N,N-dihexyl-4-bromo-
Formula: C19 H30 Br N O
Molecular weight: 367
Origin: Zaikin V.G., TIPS RAS, Moscow, Russia
m/z	RELATIVE INTENSITY
26	90
27	280
28	120
29	320
30	90
38	40
39	240
40	50
41	701
42	530
43	781
44	240
50	200
51	90
53	50
54	40
55	360
56	220
57	200
58	60
67	40
68	30
69	50
70	140
71	30
74	90
75	330
76	671
77	240
78	40
79	30
80	60
81	30
82	60
83	20
84	140
85	30
91	40
98	40
103	90
104	1031
105	330
106	30
112	260
114	120
119	50
127	90
128	30
132	30
133	20
140	60
142	60
146	50
147	30
155	1301
156	150
157	1311
158	120
169	50
171	50
182	50
183	9969
184	891
185	9999
186	781
187	40
189	80
199	30
200	80
202	70
212	370
213	230
214	270
215	200
217	50
218	30
224	50
225	30
226	681
227	350
228	641
229	310
230	30
240	220
241	80
242	210
243	70
254	210
255	40
256	190
257	30
266	30
267	60
268	110
269	70
270	70
282	190
283	40
284	210
285	40
286	40
288	70
294	30
296	1882
297	450
298	1842
299	460
300	50
310	180
311	30
312	160
313	30
324	170
325	30
326	160
327	30
338	90
340	80
352	30
366	751
367	751
368	941
369	741
370	180
