Mass Spectrum: Benzamide, N,N-dibutyl-2-fluoro-
Formula: C15 H22 F N O
Molecular weight: 251
Origin: Zaikin V.G., TIPS RAS, Moscow, Russia
m/z	RELATIVE INTENSITY
29	50
41	40
42	40
57	40
75	80
84	50
95	651
96	50
122	50
123	9999
124	791
125	40
140	60
146	40
147	30
148	30
152	340
153	270
156	20
166	611
167	340
179	40
180	40
188	180
189	150
190	40
194	150
195	30
196	50
202	190
208	2412
209	631
210	40
222	150
231	50
232	160
236	40
250	520
251	1001
252	170
