Mass Spectrum: Isonicotinic acid, 3-phenylpropyl ester
Formula: C15 H15 N O2
Molecular weight: 241
Origin: Zaikin V.G., TIPS RAS, Moscow, Russia
m/z	RELATIVE INTENSITY
26	30
27	40
28	40
39	100
41	80
50	120
51	530
52	90
63	50
65	270
76	30
77	250
78	1131
79	280
89	70
90	40
91	1942
92	220
102	30
103	280
104	130
105	450
106	801
107	70
115	260
116	90
117	5355
118	9999
119	861
120	30
123	150
124	100
137	561
138	40
241	60
