Mass Spectrum: Acetoxyacetic acid, 1-naphthyl ester
Formula: C14 H12 O4
Molecular weight: 244
Origin: Zaikin V.G., TIPS RAS, Moscow, Russia
m/z	RELATIVE INTENSITY
26	30
28	20
29	50
39	120
42	130
43	2863
44	150
45	30
50	70
51	100
52	30
62	80
63	270
64	40
65	180
73	1311
74	100
75	100
76	50
77	130
78	40
79	40
86	30
87	60
88	100
89	410
90	50
91	90
92	40
101	1641
102	80
113	120
114	180
115	3063
116	1321
117	110
121	110
122	30
126	90
127	290
128	70
137	60
143	250
144	9999
145	1101
146	70
157	60
244	691
245	100
