Mass Spectrum: 2-Thiopheneacetic acid, 4-methoxyphenyl ester
Formula: C13 H12 O3 S
Molecular weight: 248
Origin: Zaikin V.G., TIPS RAS, Moscow, Russia
m/z	RELATIVE INTENSITY
27	40
28	10
36	30
39	160
41	140
44	30
45	460
51	50
52	80
53	460
54	30
63	40
64	40
65	50
69	60
70	60
77	40
80	30
81	60
92	30
95	190
96	350
97	5415
98	330
99	230
109	871
110	50
123	350
124	9999
125	771
126	130
248	651
249	90
