Mass Spectrum: 2-Methylpropionic acid, 4-benzyloxyphenyl ester
Formula: C17 H18 O3
Molecular weight: 270
Origin: Zaikin V.G., TIPS RAS, Moscow, Russia
m/z	RELATIVE INTENSITY
27	30
28	10
39	40
41	110
43	1521
44	30
65	320
71	761
81	30
89	30
91	9999
92	811
109	170
110	50
139	60
200	6356
201	921
202	60
270	591
271	100
