Mass Spectrum: 2-Thiophenecarboxylic acid, 3-methylphenyl ester
Formula: C12 H10 O2 S
Molecular weight: 218
Origin: Zaikin V.G., TIPS RAS, Moscow, Russia
m/z	RELATIVE INTENSITY
39	480
57	30
65	40
77	110
78	30
79	50
82	40
83	390
84	30
91	40
107	60
108	30
111	9999
112	641
113	480
218	1842
219	260
220	100
