Mass Spectrum: Methoxyacetamide, N,N-dioctyl-
Formula: C19 H39 N O2
Molecular weight: 313
Origin: Zaikin V.G., TIPS RAS, Moscow, Russia
m/z	RELATIVE INTENSITY
25	40
26	310
27	681
28	120
29	1251
30	390
31	120
39	631
40	170
41	2742
42	1181
43	3573
44	1581
45	6116
46	150
50	80
51	80
52	60
53	190
54	200
55	1922
56	931
57	6876
58	791
59	40
60	90
65	50
67	300
68	190
69	1071
70	611
71	6336
72	430
73	210
74	60
77	80
78	40
79	130
80	40
81	180
82	160
83	240
84	490
85	270
86	240
87	310
88	1101
89	50
90	40
91	50
93	30
94	30
95	90
96	110
97	100
98	540
99	270
100	190
101	110
102	250
103	80
104	30
105	30
109	50
110	70
111	80
112	400
113	270
114	200
115	50
116	1371
117	210
124	50
126	350
127	80
128	270
129	40
130	70
133	50
138	30
140	671
141	90
142	1591
143	160
144	60
154	180
155	100
156	2162
157	230
158	130
168	220
169	40
170	1702
171	230
172	140
182	170
183	30
184	2672
185	350
186	2062
187	240
191	40
196	100
198	330
199	40
200	360
201	70
202	190
210	70
212	450
213	50
214	1872
215	400
216	30
224	30
226	220
228	270
229	30
238	80
240	400
241	60
242	410
243	70
252	50
254	210
255	30
256	190
257	20
266	200
267	30
268	9999
269	1972
270	300
271	30
282	60
283	90
284	260
285	30
298	1251
299	240
312	150
313	751
314	170
