Mass Spectrum: Propanamide, N-ethyl-N-(3-methylphenyl)-2-bromo-
Formula: C12 H16 Br N O
Molecular weight: 269
Origin: Zaikin V.G., TIPS RAS, Moscow, Russia
m/z	RELATIVE INTENSITY
27	250
28	130
29	330
36	280
38	50
39	70
41	70
42	40
44	530
51	50
52	140
55	250
57	370
63	30
65	500
72	270
73	150
77	290
78	90
79	591
80	701
81	100
82	751
83	70
86	210
91	2292
92	280
93	60
100	30
104	160
105	70
106	631
107	781
108	130
109	220
111	120
115	40
117	130
118	1141
119	1201
120	6686
121	490
132	300
133	240
134	8638
135	2222
136	290
137	40
146	180
147	30
160	80
161	40
162	4334
163	390
164	1241
172	40
174	100
175	280
189	390
190	9999
191	1231
192	30
197	30
198	30
241	350
243	420
269	4324
270	540
271	3934
272	470
