Mass Spectrum: 2-Thiophenecarboxylic acid, 3,4-dichlorophenyl ester
Formula: C11 H6 Cl2 O2 S
Molecular weight: 272
Origin: Zaikin V.G., TIPS RAS, Moscow, Russia
m/z	RELATIVE INTENSITY
39	510
57	50
63	50
82	50
83	410
84	30
111	9999
112	631
113	480
133	70
135	40
272	380
273	40
274	260
275	30
276	50
