Mass Spectrum: 2-Thiopheneacetamide, N,N-diundecyl-
Formula: C28 H51 N O S
Molecular weight: 449
Origin: Zaikin V.G., TIPS RAS, Moscow, Russia
m/z	RELATIVE INTENSITY
28	10
29	40
30	60
36	30
41	210
43	1301
44	380
55	380
56	90
57	5165
58	220
69	260
70	50
71	3964
72	180
83	140
84	40
85	3843
86	210
97	871
98	150
99	1722
100	100
111	30
112	50
113	731
114	40
124	60
126	30
135	50
140	30
155	270
182	90
184	1251
185	140
196	30
198	390
199	30
210	40
212	120
224	60
252	30
282	30
295	70
296	30
308	130
309	140
322	40
324	280
325	50
336	30
350	60
352	9999
353	2492
354	330
355	30
420	30
434	40
448	190
449	1852
450	581
451	150
