Mass Spectrum: Phenylthioacetamide, N-ethyl-N-(3-methylphenyl)-
Formula: C17 H19 N O S
Molecular weight: 285
Origin: Zaikin V.G., TIPS RAS, Moscow, Russia
m/z	RELATIVE INTENSITY
29	260
39	40
45	661
51	70
65	320
66	30
77	420
78	100
79	260
80	30
90	40
91	1641
92	200
93	130
104	100
105	280
106	400
107	150
109	150
110	100
117	50
118	621
119	520
120	2712
121	260
122	40
123	1101
124	170
125	40
132	300
133	270
134	8227
135	2142
136	190
137	90
146	160
147	30
148	470
149	50
160	30
161	170
162	9999
163	1101
164	70
168	30
174	90
175	90
176	1431
177	160
178	120
192	631
193	60
194	30
252	60
257	160
285	6756
286	1281
287	390
288	40
