Mass Spectrum: Hexanamide, N,N-didecyl-6-chloro-
Formula: C26 H52 Cl N O
Molecular weight: 429
Origin: Zaikin V.G., TIPS RAS, Moscow, Russia
m/z	RELATIVE INTENSITY
25	60
26	430
27	891
28	300
29	771
30	430
35	100
36	430
37	100
38	280
39	821
40	190
41	2432
42	771
43	2412
44	2132
45	80
49	40
50	120
51	140
52	90
53	230
54	210
55	1672
56	721
57	1171
58	190
60	80
62	30
63	100
65	90
66	50
67	380
68	220
69	2522
70	681
71	410
72	160
73	270
74	40
75	60
76	30
77	130
78	90
79	280
80	230
81	310
82	260
83	280
84	400
85	290
86	210
87	240
91	110
93	80
94	60
95	150
96	130
97	250
98	330
99	130
100	240
101	100
102	30
103	50
105	90
106	180
107	60
109	80
110	70
111	110
112	250
113	70
114	240
115	90
119	50
120	30
121	30
122	30
123	70
124	40
126	230
127	60
128	230
129	30
130	40
131	40
132	30
133	540
134	60
135	230
136	30
138	30
139	30
140	190
141	70
142	250
143	30
147	40
149	90
150	40
152	30
154	180
155	40
156	881
157	110
161	30
162	40
163	50
165	30
166	40
168	400
169	60
170	9999
171	1251
172	60
176	50
177	100
178	30
179	70
182	140
183	80
184	991
185	150
190	40
191	100
192	40
193	70
194	20
196	180
198	1501
199	320
200	50
204	50
210	80
212	2132
213	360
218	100
220	30
224	90
226	540
227	70
232	50
238	90
240	460
241	70
246	30
250	30
252	90
254	450
255	60
266	90
267	50
268	350
269	50
275	50
280	50
282	410
283	50
288	60
290	150
292	40
294	90
296	601
297	140
302	290
303	60
304	80
308	80
310	530
311	100
316	110
318	30
322	100
324	5465
325	1271
326	160
330	270
331	40
332	80
336	50
338	90
339	80
344	140
346	60
350	50
352	821
353	200
355	30
358	90
360	30
366	140
367	30
372	130
374	30
380	140
386	130
388	40
394	671
395	170
400	100
401	30
402	40
414	20
428	130
429	70
430	40
