Mass Spectrum: Acetoxyacetamide, N-decyl-N-methyl-
Formula: C15 H29 N O3
Molecular weight: 271
Origin: Zaikin V.G., TIPS RAS, Moscow, Russia
m/z	RELATIVE INTENSITY
26	111
27	323
28	40
29	707
30	232
31	51
35	30
36	354
38	131
39	283
40	111
41	1465
42	899
43	7424
44	515
45	485
46	20
50	30
51	40
52	40
53	81
54	91
55	1111
56	455
57	3919
58	818
59	40
60	232
65	30
67	141
68	81
69	434
70	616
71	1606
72	424
73	2262
74	1535
75	61
77	51
78	30
79	101
80	20
81	81
82	81
83	222
84	646
85	3707
86	657
87	242
88	81
89	30
90	808
91	71
92	20
93	121
94	20
95	51
96	91
97	111
98	323
99	455
100	222
101	6666
102	707
103	222
105	20
107	20
109	61
110	40
111	152
112	485
113	232
114	778
115	71
116	172
117	51
119	20
120	20
124	20
126	364
127	121
128	1121
129	101
130	485
131	61
132	131
133	20
138	61
140	212
141	111
142	1081
143	91
144	1374
145	455
146	40
151	20
154	283
155	81
156	263
157	30
158	323
159	40
160	20
168	343
169	71
170	1050
171	152
172	556
173	51
182	131
183	81
184	525
185	61
186	354
187	51
193	30
196	212
197	30
198	9999
199	1434
200	333
201	30
210	20
211	101
212	293
213	40
214	172
215	20
226	71
228	707
229	273
230	30
240	71
242	121
254	303
255	40
256	40
269	40
270	30
271	111
272	40
