Mass Spectrum: Cyclopropanecarboxamide, N,N-diundecyl-
Formula: C26 H51 N O
Molecular weight: 393
Origin: Zaikin V.G., TIPS RAS, Moscow, Russia
m/z	RELATIVE INTENSITY
25	40
26	260
27	510
28	200
29	520
30	260
36	90
37	40
38	70
39	571
40	150
41	2132
42	550
43	1591
44	1101
50	30
51	40
53	100
54	110
55	971
56	530
57	811
58	120
67	170
68	180
69	4974
70	611
71	250
72	50
73	50
77	30
79	50
81	110
82	90
83	220
84	330
85	140
86	90
91	50
95	70
96	90
97	120
98	490
99	350
100	70
109	30
110	70
111	60
112	841
113	901
114	90
119	40
124	50
125	30
126	420
127	200
128	40
133	40
138	70
140	410
141	210
142	40
152	60
154	480
155	180
156	30
166	40
168	280
169	60
170	100
180	40
182	631
183	90
184	9999
185	1341
186	80
191	60
193	30
194	30
196	240
197	70
198	260
199	30
210	290
211	80
212	270
213	30
223	50
224	260
225	50
226	40
238	320
239	90
240	280
241	30
242	70
250	50
252	6156
253	1571
254	260
266	561
267	130
268	60
280	641
281	130
282	90
294	701
295	150
296	40
308	380
309	90
322	330
323	80
324	671
325	150
336	360
337	80
350	430
351	110
352	701
353	170
364	250
365	70
378	120
379	30
392	260
393	641
394	180
