Mass Spectrum: l-Tyrosine, N,O-bis(butyryl)-, methyl ester
Formula: C18 H25 N O5
Molecular weight: 335
Origin: Zaikin V.G., TIPS RAS, Moscow, Russia
m/z	RELATIVE INTENSITY
27	40
28	30
39	40
41	120
42	30
43	430
44	220
52	30
55	60
57	30
69	50
70	50
71	661
72	40
77	90
78	50
79	70
88	591
89	80
91	130
95	20
106	50
107	2412
108	320
109	30
118	60
119	110
120	100
127	90
130	60
133	60
134	110
135	360
136	310
137	90
146	30
147	520
148	60
149	100
158	240
159	120
160	30
161	40
162	70
177	140
178	9999
179	1261
180	150
194	70
195	50
204	40
205	50
206	711
220	40
247	40
248	2162
249	360
250	40
264	40
265	80
266	30
276	170
277	30
292	30
304	40
335	50
