Mass Spectrum: But-2-enamide, N,N-dihexyl-3-methyl-
Formula: C17 H33 N O
Molecular weight: 267
Origin: Zaikin V.G., TIPS RAS, Moscow, Russia
m/z	RELATIVE INTENSITY
29	110
30	60
39	40
41	100
42	40
43	260
44	250
53	30
55	591
56	60
57	80
58	40
69	40
70	40
82	110
83	9999
84	601
85	90
98	100
100	100
112	320
113	240
114	3533
115	280
126	350
127	340
128	430
129	30
140	310
141	130
142	70
154	300
155	110
156	30
168	470
169	80
182	731
183	190
184	280
185	50
196	1762
197	500
198	70
210	1021
211	170
212	330
213	40
224	761
225	230
238	330
239	50
252	1852
253	340
266	120
267	2172
268	681
269	80
