Mass Spectrum: Benzamide, N-heptyl-N-octyl-2,6-difluoro-
Formula: C22 H35 F2 N O
Molecular weight: 367
Origin: Zaikin V.G., TIPS RAS, Moscow, Russia
m/z	RELATIVE INTENSITY
26	110
27	220
28	90
29	240
30	50
36	150
38	80
39	210
40	40
41	601
42	320
43	440
44	250
50	50
51	40
53	50
54	40
55	360
56	180
57	210
63	160
67	60
68	50
69	130
70	100
71	30
74	30
75	40
79	40
80	50
81	30
82	50
84	80
93	30
94	40
95	30
96	40
98	40
112	50
113	530
114	160
123	70
126	50
127	50
136	40
139	30
140	140
141	9999
142	791
143	50
152	80
156	30
157	30
158	220
164	120
165	100
166	190
170	160
171	190
172	60
178	90
179	70
180	40
184	1181
185	561
186	50
192	40
193	30
198	110
199	40
206	80
212	110
213	40
220	50
224	30
226	170
240	80
248	70
249	40
250	70
254	100
256	80
262	210
263	70
264	70
268	631
269	200
270	90
276	150
277	30
282	651
283	200
296	150
297	30
310	100
324	60
338	60
347	40
348	340
349	70
366	100
367	320
368	80
