Mass Spectrum: Benzamide, N,N-dinonyl-4-trifluoromethyl-
Formula: C26 H42 F3 N O
Molecular weight: 441
Origin: Zaikin V.G., TIPS RAS, Moscow, Russia
m/z	RELATIVE INTENSITY
28	20
41	60
43	150
44	70
55	100
56	50
57	130
69	90
71	30
83	40
98	30
126	30
145	510
146	40
154	290
155	30
156	170
159	40
169	50
173	9999
174	911
175	40
182	30
184	160
190	160
202	300
203	310
204	60
216	2232
217	891
218	90
230	240
231	100
244	430
245	130
258	330
259	90
268	110
272	200
273	40
286	100
296	310
297	60
299	210
300	70
314	500
315	130
316	280
317	30
328	7817
329	2442
330	340
342	641
343	170
356	390
357	110
370	190
371	60
384	230
385	50
398	210
399	50
412	190
413	50
422	130
423	40
426	80
440	2582
441	2702
442	791
443	130
