Mass Spectrum: Propanamide, N,N-dibutyl-3-chloro-
Formula: C11 H22 Cl N O
Molecular weight: 219
Origin: Zaikin V.G., TIPS RAS, Moscow, Russia
m/z	RELATIVE INTENSITY
25	30
26	200
27	1051
28	400
29	1001
30	791
35	20
36	90
38	40
39	340
40	60
41	1051
42	621
43	330
44	1752
45	70
53	60
54	100
55	721
56	330
57	771
58	140
63	1281
64	30
65	390
68	40
69	30
70	150
72	330
82	30
84	300
85	40
86	9999
87	581
89	30
90	30
91	791
92	30
93	240
98	170
99	60
100	1101
101	60
111	30
112	170
113	30
114	350
120	190
121	140
122	70
123	40
126	60
128	631
129	50
134	220
135	160
136	80
137	50
140	250
141	70
142	550
143	40
148	30
154	70
156	1031
157	100
162	70
164	70
176	1431
177	170
178	480
179	50
183	30
184	2873
185	370
190	150
192	50
204	30
219	160
221	40
