Mass Spectrum: Benzamide, N,N-dioctyl-3-methyl-
Formula: C24 H41 N O
Molecular weight: 359
Origin: Zaikin V.G., TIPS RAS, Moscow, Russia
m/z	RELATIVE INTENSITY
26	110
27	210
28	90
29	220
30	80
36	70
39	210
40	40
41	520
42	280
43	450
44	250
50	30
51	40
53	40
54	40
55	270
56	190
57	210
58	40
63	40
65	230
67	40
68	30
69	120
70	120
71	50
77	30
79	30
83	30
84	90
89	80
90	130
91	1732
92	180
93	40
98	50
105	170
112	40
117	30
118	110
119	9999
120	821
121	60
133	30
134	30
136	100
140	140
142	70
148	210
149	180
156	60
160	30
162	380
163	240
168	20
170	30
176	120
177	50
190	140
191	60
202	30
204	220
205	50
216	40
218	90
231	40
232	40
240	50
246	140
247	40
248	60
260	1231
261	420
262	60
268	70
274	140
275	40
288	180
289	40
302	100
316	120
317	30
330	80
344	70
358	751
359	851
360	220
