Mass Spectrum: Methoxyacetamide, N-heptyl-N-octyl-
Formula: C18 H37 N O2
Molecular weight: 299
Origin: Zaikin V.G., TIPS RAS, Moscow, Russia
m/z	RELATIVE INTENSITY
25	30
26	250
27	621
28	510
29	1281
30	320
31	140
39	651
40	190
41	2662
42	1221
43	3113
44	1331
45	6336
46	140
50	50
51	90
52	40
53	190
54	240
55	2022
56	961
57	9198
58	971
59	30
60	80
65	50
67	320
68	170
69	861
70	581
71	3363
72	410
73	220
74	50
77	80
78	30
79	110
80	60
81	140
82	190
83	200
84	540
85	270
86	250
87	350
88	1151
91	70
92	30
93	30
94	30
95	90
96	80
97	150
98	561
99	320
100	210
101	90
102	230
103	60
104	30
109	40
110	60
111	60
112	360
113	150
114	210
115	50
116	1311
117	220
124	70
126	561
127	90
128	1051
129	90
130	60
140	470
141	90
142	2152
143	190
144	50
154	220
155	70
156	2002
157	220
158	150
168	210
169	30
170	2212
171	250
172	1151
173	100
182	130
184	1521
185	200
186	1111
187	130
188	90
191	50
193	30
196	60
198	450
199	50
200	1241
201	210
202	80
212	370
213	30
214	1141
215	190
224	70
226	390
227	40
228	370
229	40
240	260
242	320
252	200
253	30
254	9999
255	1782
256	320
268	60
269	90
270	180
284	1301
285	200
298	100
299	821
300	130
