Mass Spectrum: Benzamide, N-decyl-N-methyl-4-methyl-
Formula: C19 H31 N O
Molecular weight: 289
Origin: Zaikin V.G., TIPS RAS, Moscow, Russia
m/z	RELATIVE INTENSITY
28	20
41	50
43	60
44	120
55	50
57	60
58	220
65	120
90	50
91	961
92	70
105	30
118	60
119	9999
120	901
121	50
132	40
134	60
148	561
149	310
150	120
162	2853
163	1211
164	110
170	80
176	581
177	100
190	450
191	120
198	110
204	230
205	80
218	310
219	50
232	350
233	60
246	210
247	40
260	150
274	80
288	1762
289	2122
290	460
291	50
