Mass Spectrum: Benzamide, N,N-dibutyl-2,3,4-trifluoro-
Formula: C15 H20 F3 N O
Molecular weight: 287
Origin: Zaikin V.G., TIPS RAS, Moscow, Russia
m/z	RELATIVE INTENSITY
27	40
29	100
41	110
42	100
43	40
55	50
56	30
57	40
81	20
84	50
131	450
132	50
141	30
145	20
158	30
159	9999
160	571
161	30
170	40
182	40
183	30
184	50
188	210
189	170
202	520
203	200
215	30
216	30
224	120
225	70
226	40
230	70
238	60
244	1581
245	320
258	130
268	110
286	70
287	591
288	90
