Mass Spectrum: 2,2-Dimethylpropanoic acid, 4-methoxyphenyl ester
Formula: C12 H16 O3
Molecular weight: 208
Origin: Zaikin V.G., TIPS RAS, Moscow, Russia
m/z	RELATIVE INTENSITY
29	150
39	70
41	370
42	30
52	40
53	40
55	30
57	2372
58	90
64	30
65	60
69	30
77	70
79	30
81	170
85	440
92	40
95	130
107	40
108	30
109	2342
110	160
123	340
124	9999
125	831
126	60
165	110
208	1992
209	230
