Mass Spectrum: 2,2-Dimethylpropanoic acid, 2-naphthyl ester
Formula: C15 H16 O2
Molecular weight: 228
Origin: Zaikin V.G., TIPS RAS, Moscow, Russia
m/z	RELATIVE INTENSITY
28	30
29	80
36	130
41	210
57	2192
58	60
63	30
79	50
85	440
89	50
115	1181
116	330
119	270
127	150
128	30
143	30
144	9999
145	1111
146	30
162	40
185	80
228	2542
229	370
