Mass Spectrum: Hexanamide, N,N-dinonyl-6-chloro-
Formula: C24 H48 Cl N O
Molecular weight: 401
Origin: Zaikin V.G., TIPS RAS, Moscow, Russia
m/z	RELATIVE INTENSITY
25	30
26	300
27	591
28	150
29	370
30	150
35	120
36	571
37	70
38	270
39	601
40	130
41	1401
42	480
43	1091
44	1131
45	40
50	150
51	180
52	120
53	170
54	150
55	1211
56	400
57	561
58	90
59	30
60	130
63	70
65	70
66	40
67	300
68	190
69	1672
70	410
71	300
72	100
73	270
74	40
75	90
76	40
77	140
78	100
79	410
80	390
81	360
82	450
83	210
84	280
85	170
86	150
87	180
91	110
93	60
94	40
95	160
96	170
97	240
98	210
99	100
100	180
101	80
102	40
103	40
105	90
106	160
107	50
109	80
110	60
111	200
112	210
113	60
114	240
115	90
119	60
121	30
122	30
123	80
124	40
125	30
126	180
127	50
128	310
129	50
130	90
131	40
132	30
133	601
134	70
135	240
136	30
139	50
140	160
141	50
142	611
143	80
147	60
149	70
150	40
152	40
154	370
155	60
156	9999
157	1191
158	60
162	40
163	60
165	30
168	140
169	70
170	1111
171	140
176	60
177	150
178	40
179	80
182	180
183	70
184	1551
185	360
186	60
190	40
191	190
192	50
193	110
196	100
198	2332
199	390
200	30
204	60
210	100
212	651
213	90
218	130
220	40
224	90
226	550
227	90
232	60
238	60
240	450
241	70
246	40
252	90
254	420
255	70
261	40
265	20
266	80
267	60
268	681
269	140
270	50
274	70
276	200
277	50
278	60
280	70
282	440
283	80
288	390
289	100
290	130
294	100
296	6406
297	1441
298	150
302	150
303	30
304	50
308	40
310	80
311	120
316	370
317	60
318	120
322	50
324	1041
325	240
330	200
331	40
332	70
338	180
339	40
344	140
345	30
346	50
352	140
353	30
358	200
359	40
360	70
364	30
366	961
367	240
368	20
372	170
373	50
374	70
386	60
400	130
401	90
402	80
403	30
