Mass Spectrum: l-Alanine, N-butyryl-, methyl ester
Formula: C8 H15 N O3
Molecular weight: 173
Origin: Zaikin V.G., TIPS RAS, Moscow, Russia
m/z	RELATIVE INTENSITY
26	40
27	430
28	30
29	190
30	861
31	50
33	150
39	190
40	50
41	641
42	661
43	2032
44	9999
45	280
55	250
56	100
57	80
58	170
59	280
60	50
68	30
69	70
70	380
71	1251
72	110
74	30
79	30
85	40
86	1061
87	100
88	530
89	60
90	30
98	80
99	30
100	120
102	571
103	110
104	140
113	80
114	2833
115	200
131	240
141	30
142	70
145	711
146	50
173	120
174	30
