Mass Spectrum: 2-Bromopropionic acid, 3-methylphenyl ester
Formula: C10 H11 Br O2
Molecular weight: 242
Origin: Zaikin V.G., TIPS RAS, Moscow, Russia
m/z	RELATIVE INTENSITY
27	110
28	30
39	70
50	10
51	60
52	40
53	60
55	100
56	110
65	40
77	340
78	130
79	270
80	120
89	30
90	120
91	360
92	20
105	10
106	20
107	1511
108	9999
109	1111
134	80
135	210
136	70
137	20
242	841
243	80
244	821
245	80
