Mass Spectrum: Pentanamide, N-decyl-N-methyl-
Formula: C16 H33 N O
Molecular weight: 255
Origin: Zaikin V.G., TIPS RAS, Moscow, Russia
m/z	RELATIVE INTENSITY
27	30
28	130
29	330
36	340
38	50
41	601
42	90
43	611
44	9999
45	260
55	430
56	90
57	1732
58	771
69	150
70	80
71	230
72	50
73	931
74	70
77	30
79	50
81	50
83	130
84	30
85	1141
86	651
87	2192
88	40
91	100
92	40
95	100
97	130
98	40
100	691
101	450
105	30
109	40
111	70
114	871
115	170
116	310
119	120
120	40
123	30
128	1191
129	470
135	490
136	70
142	711
143	70
149	611
156	811
157	60
170	591
171	50
184	250
194	60
196	40
198	7026
199	941
212	260
213	1011
214	90
226	1281
227	150
240	170
254	90
255	280
