Mass Spectrum: Chloroacetamide, N,N-diundecyl-
Formula: C24 H48 Cl N O
Molecular weight: 401
Origin: Zaikin V.G., TIPS RAS, Moscow, Russia
m/z	RELATIVE INTENSITY
25	30
26	260
27	520
28	260
29	651
30	661
35	130
36	861
37	80
38	350
39	571
40	150
41	1922
42	811
43	2542
44	2903
45	80
49	70
50	100
51	120
52	110
53	180
54	240
55	2122
56	1001
57	1772
58	290
60	120
65	60
66	40
67	420
68	230
69	1281
70	801
71	621
72	330
73	320
74	60
75	50
76	30
77	250
78	110
79	240
80	100
81	330
82	270
83	731
84	520
85	360
86	460
87	280
91	90
92	30
93	90
94	180
95	250
96	420
97	520
98	410
99	160
100	190
101	80
105	80
106	450
107	140
108	400
109	130
110	260
111	170
112	390
113	130
114	200
115	60
119	60
120	5075
121	410
122	1732
123	220
124	70
125	50
126	340
127	80
128	230
129	40
133	140
134	80
135	50
136	30
137	40
138	50
140	330
141	60
142	150
147	50
148	80
149	40
150	30
151	20
152	50
154	240
155	50
156	160
162	70
163	30
164	40
168	230
169	50
170	290
171	40
172	40
176	30
177	60
180	40
182	901
183	210
184	4394
185	651
186	30
190	30
191	180
192	40
193	100
196	180
197	130
198	901
199	120
202	30
210	430
211	80
212	3133
213	470
214	390
215	50
218	70
221	40
222	30
224	470
225	120
226	2142
227	360
228	30
231	30
238	290
239	70
240	260
241	40
246	90
248	470
249	80
250	160
252	220
253	50
254	330
255	60
260	2963
261	490
262	961
263	150
265	50
266	150
267	130
268	200
269	30
274	190
275	40
276	70
280	120
288	220
289	40
290	80
294	100
296	160
297	30
302	100
304	40
308	70
310	140
316	60
322	130
323	30
324	601
325	140
330	50
336	50
338	230
339	50
341	40
344	60
350	230
351	60
352	9999
353	2562
354	330
355	100
358	60
364	40
365	120
366	4434
367	1261
368	160
372	50
386	170
387	40
388	50
400	100
401	40
402	40
