Mass Spectrum: Propanamide, N,N-dihexyl-3-phenyl-
Formula: C21 H35 N O
Molecular weight: 317
Origin: Zaikin V.G., TIPS RAS, Moscow, Russia
m/z	RELATIVE INTENSITY
29	30
30	200
41	110
42	30
43	581
44	1041
45	30
55	110
56	50
57	120
58	130
65	30
70	40
72	70
77	60
79	80
83	30
84	30
85	160
86	90
91	1501
92	110
100	330
101	40
102	60
103	70
104	250
105	1471
106	260
107	30
112	100
114	9999
115	821
116	30
128	1091
129	80
131	80
132	70
133	440
134	40
140	30
142	1331
143	110
156	220
157	30
158	30
160	150
162	50
163	380
164	40
170	150
176	200
177	530
178	50
184	360
185	60
186	100
190	260
191	180
204	200
205	60
212	4104
213	581
214	30
218	160
226	320
227	40
232	160
233	150
234	70
246	581
247	340
248	40
260	350
261	70
274	490
275	100
288	290
289	40
302	60
316	60
317	2793
318	701
319	90
