Mass Spectrum: (Phenylthio)acetic acid, 1-cyclopentylethyl ester
Formula: C15 H20 O2 S
Molecular weight: 264
Origin: Zaikin V.G., TIPS RAS, Moscow, Russia
m/z	RELATIVE INTENSITY
26	60
27	170
28	10
29	260
38	30
39	460
40	80
41	1061
42	290
43	641
44	170
45	1231
46	70
47	50
50	110
51	380
52	60
53	210
54	110
55	8217
56	380
57	40
58	30
63	60
65	540
66	220
67	861
68	200
69	1171
70	60
71	80
74	30
75	30
76	50
77	721
78	310
79	330
80	40
81	250
82	90
83	30
84	50
91	190
93	30
94	30
95	310
96	250
97	9999
98	741
105	40
108	160
109	1401
110	891
111	130
112	50
113	30
121	440
122	210
123	5785
124	2432
125	450
126	130
150	50
151	480
152	50
168	2913
169	320
170	150
264	6126
265	1011
266	380
267	50
