Mass Spectrum: Benzamide, N-decyl-N-methyl-2-fluoro-
Formula: C18 H28 F N O
Molecular weight: 293
Origin: Zaikin V.G., TIPS RAS, Moscow, Russia
m/z	RELATIVE INTENSITY
29	30
41	80
42	50
43	100
44	180
55	90
57	120
58	70
69	30
70	40
75	50
95	480
96	40
105	40
119	30
122	30
123	9999
124	751
125	40
134	80
136	70
146	310
147	110
148	170
152	631
153	170
154	420
155	30
160	80
161	120
162	50
166	4664
167	2092
168	200
170	70
180	831
181	140
194	510
195	100
198	140
222	270
223	50
236	220
237	40
250	200
251	30
264	160
273	70
274	210
275	30
276	30
278	110
292	991
293	1631
294	370
295	40
