Mass Spectrum: But-2-enamide, N-(2-fluorophenyl)-3-methyl-
Formula: C11 H12 F N O
Molecular weight: 193
Origin: Zaikin V.G., TIPS RAS, Moscow, Russia
m/z	RELATIVE INTENSITY
27	50
29	160
39	200
52	30
53	170
54	50
55	2022
56	50
82	260
83	9999
84	621
85	30
91	30
110	40
111	6556
112	460
130	120
193	5745
194	651
