Mass Spectrum: Benzamide, N,N-dihexyl-3-fluoro-
Formula: C19 H30 F N O
Molecular weight: 307
Origin: Zaikin V.G., TIPS RAS, Moscow, Russia
m/z	RELATIVE INTENSITY
27	50
28	20
29	60
39	30
41	140
42	100
43	190
44	50
55	100
56	50
57	50
70	30
75	60
84	30
95	941
96	110
109	140
112	80
114	40
122	40
123	9999
124	641
125	40
140	90
142	40
152	200
153	150
164	30
166	631
167	310
168	30
180	160
181	60
184	30
194	190
195	30
206	30
207	40
208	50
212	60
222	180
223	30
224	70
236	2402
237	550
238	60
250	190
251	40
264	170
265	30
278	70
292	20
306	671
307	981
308	220
