Mass Spectrum: Benzamide, N,N-didecyl-4-butyl-
Formula: C31 H55 N O
Molecular weight: 457
Origin: Zaikin V.G., TIPS RAS, Moscow, Russia
m/z	RELATIVE INTENSITY
26	150
27	240
28	80
29	200
30	60
36	60
39	200
40	40
41	490
42	210
43	581
44	300
50	30
51	40
53	40
54	40
55	350
56	190
57	280
58	60
65	50
67	60
68	30
69	120
70	120
71	60
73	60
77	80
78	30
79	50
81	40
83	50
84	100
85	40
89	40
90	150
91	811
92	120
96	70
97	30
98	50
103	50
104	60
105	150
112	40
115	50
117	60
118	260
119	210
126	30
131	170
132	50
133	150
134	50
135	50
136	30
147	70
148	30
159	130
160	60
161	9999
162	1241
163	90
168	150
170	110
176	30
177	30
178	60
184	270
185	30
190	160
191	230
192	30
193	50
204	340
205	240
218	120
219	50
232	140
233	40
246	220
247	40
260	120
267	30
274	150
275	30
288	70
296	90
301	50
302	50
316	190
317	80
318	70
324	80
328	40
330	1541
331	651
332	120
344	190
345	60
358	250
359	70
372	170
373	50
386	210
387	60
400	210
401	60
414	230
415	70
428	140
429	50
442	40
455	30
456	2252
457	1782
458	540
459	80
