Mass Spectrum: Methoxyacetamide, N,N-dinonyl-
Formula: C21 H43 N O2
Molecular weight: 341
Origin: Zaikin V.G., TIPS RAS, Moscow, Russia
m/z	RELATIVE INTENSITY
25	50
26	350
27	721
28	100
29	1181
30	460
31	100
39	661
40	180
41	2612
42	1221
43	4504
44	1521
45	5465
46	140
50	70
51	70
52	50
53	190
54	230
55	2222
56	1011
57	4224
58	651
59	40
60	80
65	40
66	30
67	330
68	190
69	1051
70	671
71	5205
72	420
73	220
74	60
77	70
78	30
79	120
80	40
81	240
82	170
83	480
84	500
85	3503
86	370
87	300
88	921
89	40
90	50
91	60
93	40
94	30
95	140
96	140
97	180
98	460
99	310
100	180
101	100
102	210
103	70
104	40
109	60
110	80
111	80
112	410
113	140
114	190
115	50
116	1241
117	200
119	40
123	50
124	60
125	40
126	330
127	170
128	220
129	30
130	60
133	40
138	30
140	280
141	60
142	180
143	30
144	60
152	30
154	631
155	80
156	1501
157	170
158	110
168	160
169	110
170	1802
171	210
172	70
182	210
183	40
184	1651
185	250
186	150
191	50
196	160
198	2762
199	390
200	1932
201	250
210	100
211	30
212	290
213	40
214	320
215	70
216	210
217	30
224	80
226	450
227	70
228	1792
229	430
230	40
238	60
240	210
241	30
242	280
243	40
252	30
254	180
255	30
256	410
257	70
266	80
268	370
269	70
270	190
271	30
280	60
282	190
283	40
284	100
294	230
295	50
296	9999
297	2182
298	410
299	50
310	50
311	90
312	300
313	50
326	1171
327	240
340	170
341	751
342	180
