Mass Spectrum: Propanamide, n-heptyl-n-octyl-2-bromo-
Formula: C18 H36 Br N O
Molecular weight: 361
Origin: Zaikin V.G., TIPS RAS, Moscow, Russia
m/z	RELATIVE INTENSITY
28	10
29	40
30	70
36	50
41	110
42	50
43	250
44	621
55	210
56	90
57	691
58	30
69	190
70	80
71	320
72	30
79	30
80	70
81	20
82	70
83	70
84	50
85	50
86	140
87	20
95	30
97	70
98	80
99	30
100	60
107	120
109	140
111	40
112	60
113	20
114	80
126	110
128	3063
129	270
135	80
137	70
140	160
142	3143
143	300
154	120
156	190
164	40
166	70
168	90
170	410
171	20
178	1712
179	90
180	1661
181	80
182	70
184	1892
185	240
186	20
196	90
198	1531
199	210
206	20
210	50
212	80
220	60
222	40
224	30
226	791
227	140
240	20
250	90
252	100
254	3613
255	661
256	50
262	931
263	110
264	931
265	100
266	50
276	911
277	100
278	901
279	100
280	20
282	9999
283	2082
284	210
290	70
292	60
304	60
306	70
318	30
320	20
332	530
333	70
334	490
335	80
361	20
362	50
363	30
