Mass Spectrum: But-2-enamide, N-N-didecyl-3-methyl-
Formula: C25 H49 N O
Molecular weight: 379
Origin: Zaikin V.G., TIPS RAS, Moscow, Russia
m/z	RELATIVE INTENSITY
29	60
30	70
41	90
42	20
43	220
44	310
55	430
56	70
57	180
58	50
69	90
70	40
71	70
82	100
83	9999
84	581
85	80
98	110
99	30
100	40
112	240
113	260
114	30
126	360
127	420
128	30
140	310
141	130
154	460
155	90
156	110
168	400
169	80
170	4384
171	510
182	220
183	50
184	601
185	70
196	220
197	60
198	110
210	170
211	90
212	40
224	420
225	100
226	40
238	961
239	340
240	150
252	2482
253	891
254	160
266	1952
267	390
268	50
280	1511
281	310
282	50
294	530
295	130
296	420
297	90
308	581
309	120
322	440
323	110
324	711
325	150
336	420
337	180
350	180
351	40
364	2162
365	561
366	60
378	240
379	1702
380	530
381	70
