Mass Spectrum: Benzamide, N,N-bis(2-ethylhexyl)-3-methoxy-
Formula: C24 H41 N O2
Molecular weight: 375
Origin: Zaikin V.G., TIPS RAS, Moscow, Russia
m/z	RELATIVE INTENSITY
41	40
43	60
55	30
57	50
69	30
77	160
92	80
107	540
108	50
121	2642
122	220
135	9999
136	941
137	70
140	30
151	140
152	190
164	200
165	410
166	40
170	30
178	310
179	140
192	30
193	80
206	170
207	50
220	30
234	230
235	30
247	80
248	30
262	30
263	60
264	90
276	3103
277	661
278	70
346	40
374	60
375	470
376	120
