Mass Spectrum: 2,3,4-Trifluorobenzoic acid, 4-methoxyphenyl ester
Formula: C14 H9 F3 O3
Molecular weight: 282
Origin: Zaikin V.G., TIPS RAS, Moscow, Russia
m/z	RELATIVE INTENSITY
39	30
41	100
52	70
53	30
54	50
63	40
64	30
65	40
80	60
81	330
82	40
95	180
112	30
123	330
124	40
130	30
131	1061
132	80
159	9999
160	721
161	40
282	2382
283	380
284	30
