Mass Spectrum: Propanamide, N,N-dibutyl-2-methyl-
Formula: C12 H25 N O
Molecular weight: 199
Origin: Zaikin V.G., TIPS RAS, Moscow, Russia
m/z	RELATIVE INTENSITY
27	50
29	240
30	140
41	470
42	90
43	2132
44	561
57	1011
70	50
71	1441
72	200
73	90
84	50
86	9999
87	510
100	1251
101	290
114	470
115	220
128	240
142	70
143	30
156	2072
157	190
170	50
184	30
199	1051
200	60
