Mass Spectrum: Benzamide, N-decyl-N-methyl-4-trifluoromethyl-
Formula: C19 H28 F3 N O
Molecular weight: 343
Origin: Zaikin V.G., TIPS RAS, Moscow, Russia
m/z	RELATIVE INTENSITY
28	10
41	90
42	40
43	100
44	220
55	110
57	270
58	20
69	60
70	50
71	30
83	30
95	40
126	50
145	1121
146	70
154	30
155	50
159	30
170	60
173	9999
174	871
175	40
186	40
198	350
199	30
202	701
203	150
204	390
205	30
216	4514
217	2222
218	210
230	921
231	180
244	480
245	150
258	240
259	100
272	250
273	50
286	220
287	40
300	170
301	30
314	140
324	90
328	100
342	1531
343	1692
344	360
345	30
