Mass Spectrum: Nicotinic acid, cyclopentyl ester
Formula: C11 H13 N O2
Molecular weight: 191
Origin: Zaikin V.G., TIPS RAS, Moscow, Russia
m/z	RELATIVE INTENSITY
27	60
28	10
29	30
36	140
38	40
39	190
40	40
41	460
42	30
44	110
50	220
51	841
52	180
53	110
55	40
65	60
66	60
67	571
68	1051
69	390
76	50
77	180
78	3583
79	550
80	60
85	140
87	40
105	300
106	9999
107	731
108	40
115	100
118	30
121	480
122	70
123	330
124	8828
125	641
126	50
134	180
135	30
150	80
163	150
190	60
191	110
