Mass Spectrum: Phenylthioacetamide, N,N-dihexyl-
Formula: C20 H33 N O S
Molecular weight: 335
Origin: Zaikin V.G., TIPS RAS, Moscow, Russia
m/z	RELATIVE INTENSITY
27	30
29	100
30	230
41	270
42	120
43	4864
44	811
45	320
55	290
56	120
57	1271
58	130
65	40
69	40
70	100
72	90
77	80
78	30
79	50
83	80
84	100
85	7677
86	520
91	80
93	30
98	60
100	100
102	120
105	40
106	50
109	160
110	100
112	250
113	30
114	3803
115	280
121	60
122	30
123	1221
124	480
125	70
126	90
128	1471
129	100
140	70
142	290
154	160
156	1191
157	100
160	30
167	330
168	60
170	50
182	30
184	651
185	80
186	40
198	210
204	160
212	9999
213	1481
214	100
218	460
219	60
226	5825
227	901
228	60
251	30
264	561
265	150
266	30
292	140
302	931
303	190
306	120
334	70
335	3763
336	1131
337	310
338	50
