Mass Spectrum: Acetoxyacetic acid, 2-adamantyl ester
Formula: C14 H20 O4
Molecular weight: 252
Origin: Zaikin V.G., TIPS RAS, Moscow, Russia
m/z	RELATIVE INTENSITY
27	80
28	10
29	130
36	20
39	190
40	40
41	450
42	80
43	1722
44	70
51	40
52	30
53	170
54	70
55	280
56	651
57	70
65	110
66	190
67	1031
68	80
69	130
73	390
77	470
78	801
79	1732
80	581
81	631
82	40
91	1061
92	5135
93	2272
94	180
95	50
101	160
104	30
105	701
106	490
107	370
108	40
117	50
119	921
120	80
133	110
134	9999
135	4694
136	450
148	40
150	490
151	150
