Mass Spectrum: Methanesulfonamide, N-ethyl-N-(3-methylphenyl)-
Formula: C10 H15 N O2 S
Molecular weight: 213
Origin: Zaikin V.G., TIPS RAS, Moscow, Russia
m/z	RELATIVE INTENSITY
26	100
27	210
29	120
30	30
39	510
40	60
41	170
42	150
45	40
48	200
50	140
51	390
52	190
53	120
54	30
59	50
62	70
63	350
64	540
65	1581
66	150
67	40
74	30
75	40
76	100
77	891
78	460
79	380
80	50
89	340
90	230
91	4484
92	731
93	330
94	90
102	30
103	60
104	440
105	340
106	711
107	320
108	60
115	230
116	90
117	450
118	2873
119	6736
120	1291
121	90
130	40
132	530
133	641
134	9999
135	1121
182	30
198	2963
199	310
200	150
213	5325
214	651
215	280
