Mass Spectrum: Benzamide, N,N-bis(2-ethylhexyl)-4-trifluoromethyl-
Formula: C24 H38 F3 N O
Molecular weight: 413
Origin: Zaikin V.G., TIPS RAS, Moscow, Russia
m/z	RELATIVE INTENSITY
28	10
29	40
36	30
41	130
42	40
43	190
44	40
55	150
56	40
57	280
69	220
70	130
71	160
81	30
83	60
84	50
95	30
97	50
111	80
112	50
126	40
140	40
145	771
146	40
154	50
159	40
170	30
173	9999
174	821
190	190
202	270
203	290
204	90
216	5475
217	761
218	30
244	130
245	30
272	240
273	30
285	80
286	30
288	40
300	60
301	30
302	240
312	50
314	4934
315	921
316	80
384	30
394	50
413	140
