Mass Spectrum: Bromoacetamide, N-heptyl-N-octyl-
Formula: C17 H34 Br N O
Molecular weight: 347
Origin: Zaikin V.G., TIPS RAS, Moscow, Russia
m/z	RELATIVE INTENSITY
28	20
29	60
30	150
36	110
41	260
42	110
43	510
44	1311
55	470
56	120
57	861
58	90
67	30
69	410
70	120
71	300
72	220
73	30
79	30
80	100
81	50
82	80
83	60
84	120
85	70
86	190
87	50
95	40
97	190
98	90
100	30
109	30
111	110
112	100
114	130
116	50
121	70
123	50
126	150
128	2382
129	200
130	50
135	30
138	30
140	140
142	2272
143	180
150	80
152	240
154	170
156	661
157	40
164	3843
165	150
166	3743
167	140
168	90
170	3003
171	320
182	50
184	2572
185	300
198	150
212	90
220	40
226	681
227	70
236	120
238	90
240	110
248	1101
249	110
250	1241
251	110
252	100
254	7727
255	1351
256	90
262	1231
263	110
264	1231
265	130
268	9999
269	1972
270	160
276	120
278	120
290	70
292	100
306	30
320	20
332	200
334	150
