Mass Spectrum: Methanesulfonamide, N,N-dinonyl-
Formula: C19 H41 N O2 S
Molecular weight: 347
Origin: Zaikin V.G., TIPS RAS, Moscow, Russia
m/z	RELATIVE INTENSITY
26	130
27	350
28	180
29	450
30	380
36	40
38	40
39	340
40	80
41	1181
42	691
43	1591
44	711
48	80
51	30
53	90
54	90
55	931
56	480
57	771
58	80
64	140
65	30
67	130
68	90
69	761
70	370
71	430
72	30
79	160
81	80
82	70
83	430
84	711
85	260
95	30
96	110
97	60
98	270
108	550
110	180
112	240
122	9999
123	410
124	430
125	50
126	110
140	30
142	30
148	40
154	280
155	60
156	170
182	30
196	100
222	250
234	2983
235	390
236	160
268	220
269	40
