Mass Spectrum: 1-Naphthoic acid, pent-2-en-4-ynyl ester
Formula: C16 H12 O2
Molecular weight: 236
Origin: Zaikin V.G., TIPS RAS, Moscow, Russia
m/z	RELATIVE INTENSITY
27	30
38	30
39	410
44	50
50	110
51	190
52	60
53	30
62	60
63	270
64	70
65	901
66	50
74	110
75	220
76	120
77	520
78	40
87	40
89	50
98	30
99	40
100	40
101	370
102	70
109	190
114	40
115	100
123	30
125	50
126	851
127	5755
128	1732
129	160
152	140
153	250
154	60
155	9999
156	3003
157	320
164	40
165	350
166	60
168	300
169	40
171	40
172	70
176	40
177	60
178	70
179	130
180	60
181	40
189	360
190	370
191	1391
192	320
193	30
205	80
208	230
209	30
218	110
219	270
220	40
221	140
235	260
236	2222
237	390
238	40
