Mass Spectrum: Propanamide, N,N-dibutyl-2-chloro-
Formula: C11 H22 Cl N O
Molecular weight: 219
Origin: Zaikin V.G., TIPS RAS, Moscow, Russia
m/z	RELATIVE INTENSITY
27	130
29	450
30	290
39	30
41	520
42	190
43	150
44	951
55	180
56	150
57	2352
58	140
63	591
65	170
70	60
71	20
72	130
80	70
81	20
82	50
84	210
85	30
86	9999
87	550
91	170
93	30
98	50
99	40
100	1221
101	60
112	50
114	350
120	200
121	50
122	60
128	581
129	20
134	2282
135	170
136	771
140	70
141	20
142	370
154	40
156	3253
157	280
164	40
176	3793
177	370
178	1291
179	70
183	20
184	3934
185	470
190	70
219	400
220	40
221	140
