Mass Spectrum: Benzamide, N-(2-fluorophenyl)-2,6-difluoro-
Formula: C13 H8 F3 N O
Molecular weight: 251
Origin: Zaikin V.G., TIPS RAS, Moscow, Russia
m/z	RELATIVE INTENSITY
26	50
27	50
28	20
31	70
36	130
37	60
38	120
39	130
41	50
44	80
50	150
51	80
52	80
56	50
57	470
61	70
62	190
63	1291
64	140
65	20
68	130
69	90
70	40
73	30
74	140
75	170
79	30
80	30
81	170
82	160
83	671
84	80
87	50
88	40
92	50
93	210
94	150
95	60
109	70
110	110
111	230
112	210
113	2282
114	280
123	50
137	30
139	50
140	70
141	9999
142	791
143	40
158	90
251	2432
252	340
