Mass Spectrum: Propanamide, N,N-bis(2-ethylhexyl)-3-cyclopentyl-
Formula: C24 H47 N O
Molecular weight: 365
Origin: Zaikin V.G., TIPS RAS, Moscow, Russia
m/z	RELATIVE INTENSITY
30	20
39	20
41	80
43	130
44	210
55	260
56	40
57	160
67	60
68	20
69	140
70	60
71	120
72	30
73	40
79	90
80	30
81	120
83	30
84	60
85	30
86	40
87	40
91	20
95	60
96	30
97	100
98	70
99	20
100	40
107	210
108	20
109	20
111	20
112	80
113	20
114	40
115	30
119	30
123	20
124	20
125	180
126	70
127	20
128	100
138	20
140	130
141	30
142	9999
143	1131
144	40
154	90
155	70
156	350
157	30
166	40
167	20
168	80
169	30
170	420
171	150
172	40
182	20
183	20
184	2272
185	320
186	20
196	70
197	20
198	100
210	30
212	90
224	80
226	30
236	20
237	30
238	50
240	200
241	30
250	20
252	40
253	20
254	170
255	30
264	20
266	1782
267	330
268	1151
269	210
270	20
283	50
296	240
297	40
308	90
309	20
322	80
336	130
337	30
350	20
364	110
365	90
366	30
