Mass Spectrum: 2-Bromopropionic acid, 3,5-dimethylphenyl ester
Formula: C11 H13 Br O2
Molecular weight: 256
Origin: Zaikin V.G., TIPS RAS, Moscow, Russia
m/z	RELATIVE INTENSITY
27	120
28	10
39	30
41	30
53	80
55	60
56	60
65	90
77	430
78	100
79	200
91	330
92	50
93	50
103	30
105	280
107	1321
108	70
109	100
119	210
120	30
121	500
122	9999
123	771
149	50
256	540
258	460
