Mass Spectrum: Benzamide, N-(2-fluorophenyl)-3-trifluoromethyl-
Formula: C14 H9 F4 N O
Molecular weight: 283
Origin: Zaikin V.G., TIPS RAS, Moscow, Russia
m/z	RELATIVE INTENSITY
36	40
57	40
75	90
83	190
91	20
95	290
111	30
125	140
126	100
144	40
145	3733
146	280
173	9999
174	871
175	40
190	50
264	230
265	30
283	4854
284	731
285	50
