Mass Spectrum: Cyclohexanecarboxamide, N,N-didecyl-
Formula: C27 H53 N O
Molecular weight: 407
Origin: Zaikin V.G., TIPS RAS, Moscow, Russia
m/z	RELATIVE INTENSITY
25	30
26	190
27	370
28	150
29	380
30	210
37	30
38	50
39	430
40	100
41	1281
42	440
43	1371
44	881
50	50
51	60
52	40
53	150
54	230
55	2102
56	561
57	871
58	130
65	40
66	30
67	450
68	130
69	380
70	370
71	300
72	90
73	50
77	40
79	110
80	40
81	290
82	150
83	4984
84	621
85	280
86	120
87	70
91	30
93	30
95	80
97	80
98	210
99	90
100	210
101	30
109	120
110	160
111	881
112	260
113	50
114	160
124	40
126	200
127	40
128	180
138	30
140	200
141	210
142	90
152	50
154	250
155	280
156	250
157	30
166	30
168	480
169	130
170	9999
171	1251
172	70
180	30
182	210
183	60
184	1091
185	140
196	380
197	70
198	1291
199	180
210	200
211	50
212	621
213	90
224	190
225	60
226	410
227	50
238	200
239	50
240	330
241	50
252	190
253	40
254	180
255	20
266	180
267	360
268	390
269	50
280	330
281	300
282	80
292	40
294	280
295	70
296	540
297	130
298	50
308	550
309	120
310	30
322	370
323	80
324	5645
325	1321
326	160
336	270
337	60
350	360
351	90
352	1211
353	310
354	30
364	410
365	120
366	160
367	30
378	260
379	70
392	200
393	50
405	30
406	350
407	591
408	170
