Mass Spectrum: Propanamide, N,N-dihexyl-2-bromo-
Formula: C15 H30 Br N O
Molecular weight: 319
Origin: Zaikin V.G., TIPS RAS, Moscow, Russia
m/z	RELATIVE INTENSITY
27	80
28	70
29	170
30	290
41	320
42	190
43	1401
44	1431
55	350
56	200
57	360
58	40
69	150
70	110
71	100
72	70
83	100
84	110
85	831
86	280
98	100
100	230
107	260
109	260
112	190
114	9999
115	751
126	180
128	440
135	130
137	130
140	120
142	50
156	901
157	60
164	50
166	90
168	120
170	3023
171	300
178	1712
179	80
180	1712
181	80
184	751
185	110
192	70
194	50
212	3063
213	430
236	110
238	100
240	8187
241	1271
242	80
248	1782
249	170
250	1742
251	160
262	50
264	40
276	50
278	60
290	80
292	80
