Mass Spectrum: Benzamide, N,N-bis(2-ethylhexyl)-3-fluoro-
Formula: C23 H38 F N O
Molecular weight: 363
Origin: Zaikin V.G., TIPS RAS, Moscow, Russia
m/z	RELATIVE INTENSITY
27	30
28	20
29	60
36	30
39	30
41	170
42	80
43	160
44	80
55	130
56	60
57	150
69	90
70	70
71	60
75	30
84	40
95	671
96	90
109	190
112	40
122	40
123	9999
124	711
125	40
140	190
152	290
153	260
154	90
164	30
166	2612
167	400
168	30
170	30
180	40
184	50
194	130
195	50
206	30
207	30
208	30
222	260
223	40
234	40
235	70
236	40
250	70
251	40
252	250
253	40
262	50
264	5635
265	1061
266	110
306	40
320	30
334	60
362	50
363	250
364	70
