Mass Spectrum: 2-Methylpropionic acid, 2-naphthyl ester
Formula: C14 H14 O2
Molecular weight: 214
Origin: Zaikin V.G., TIPS RAS, Moscow, Russia
m/z	RELATIVE INTENSITY
27	30
28	10
36	30
39	40
41	90
42	10
43	1091
44	30
63	50
65	80
70	20
71	290
77	10
89	70
93	10
109	30
110	10
114	10
115	981
116	270
117	10
119	50
122	10
126	10
127	130
128	10
139	200
143	40
144	9999
145	1101
146	40
156	20
198	20
214	1281
215	170
