Mass Spectrum: 2-Thiopheneacetic acid, 4-chlorophenyl ester
Formula: C12 H9 Cl O2 S
Molecular weight: 252
Origin: Zaikin V.G., TIPS RAS, Moscow, Russia
m/z	RELATIVE INTENSITY
27	40
28	80
39	200
45	771
47	50
50	30
51	60
52	30
53	751
58	40
63	130
64	30
65	60
69	130
70	140
71	60
73	90
75	90
95	80
96	661
97	9999
98	661
99	641
100	40
101	40
111	60
124	7837
125	591
126	370
127	100
128	270
129	30
130	70
252	240
254	80
