Mass Spectrum: 1-Naphthoic acid, 2,7-dimethyloct-7-en-5-yn-4-yl ester
Formula: C21 H22 O2
Molecular weight: 306
Origin: Zaikin V.G., TIPS RAS, Moscow, Russia
m/z	RELATIVE INTENSITY
27	80
29	50
39	120
41	340
43	410
44	30
50	30
51	90
52	30
53	100
55	160
63	30
64	30
65	120
66	30
67	60
69	50
77	621
78	110
79	410
80	40
81	100
91	761
92	260
93	440
94	60
95	30
101	70
103	50
104	30
105	220
106	50
107	190
109	280
117	70
119	1211
120	150
126	190
127	1932
128	480
129	50
133	70
134	240
135	50
136	150
141	40
151	100
154	30
155	9999
156	1061
157	80
161	30
165	50
172	400
173	70
178	30
179	50
190	50
191	90
192	60
193	50
198	220
199	30
202	30
203	70
204	110
205	571
206	150
217	30
219	260
220	60
221	60
222	160
223	40
235	150
236	30
247	90
249	70
250	300
251	50
261	50
263	951
264	190
278	30
306	110
