Mass Spectrum: Cyclopentanecarboxamide, N-decyl-N-methyl-
Formula: C17 H33 N O
Molecular weight: 267
Origin: Zaikin V.G., TIPS RAS, Moscow, Russia
m/z	RELATIVE INTENSITY
25	112
26	712
27	1500
28	537
29	1362
30	287
31	37
35	112
36	712
37	112
38	462
39	1650
40	562
41	5862
42	1937
43	2775
44	325
45	362
50	137
51	175
52	125
53	450
54	275
55	1750
56	637
57	1475
58	1212
59	75
60	37
63	50
65	212
66	175
67	1125
68	600
69	9999
70	1087
71	425
72	262
73	262
75	50
76	37
77	112
78	37
79	212
80	37
81	137
82	112
83	175
84	325
85	325
86	1875
87	112
91	87
93	62
94	50
95	287
96	300
97	3162
98	662
99	587
100	1350
101	75
102	75
107	37
110	100
111	137
112	275
113	225
114	775
115	62
124	75
126	237
127	225
128	725
129	50
130	175
135	175
138	37
140	1812
141	1550
142	275
147	87
154	587
155	175
156	175
168	762
169	175
170	325
171	50
172	125
182	375
183	50
184	75
196	325
197	50
198	3375
199	437
210	337
211	50
212	362
213	37
224	350
225	50
226	3812
227	562
228	37
238	225
239	62
252	75
253	100
266	100
267	587
268	100
