Mass Spectrum: 2,3,4-Trifluorobenzoic acid, 3,4-dichlorophenyl ester
Formula: C13 H5 Cl2 F3 O2
Molecular weight: 320
Origin: Zaikin V.G., TIPS RAS, Moscow, Russia
m/z	RELATIVE INTENSITY
62	50
63	90
73	40
75	30
81	440
99	30
109	30
112	40
130	40
131	1201
132	90
133	100
135	60
159	9999
160	671
161	50
162	40
320	400
321	50
322	260
323	30
324	40
