Mass Spectrum: Methoxyacetamide, N,N-bis(2-ethylhexyl)-
Formula: C19 H39 N O2
Molecular weight: 313
Origin: Zaikin V.G., TIPS RAS, Moscow, Russia
m/z	RELATIVE INTENSITY
25	40
26	320
27	771
28	200
29	1561
30	430
31	180
39	751
40	210
41	2973
42	1611
43	2582
44	2362
45	6736
46	150
50	170
51	140
52	120
53	280
54	220
55	2172
56	941
57	3623
58	841
59	40
60	110
65	70
66	30
67	270
68	180
69	1291
70	781
71	2282
72	320
73	180
74	400
75	40
77	130
78	70
79	240
80	40
81	170
82	170
83	250
84	530
85	170
86	200
87	70
88	3513
89	150
90	230
91	80
93	30
94	30
95	90
96	110
97	90
98	320
99	60
100	100
102	360
103	130
104	330
105	40
109	30
110	80
111	90
112	460
113	320
114	140
115	100
116	9999
117	721
118	60
123	50
124	110
126	240
127	80
128	120
130	80
133	50
138	50
140	741
141	80
142	1331
143	110
144	80
153	30
154	170
155	40
156	2542
157	250
158	70
168	190
170	1231
171	130
172	140
182	70
183	50
184	891
185	90
186	1561
187	170
191	70
193	30
196	50
198	150
200	90
201	50
202	611
203	50
210	40
212	120
214	5255
215	741
216	60
240	140
254	30
256	120
266	70
268	5045
269	991
270	210
284	180
298	110
312	40
313	420
314	70
