Mass Spectrum: Benzamide, N,N-didecyl-3-methyl-
Formula: C28 H49 N O
Molecular weight: 415
Origin: Zaikin V.G., TIPS RAS, Moscow, Russia
m/z	RELATIVE INTENSITY
25	30
26	170
27	320
28	120
29	320
30	100
36	30
37	20
38	60
39	300
40	70
41	711
42	330
43	781
44	310
50	50
51	60
52	30
53	60
54	60
55	460
56	260
57	330
58	50
63	50
65	190
67	80
68	50
69	180
70	170
71	70
73	30
77	50
79	50
81	60
82	60
83	80
84	130
85	50
89	70
90	110
91	1481
92	160
93	60
95	40
97	50
98	70
105	210
106	30
112	50
117	40
118	130
119	9999
120	891
121	60
126	40
133	30
134	50
136	100
140	30
148	220
149	200
150	30
160	40
162	380
163	250
168	180
170	110
176	130
177	50
184	90
190	160
191	60
196	30
198	40
204	210
205	40
218	110
232	90
233	30
246	50
259	50
260	40
274	190
275	70
276	90
286	40
288	1621
289	631
290	100
296	70
300	30
302	170
303	50
316	220
317	50
324	110
330	140
331	30
344	140
345	30
358	140
359	40
372	130
373	40
386	90
400	90
414	1201
415	1291
416	370
417	50
