Mass Spectrum: 2-Thiophenecarboxylic acid, 4-chlorophenyl ester
Formula: C11 H7 Cl O2 S
Molecular weight: 238
Origin: Zaikin V.G., TIPS RAS, Moscow, Russia
m/z	RELATIVE INTENSITY
39	530
57	50
63	30
73	50
75	40
82	50
83	420
84	30
99	100
101	30
111	9999
112	631
113	490
127	40
128	50
238	731
239	90
240	260
241	30
