Mass Spectrum: Benzamide, N,N-dibutyl-4-trifluoromethyl-
Formula: C16 H22 F3 N O
Molecular weight: 301
Origin: Zaikin V.G., TIPS RAS, Moscow, Russia
m/z	RELATIVE INTENSITY
28	10
29	30
41	30
57	40
84	40
95	50
114	40
125	30
126	50
145	1421
146	100
154	30
156	40
159	50
173	9999
174	921
175	40
190	70
202	370
203	280
216	701
217	330
229	80
230	40
244	160
245	30
246	30
258	3033
259	641
260	60
272	160
282	140
286	30
300	891
301	1161
302	210
