Mass Spectrum: Pentafluoropropanamide, N,N-diheptyl-
Formula: C17 H30 F5 N O
Molecular weight: 359
Origin: Zaikin V.G., TIPS RAS, Moscow, Russia
m/z	RELATIVE INTENSITY
26	100
27	300
28	200
29	510
30	70
36	70
38	30
39	320
40	80
41	1561
42	581
43	1441
44	280
50	50
51	60
53	100
54	130
55	2232
56	621
57	2432
58	140
67	160
68	120
69	741
70	370
71	70
72	100
78	50
79	30
81	90
82	50
83	80
84	130
85	30
95	30
96	50
97	1271
98	240
99	50
100	80
101	30
112	110
113	40
114	30
119	380
126	150
128	270
140	20
142	380
143	30
147	80
154	60
156	1521
157	150
160	40
164	150
170	50
172	70
176	440
177	200
178	561
189	50
190	9999
191	781
192	100
202	70
204	90
205	30
210	60
212	60
216	50
218	210
230	30
232	70
238	50
240	5045
241	881
242	80
260	120
262	641
263	60
274	2652
275	330
276	30
288	110
302	230
303	30
316	30
340	140
