Mass Spectrum: Benzamide, N,N-dihexyl-3-trifluoromethyl-
Formula: C20 H30 F3 N O
Molecular weight: 357
Origin: Zaikin V.G., TIPS RAS, Moscow, Russia
m/z	RELATIVE INTENSITY
41	60
42	30
43	120
44	40
55	70
56	30
57	60
112	120
114	80
126	40
127	60
140	30
142	100
145	891
146	60
155	90
159	40
173	9999
174	841
175	40
184	50
190	130
202	270
203	180
204	30
212	130
216	1702
217	631
218	50
230	240
231	90
244	340
245	60
256	20
257	120
258	100
272	300
273	50
274	110
286	4674
287	1081
288	110
300	320
301	60
314	190
315	40
328	90
336	70
338	70
342	30
356	581
357	951
358	210
