Mass Spectrum: Isonicotinic acid, 2-tetrahydrofurylmethyl ester
Formula: C11 H13 N O3
Molecular weight: 207
Origin: Zaikin V.G., TIPS RAS, Moscow, Russia
m/z	RELATIVE INTENSITY
26	90
27	540
28	190
29	470
30	30
31	70
36	40
38	40
39	430
40	80
41	1241
42	631
43	3633
44	210
50	500
51	1992
52	250
53	130
54	180
55	210
56	150
57	50
69	80
70	60
71	9999
72	460
73	30
75	30
76	60
77	90
78	2602
79	1561
80	140
81	60
82	50
83	80
84	1661
85	90
93	50
105	30
106	2342
107	1011
108	70
121	480
122	30
123	190
124	160
137	80
149	3043
150	290
166	30
177	1792
178	180
179	30
