Mass Spectrum: Propanamide, N,N-dinonyl-3-cyclopentyl-
Formula: C26 H51 N O
Molecular weight: 393
Origin: Zaikin V.G., TIPS RAS, Moscow, Russia
m/z	RELATIVE INTENSITY
26	60
27	160
28	80
29	200
30	270
36	30
39	160
40	40
41	691
42	230
43	1051
44	1241
45	60
51	20
53	60
54	90
55	1431
56	340
57	591
58	120
60	60
65	20
66	20
67	330
68	100
69	611
70	280
71	340
72	160
73	260
74	30
77	30
79	280
80	100
81	400
82	120
83	220
84	190
85	210
86	260
87	410
88	20
91	30
93	20
94	10
95	140
96	60
97	280
98	180
99	70
100	250
101	160
105	20
107	400
108	40
109	40
110	30
111	40
112	160
113	60
114	270
115	80
123	40
124	40
125	260
126	160
127	40
128	260
129	40
133	20
138	20
140	100
141	30
142	310
143	60
144	20
152	20
154	300
155	60
156	9999
157	1121
158	50
166	30
168	90
169	150
170	701
171	80
180	10
182	150
183	30
184	1341
185	330
186	160
191	30
196	90
197	20
198	7857
199	1191
200	110
210	160
211	50
212	841
213	130
224	120
225	40
226	550
227	100
238	90
239	20
240	290
241	50
252	50
254	300
255	50
266	150
267	70
268	861
269	190
270	70
280	280
281	60
282	180
283	60
294	230
295	50
296	7136
297	1451
298	160
308	320
309	80
310	30
311	641
312	140
322	200
323	40
324	2923
325	691
326	80
336	120
337	20
350	200
351	40
355	20
364	200
365	50
378	90
379	20
392	340
393	170
394	60
