Mass Spectrum: Pentanamide, N,N-diundecyl-
Formula: C27 H55 N O
Molecular weight: 409
Origin: Zaikin V.G., TIPS RAS, Moscow, Russia
m/z	RELATIVE INTENSITY
29	50
30	120
41	120
43	280
44	801
55	150
56	50
57	701
58	70
69	100
70	60
71	110
72	40
73	120
83	60
84	50
85	460
86	120
87	210
97	30
98	50
100	120
101	80
102	50
112	40
114	190
115	100
126	40
128	190
129	90
135	80
140	30
142	120
143	30
154	30
156	130
170	260
171	40
182	130
184	9999
185	1391
186	70
197	50
198	801
199	110
210	40
212	1742
213	420
214	80
226	3974
227	741
228	60
239	30
240	510
241	80
254	400
255	100
256	210
268	851
269	200
282	390
283	70
296	530
297	110
310	380
311	80
324	711
325	170
338	250
339	50
350	50
352	9098
353	2332
354	300
366	190
367	250
368	50
380	1231
381	320
382	40
394	140
409	390
410	350
411	220
412	40
