Mass Spectrum: Benzamide, N,N-didecyl-3-trifluoromethyl-
Formula: C28 H46 F3 N O
Molecular weight: 469
Origin: Zaikin V.G., TIPS RAS, Moscow, Russia
m/z	RELATIVE INTENSITY
41	80
43	170
44	110
55	140
56	50
57	200
69	80
70	30
71	40
83	70
84	30
97	30
98	40
112	30
126	30
145	460
146	30
155	50
159	40
168	300
169	30
170	240
173	9999
174	861
175	40
183	50
184	30
190	190
196	30
198	210
202	300
203	310
204	70
216	2622
217	911
218	80
230	240
231	110
244	490
245	150
258	340
259	80
272	160
273	30
286	130
296	130
300	80
313	270
314	90
324	390
325	70
328	530
329	140
330	310
331	50
342	8117
343	2432
344	320
356	571
357	150
370	320
371	90
384	150
385	40
398	190
399	40
412	170
413	40
426	150
427	40
440	140
441	30
448	150
449	50
450	100
451	30
452	30
454	60
468	1171
469	1471
470	420
471	50
