Mass Spectrum: Benzamide, N-ethyl-N-(3-methylphenyl)-2-fluoro-
Formula: C16 H16 F N O
Molecular weight: 257
Origin: Zaikin V.G., TIPS RAS, Moscow, Russia
m/z	RELATIVE INTENSITY
42	30
65	110
75	170
77	50
91	290
92	30
94	30
95	1491
96	90
118	170
119	220
120	30
122	350
123	9999
124	781
125	30
132	40
133	30
134	490
135	50
140	60
150	1031
151	100
165	30
229	270
230	30
237	110
238	310
239	40
242	80
256	520
257	2282
258	370
