Mass Spectrum: Benzamide, N-(2-fluorophenyl)-2-trifluoromethyl-
Formula: C14 H9 F4 N O
Molecular weight: 283
Origin: Zaikin V.G., TIPS RAS, Moscow, Russia
m/z	RELATIVE INTENSITY
28	10
38	30
39	50
50	150
51	80
52	30
57	200
62	30
63	70
64	50
69	70
74	80
75	330
76	90
77	30
81	60
82	60
83	370
84	70
91	30
94	50
95	460
96	70
99	50
107	30
109	40
110	70
111	230
119	50
125	290
126	170
127	50
143	30
144	70
145	3753
146	330
173	9999
174	761
175	40
190	80
244	110
264	80
283	1892
284	280
