Mass Spectrum: Phenylacetamide, N,N-dihexyl-
Formula: C20 H33 N O
Molecular weight: 303
Origin: Zaikin V.G., TIPS RAS, Moscow, Russia
m/z	RELATIVE INTENSITY
26	60
27	200
28	120
29	310
30	380
36	30
39	180
40	40
41	781
42	350
43	4504
44	1201
45	30
51	40
53	30
54	30
55	520
56	250
57	921
58	100
63	60
65	320
67	40
69	90
70	160
71	50
72	100
77	30
81	30
83	60
84	150
85	4604
86	340
89	200
90	300
91	4944
92	1191
93	90
98	120
99	80
100	170
104	110
105	80
106	80
107	40
112	240
113	30
114	9999
115	761
116	30
117	50
118	490
119	110
120	60
126	30
128	1451
129	120
134	30
135	30
136	40
140	90
142	751
143	70
144	150
148	130
149	240
150	20
154	30
156	150
160	340
161	50
162	150
163	290
164	30
170	90
176	100
177	60
184	380
185	70
190	140
191	30
204	110
212	7367
213	1021
214	80
218	250
219	220
220	140
232	711
233	420
234	60
246	220
247	50
260	470
261	90
274	280
275	80
288	90
302	130
303	3113
304	771
305	90
