Mass Spectrum: Hexanamide, N,N-dioctyl-6-chloro-
Formula: C22 H44 Cl N O
Molecular weight: 373
Origin: Zaikin V.G., TIPS RAS, Moscow, Russia
m/z	RELATIVE INTENSITY
25	70
26	460
27	1131
28	400
29	1001
30	550
35	40
36	180
37	80
38	220
39	1041
40	250
41	3133
42	1121
43	2332
44	2422
45	70
50	100
51	120
52	70
53	250
54	230
55	2122
56	791
57	1431
58	240
59	30
60	90
63	60
65	60
66	30
67	300
68	210
69	3133
70	741
71	450
72	230
73	300
75	30
77	60
78	40
79	270
80	350
81	270
82	400
83	140
84	450
85	150
86	280
87	390
91	40
95	70
96	110
97	230
98	360
99	160
100	340
101	150
105	30
106	40
107	60
109	90
110	50
111	270
112	300
113	90
114	340
115	80
119	20
124	30
126	280
127	80
128	3683
129	340
130	40
132	30
133	350
134	40
135	120
140	350
141	90
142	9999
143	1061
144	40
149	40
153	30
154	160
155	70
156	1131
157	170
168	160
169	30
170	1672
171	340
172	50
176	40
177	200
178	30
179	160
182	100
184	2012
185	310
190	30
191	40
196	100
197	30
198	601
199	80
204	40
210	70
212	480
213	80
218	90
220	40
224	60
226	561
227	90
232	40
238	80
240	520
241	90
252	60
254	1942
255	330
260	40
262	120
264	50
266	60
268	3093
269	651
270	60
274	220
275	40
276	80
277	30
280	30
282	330
283	130
288	90
290	30
294	30
296	621
297	120
302	180
303	30
304	100
306	60
310	100
316	100
318	80
320	50
324	470
325	100
330	70
332	70
334	40
338	480
339	110
344	90
346	70
348	40
358	30
360	30
372	40
373	40
374	50
