Mass Spectrum: Phenylthioacetamide, N-(2-fluorophenyl)-
Formula: C14 H12 F N O S
Molecular weight: 261
Origin: Zaikin V.G., TIPS RAS, Moscow, Russia
m/z	RELATIVE INTENSITY
39	110
45	1822
46	40
47	70
50	20
51	280
57	90
63	40
64	30
65	320
66	40
69	70
75	60
77	1081
78	561
79	360
82	40
83	771
84	110
90	90
91	691
92	40
93	300
94	50
95	100
96	30
97	30
105	1651
106	110
108	110
109	671
110	611
111	7677
112	550
121	681
122	1081
123	3813
124	3493
125	390
126	70
131	90
135	90
136	110
137	30
138	200
142	210
150	3513
151	340
152	160
187	550
188	50
219	40
261	9999
262	1692
263	571
264	60
