Mass Spectrum: Dichloroacetamide, N-ethyl-N-(3-methylphenyl)-
Formula: C11 H13 Cl2 N O
Molecular weight: 245
Origin: Zaikin V.G., TIPS RAS, Moscow, Russia
m/z	RELATIVE INTENSITY
26	100
27	180
28	20
29	300
35	330
36	1291
37	140
38	420
39	390
40	50
41	260
42	110
43	100
44	470
45	80
47	90
48	270
49	170
50	310
51	450
52	290
53	120
54	40
55	270
56	40
57	90
58	60
61	30
62	100
63	410
64	190
65	1401
66	130
67	40
69	70
71	40
72	60
73	90
74	110
75	200
76	270
77	911
78	510
79	420
80	110
82	80
83	671
84	110
85	420
86	60
87	60
89	500
90	340
91	4814
92	571
93	110
96	30
102	100
103	200
104	561
105	320
106	991
107	170
108	40
110	140
111	110
112	90
115	60
116	150
117	270
118	1792
119	1031
120	1411
121	130
128	30
130	140
131	150
132	831
133	861
134	9999
135	1031
136	60
138	420
139	290
140	260
141	90
142	40
146	410
147	80
154	90
155	40
156	100
157	30
159	40
160	160
162	5385
163	631
164	30
166	30
174	540
175	120
179	30
180	40
182	30
183	50
185	40
200	30
202	30
209	120
210	611
211	120
212	200
217	100
219	60
230	70
232	40
245	1772
246	230
247	1141
248	140
249	180
