Mass Spectrum: Acetoxyacetamide, N,N-diheptyl-
Formula: C18 H35 N O3
Molecular weight: 313
Origin: Zaikin V.G., TIPS RAS, Moscow, Russia
m/z	RELATIVE INTENSITY
26	20
27	80
29	180
30	150
36	40
39	60
41	410
42	200
43	1121
44	651
45	20
53	20
54	20
55	410
56	180
57	1531
58	120
60	50
67	30
68	30
69	130
70	210
71	110
72	70
73	861
74	100
76	20
81	20
82	30
83	40
84	170
85	150
86	50
87	20
88	40
95	20
96	50
97	60
98	150
99	90
100	40
101	2072
102	140
103	60
110	20
111	20
112	280
113	120
114	90
116	20
126	1001
127	200
128	9999
129	861
130	60
140	240
141	90
142	771
143	70
144	130
145	20
154	270
155	50
156	701
157	70
158	240
159	20
168	2032
169	420
170	130
172	90
173	100
174	230
175	20
182	320
183	90
184	70
186	190
187	40
196	160
197	50
198	160
199	20
200	40
210	230
211	40
212	330
213	50
214	180
215	20
216	20
224	80
226	20
228	561
229	90
238	150
239	20
240	5385
241	881
242	190
243	20
253	30
254	40
256	200
257	30
270	931
271	230
272	30
284	30
298	30
312	30
313	40
314	60
