Mass Spectrum: (Phenylthio)acetic acid, cyclohexyl ester
Formula: C14 H18 O2 S
Molecular weight: 250
Origin: Zaikin V.G., TIPS RAS, Moscow, Russia
m/z	RELATIVE INTENSITY
26	110
27	350
28	20
29	430
38	40
39	711
40	80
41	2142
42	420
43	410
44	210
45	1852
46	110
47	90
50	180
51	631
52	90
53	260
54	390
55	6496
56	320
57	70
58	50
63	90
65	731
66	240
67	591
68	60
69	330
71	40
74	50
75	40
76	70
77	1081
78	480
79	510
80	50
81	500
82	260
83	9689
84	741
89	30
91	360
92	30
94	40
95	30
96	50
97	330
98	50
99	50
105	50
108	220
109	1672
110	2052
111	230
112	90
121	581
122	230
123	9999
124	3463
125	721
126	210
150	40
151	60
168	3853
169	440
170	210
191	30
250	8338
251	1381
252	500
253	60
