Mass Spectrum: 2-Thiophenecarboxylic acid, 3,5-dimethylphenyl ester
Formula: C13 H12 O2 S
Molecular weight: 232
Origin: Zaikin V.G., TIPS RAS, Moscow, Russia
m/z	RELATIVE INTENSITY
39	440
53	40
65	30
77	150
78	30
79	30
82	30
83	380
84	20
91	100
93	30
107	30
111	9999
112	601
113	480
121	70
122	30
232	1301
233	180
234	70
