Mass Spectrum: 1-Naphthamide, N-decyl-N-methyl-
Formula: C22 H31 N O
Molecular weight: 325
Origin: Zaikin V.G., TIPS RAS, Moscow, Russia
m/z	RELATIVE INTENSITY
26	60
27	110
29	120
39	110
40	40
41	340
42	250
43	270
44	160
50	30
53	30
55	200
56	110
57	130
58	40
69	70
70	90
77	110
84	40
101	90
102	50
126	310
127	3543
128	841
129	130
140	30
141	150
142	40
153	70
154	40
155	9999
156	1261
157	110
168	80
169	40
170	60
182	50
183	40
184	591
185	591
186	120
196	160
197	70
198	1722
199	871
200	100
212	320
213	100
226	360
227	80
240	250
241	60
254	260
255	60
268	190
269	50
282	160
283	40
296	110
310	40
324	1722
325	2112
326	530
327	70
329	50
