Mass Spectrum: Acetoxyacetamide, N,N-didecyl-
Formula: C24 H47 N O3
Molecular weight: 397
Origin: Zaikin V.G., TIPS RAS, Moscow, Russia
m/z	RELATIVE INTENSITY
26	30
27	90
28	50
29	140
30	150
36	30
39	80
41	410
42	180
43	1812
44	731
45	30
54	40
55	500
56	260
57	851
58	90
60	70
67	70
68	50
69	270
70	280
71	460
72	90
73	691
74	110
76	30
81	60
82	70
83	180
84	200
85	470
86	90
87	30
88	50
95	50
96	80
97	100
98	180
99	140
100	50
101	1802
102	130
103	40
110	40
111	30
112	300
113	120
114	40
124	30
126	340
127	110
128	40
130	30
138	60
140	210
141	80
142	30
144	120
154	190
155	50
156	120
158	40
168	1091
169	170
170	9999
171	1191
172	80
182	250
183	60
184	881
185	200
186	60
196	340
197	60
198	1021
199	140
200	540
201	70
207	180
208	40
210	3453
211	681
212	240
213	30
214	90
215	90
216	320
217	40
224	420
225	150
226	100
228	190
229	50
238	240
239	80
240	210
241	30
242	40
252	150
253	40
254	100
256	180
257	30
258	50
266	120
267	30
268	50
270	581
271	110
280	130
281	80
282	50
284	100
294	320
295	80
296	500
297	110
298	260
299	50
308	70
310	50
312	220
313	50
322	260
323	70
324	9739
325	2142
326	390
327	50
337	80
338	70
340	110
354	1401
355	410
356	60
368	90
382	50
396	80
397	60
398	60
