Mass Spectrum: Isonicotinic acid, 2-phenylethyl ester
Formula: C14 H13 N O2
Molecular weight: 227
Origin: Zaikin V.G., TIPS RAS, Moscow, Russia
m/z	RELATIVE INTENSITY
26	40
27	80
28	30
36	120
38	30
39	170
41	50
44	90
50	280
51	1171
52	170
53	30
63	90
65	370
75	30
76	60
77	561
78	2412
79	390
89	70
90	30
91	1301
92	120
102	60
103	480
104	9999
105	1071
106	2292
107	160
123	140
124	30
