Mass Spectrum: Benzamide, N-heptyl-N-octyl-3-methoxy-
Formula: C23 H39 N O2
Molecular weight: 361
Origin: Zaikin V.G., TIPS RAS, Moscow, Russia
m/z	RELATIVE INTENSITY
41	60
43	70
44	40
55	50
57	80
58	30
69	30
77	220
92	100
107	671
108	90
109	30
121	1601
122	130
126	60
128	50
134	30
135	9999
136	941
137	70
140	60
142	90
151	70
152	70
156	60
164	210
165	310
170	30
178	440
179	350
180	30
192	150
193	80
206	240
207	60
220	280
221	50
226	100
233	30
234	100
247	30
248	120
249	30
254	140
262	911
263	410
264	60
276	931
277	360
278	50
290	230
291	50
304	180
305	40
318	150
319	30
332	140
346	90
360	1762
361	2212
362	510
363	60
