Mass Spectrum: Furan-2-carboxamide, N,N-diheptyl-
Formula: C19 H33 N O2
Molecular weight: 307
Origin: Zaikin V.G., TIPS RAS, Moscow, Russia
m/z	RELATIVE INTENSITY
29	70
39	50
41	170
42	60
43	190
44	160
55	230
56	70
57	280
58	80
67	30
68	30
69	40
70	50
72	30
81	180
82	30
84	30
95	9999
96	561
97	110
98	40
110	90
111	50
112	190
123	30
124	450
125	350
126	300
128	290
138	4984
139	881
140	60
141	90
142	240
152	210
153	70
154	60
164	30
166	561
167	120
180	380
181	90
192	30
193	110
194	230
195	80
207	210
208	430
209	50
210	150
212	130
222	4674
223	861
224	90
236	651
237	110
250	571
251	160
264	290
265	110
278	460
279	100
292	30
306	50
307	1131
308	240
