Mass Spectrum: Benzamide, N,N-didecyl-2,3,4-trifluoro-
Formula: C27 H44 F3 N O
Molecular weight: 455
Origin: Zaikin V.G., TIPS RAS, Moscow, Russia
m/z	RELATIVE INTENSITY
27	50
28	30
29	80
30	30
39	50
41	230
42	120
43	330
44	120
55	280
56	130
57	200
67	30
69	140
70	90
71	50
81	80
83	100
84	70
85	40
97	50
98	40
112	30
126	30
131	180
132	50
141	70
159	9999
160	651
161	40
168	170
170	170
176	160
182	120
183	50
184	80
188	250
189	220
190	90
196	90
197	60
198	50
202	1942
203	561
204	50
210	30
216	150
217	60
224	30
228	30
230	230
231	50
244	170
245	30
258	80
272	60
286	40
294	30
296	120
299	90
300	40
308	260
309	110
310	60
314	330
315	80
316	290
317	50
322	260
323	60
324	70
328	4534
329	1401
330	200
336	30
342	490
343	150
356	200
357	60
370	110
371	30
384	120
385	40
398	90
399	30
412	90
413	30
426	90
435	80
436	230
437	60
440	60
454	360
455	1972
456	581
457	80
