Mass Spectrum: 2-Thiophenecarboxylic acid, 4-nitrophenyl ester
Formula: C11 H7 N O4 S
Molecular weight: 249
Origin: Zaikin V.G., TIPS RAS, Moscow, Russia
m/z	RELATIVE INTENSITY
28	250
39	641
57	60
63	40
82	60
83	480
84	30
111	9999
112	651
113	490
249	70
