Mass Spectrum: Propanamide, N,N-bis(2-ethylhexyl)-2-methyl-
Formula: C20 H41 N O
Molecular weight: 311
Origin: Zaikin V.G., TIPS RAS, Moscow, Russia
m/z	RELATIVE INTENSITY
28	40
36	110
41	60
43	460
44	310
55	50
57	130
69	60
71	601
88	30
100	60
101	60
114	90
128	30
135	30
142	9999
143	1021
149	641
156	561
170	280
199	30
200	70
212	1641
213	210
240	40
268	1261
269	170
311	70
