Mass Spectrum: Acetoxyacetic acid, dodec-9-ynyl ester
Formula: C16 H26 O4
Molecular weight: 282
Origin: Zaikin V.G., TIPS RAS, Moscow, Russia
m/z	RELATIVE INTENSITY
26	100
27	310
28	40
29	561
30	50
31	80
36	50
38	30
39	621
40	200
41	2462
42	671
43	5675
44	380
45	40
50	60
51	140
52	160
53	721
54	721
55	3573
56	320
57	240
60	30
61	180
63	40
65	460
66	781
67	5945
68	9999
69	1692
70	130
71	100
73	1631
74	110
77	661
78	240
79	3673
80	1631
81	3323
82	7186
83	1181
84	90
85	40
91	1211
92	150
93	3313
94	1181
95	2993
96	901
97	1822
98	160
101	2302
102	100
103	30
105	220
106	70
107	1972
108	971
109	2012
110	410
111	100
117	50
119	1011
120	70
121	1742
122	891
123	490
124	80
125	50
133	60
134	30
135	1962
136	561
137	120
149	220
150	30
151	30
159	50
163	260
164	410
165	70
177	30
201	40
215	50
