Mass Spectrum: Benzamide, N,N-dioctyl-4-chloro-
Formula: C23 H38 Cl N O
Molecular weight: 379
Origin: Zaikin V.G., TIPS RAS, Moscow, Russia
m/z	RELATIVE INTENSITY
26	30
27	80
28	30
29	90
30	30
36	60
39	90
40	30
41	300
42	160
43	260
44	250
50	50
51	30
55	180
56	110
57	140
67	30
69	80
70	60
71	30
75	70
76	50
77	40
84	30
104	80
105	40
111	430
112	50
113	140
138	40
139	9999
140	1011
141	3163
142	370
155	50
156	100
158	30
168	230
169	250
170	120
171	80
180	30
182	611
183	350
184	220
185	120
191	30
196	180
197	60
198	60
199	30
210	240
211	70
212	80
222	40
224	280
225	60
226	90
236	50
238	150
239	30
240	100
251	90
252	60
253	40
266	240
267	70
268	280
269	50
270	30
277	70
278	60
280	2582
281	821
282	941
283	240
284	30
292	30
294	260
295	60
296	80
308	250
309	60
310	80
322	130
323	30
324	40
336	160
337	40
338	50
350	120
351	30
352	40
364	50
378	1181
379	1021
380	651
381	360
382	80
