Mass Spectrum: Benzamide, N,N-diundecyl-4-fluoro-
Formula: C29 H50 F N O
Molecular weight: 447
Origin: Zaikin V.G., TIPS RAS, Moscow, Russia
m/z	RELATIVE INTENSITY
26	20
27	40
28	20
29	60
30	30
36	20
39	40
41	170
42	90
43	250
44	160
55	190
56	110
57	190
58	40
67	30
69	100
70	80
71	50
75	20
81	20
83	50
84	70
85	30
95	310
96	70
97	30
98	60
109	40
112	50
122	30
123	9999
124	691
125	40
126	30
140	110
152	170
153	230
154	40
164	30
165	20
166	520
167	330
168	40
178	10
180	150
181	60
182	220
183	30
184	150
185	10
192	20
194	210
195	70
197	50
198	60
206	20
208	260
209	50
210	30
212	30
222	100
223	20
236	80
237	20
250	100
251	20
264	70
277	90
278	50
292	250
293	80
294	150
295	20
304	40
306	3363
307	1031
308	160
318	20
320	280
321	80
322	30
324	110
325	20
334	240
335	70
348	140
349	40
352	90
353	20
362	170
363	40
376	140
377	40
390	130
391	40
404	120
405	40
418	110
419	30
430	20
432	60
445	20
446	1431
447	1311
448	390
449	60
