Mass Spectrum: Benzamide, N-heptyl-N-octyl-3-trifluoromethyl-
Formula: C23 H36 F3 N O
Molecular weight: 399
Origin: Zaikin V.G., TIPS RAS, Moscow, Russia
m/z	RELATIVE INTENSITY
36	30
41	30
43	50
44	30
55	60
57	100
69	50
114	50
126	120
128	60
140	90
141	30
142	60
145	781
146	50
155	60
156	80
159	40
170	70
173	9999
174	911
175	50
190	170
202	300
203	230
204	50
216	2352
217	781
218	70
226	70
230	230
231	90
244	430
245	110
254	240
255	30
258	330
259	70
271	80
272	130
285	110
286	240
287	40
288	120
300	3753
301	961
302	200
314	3743
315	971
316	120
328	390
329	80
342	240
343	50
356	150
357	30
370	150
371	30
378	130
379	30
380	80
384	60
398	1021
399	1491
400	380
401	40
