Mass Spectrum: Nicotinic acid, 2-phenylethyl ester
Formula: C14 H13 N O2
Molecular weight: 227
Origin: Zaikin V.G., TIPS RAS, Moscow, Russia
m/z	RELATIVE INTENSITY
26	50
27	90
28	30
39	160
41	40
44	60
50	270
51	1031
52	200
53	40
63	90
65	340
75	40
76	50
77	601
78	2692
79	370
89	60
91	891
92	90
102	40
103	480
104	9999
105	1021
106	2803
107	190
123	60
