Mass Spectrum: Benzamide, N-heptyl-N-octyl-4-chloro-
Formula: C22 H36 Cl N O
Molecular weight: 365
Origin: Zaikin V.G., TIPS RAS, Moscow, Russia
m/z	RELATIVE INTENSITY
26	130
27	290
28	140
29	350
30	90
35	30
36	140
37	40
38	100
39	260
40	100
41	751
42	400
43	571
44	450
50	130
51	100
53	60
54	60
55	430
56	260
57	350
58	50
65	30
67	80
68	50
69	170
70	160
71	70
73	40
74	70
75	260
76	190
77	170
78	40
79	40
81	60
82	40
83	50
84	120
85	60
91	50
95	40
96	40
97	30
98	70
103	40
104	240
105	130
110	40
111	1231
112	190
113	420
114	50
115	30
125	80
126	120
127	30
128	60
133	50
137	30
138	50
139	9999
140	811
141	3393
142	330
147	30
152	30
154	40
155	60
156	110
158	30
168	210
169	210
170	100
171	60
180	30
182	520
183	320
184	190
185	100
191	40
193	40
194	30
196	140
197	50
198	40
199	40
210	180
211	50
212	50
222	40
224	190
225	30
226	80
236	40
237	30
238	70
249	40
251	40
252	90
254	110
266	861
267	220
268	330
269	70
277	160
278	80
280	781
281	210
282	290
283	70
294	130
295	20
296	40
308	90
310	30
322	60
336	50
364	540
365	470
366	280
367	150
368	20
