Mass Spectrum: Propanamide, N,N-dioctyl-2,2-dimethyl-
Formula: C21 H43 N O
Molecular weight: 325
Origin: Zaikin V.G., TIPS RAS, Moscow, Russia
m/z	RELATIVE INTENSITY
28	30
29	80
30	90
36	50
41	300
42	60
43	691
44	430
55	240
56	80
57	9438
58	470
69	260
70	90
71	3873
72	220
73	80
83	50
84	90
85	5785
86	350
87	130
97	30
98	60
100	80
102	40
112	50
113	260
114	210
115	400
126	90
128	400
129	260
140	150
142	1651
143	230
156	1381
157	150
158	30
168	90
170	1541
171	260
184	350
185	60
198	310
199	30
212	661
213	290
214	180
226	4094
227	731
228	40
240	991
241	160
254	180
268	9999
269	1892
270	210
282	170
296	170
297	30
310	390
311	70
324	180
325	1031
326	410
327	40
