Mass Spectrum: 2-Bromopropionic acid, 4-benzyloxyphenyl ester
Formula: C16 H15 Br O3
Molecular weight: 334
Origin: Zaikin V.G., TIPS RAS, Moscow, Russia
m/z	RELATIVE INTENSITY
27	60
28	10
36	20
39	30
44	10
51	10
52	10
54	10
55	30
56	40
57	10
63	20
64	20
65	410
77	10
79	10
80	60
81	20
82	50
89	60
90	50
91	9999
92	781
107	170
109	160
110	40
119	30
135	150
136	10
137	30
152	30
200	1511
201	170
334	581
335	70
336	540
337	80
