Mass Spectrum: 2,3,4-Trifluorobenzoic acid, 2-naphthyl ester
Formula: C17 H9 F3 O2
Molecular weight: 302
Origin: Zaikin V.G., TIPS RAS, Moscow, Russia
m/z	RELATIVE INTENSITY
62	30
63	70
65	40
81	270
89	80
113	30
114	40
115	510
116	60
131	1211
132	100
144	80
159	9999
160	721
161	40
302	2622
303	490
304	50
