Mass Spectrum: 17.alpha.-Trenbolone, 3-enol trimethylsilyl ether, 17-trimethylsilyl ether
Formula: C24 H38 O2 Si2
Molecular weight: 414
Origin: C. Ayotte ET AL. J. Chrom., B, 687, 3 (1996)
m/z	RELATIVE INTENSITY
53	470
56	240
57	250
60	350
61	270
63	200
66	220
68	150
72	220
73	9539
75	1872
77	290
78	240
81	320
101	120
102	320
110	80
112	50
113	150
115	440
116	120
118	130
128	150
129	400
131	240
132	120
140	130
142	100
146	130
147	300
149	80
152	240
153	70
154	220
155	130
164	320
166	220
167	220
168	70
178	390
179	561
180	290
189	190
190	290
191	320
193	1802
194	300
195	200
196	80
207	200
209	100
215	120
217	170
219	450
221	70
223	70
229	290
230	170
231	120
233	220
234	170
243	190
250	70
251	190
253	50
265	120
266	240
268	270
270	621
271	320
272	80
278	50
279	150
282	611
283	3643
284	1992
285	941
286	130
294	80
295	540
296	641
297	290
298	911
299	220
308	270
309	3333
310	791
311	300
320	130
321	70
323	561
324	1551
325	400
328	130
385	50
398	50
399	911
400	220
401	80
414	9999
415	3873
416	1361
418	300
