Mass Spectrum: (Phenylthio)acetic acid, 2-ethylcyclohexyl ester
Formula: C16 H22 O2 S
Molecular weight: 278
Origin: Zaikin V.G., TIPS RAS, Moscow, Russia
m/z	RELATIVE INTENSITY
26	60
27	210
28	10
29	340
36	30
39	350
40	80
41	1461
42	150
43	400
44	190
45	1021
46	60
47	40
50	90
51	300
52	60
53	180
54	130
55	2923
56	190
57	400
63	50
65	430
66	180
67	751
68	130
69	9999
70	591
71	30
74	30
76	40
77	641
78	290
79	400
80	60
81	871
82	270
83	230
84	60
91	200
95	190
96	30
97	50
98	70
105	60
108	140
109	1261
110	1251
111	7447
112	691
121	480
122	240
123	4064
124	3233
125	480
126	180
127	70
150	50
151	50
168	4404
169	470
170	230
219	30
258	30
278	9008
279	1672
280	581
