Mass Spectrum: Trichloroacetamide, N,N-dibutyl-
Formula: C10 H18 Cl3 N O
Molecular weight: 273
Origin: Zaikin V.G., TIPS RAS, Moscow, Russia
m/z	RELATIVE INTENSITY
26	170
27	781
28	851
29	2142
30	370
35	490
36	2953
37	190
38	1061
39	821
40	150
41	3954
42	1752
43	811
44	771
47	80
48	120
49	160
50	100
51	140
52	150
53	220
54	240
55	1271
56	991
57	9999
58	641
62	20
63	60
64	30
65	40
67	90
68	170
69	230
70	520
71	150
72	150
73	30
75	70
76	230
77	110
78	200
79	170
80	100
81	30
82	430
83	380
84	2112
85	350
86	510
89	30
90	40
91	70
92	30
93	30
95	30
96	120
97	90
98	240
99	190
100	2252
101	130
103	30
104	40
105	60
106	150
110	751
111	130
112	871
113	80
114	190
117	500
118	70
119	470
120	170
121	140
122	50
123	70
124	120
125	30
126	190
127	30
128	180
130	40
132	110
134	60
137	20
138	260
139	90
140	701
141	70
142	380
144	70
146	130
148	110
150	30
153	150
154	1281
155	180
156	6646
157	661
158	180
160	270
162	270
164	90
166	100
168	210
174	1111
175	90
176	1121
177	60
178	400
180	50
182	160
183	40
184	130
185	30
186	30
188	6956
189	340
190	6676
191	340
192	2162
193	100
194	250
195	40
196	561
197	70
198	350
199	30
200	70
202	110
203	30
204	310
205	30
206	80
210	40
218	70
220	50
230	1842
231	150
232	1782
233	140
234	571
235	40
236	60
238	811
239	90
240	510
241	50
242	70
244	30
