Mass Spectrum: Hexanamide, N,N-dihexyl-6-bromo-
Formula: C18 H36 Br N O
Molecular weight: 361
Origin: Zaikin V.G., TIPS RAS, Moscow, Russia
m/z	RELATIVE INTENSITY
25	70
26	420
27	1251
28	400
29	1011
30	561
37	70
38	180
39	1021
40	230
41	3093
42	1271
43	2933
44	2242
45	70
50	80
51	100
52	60
53	250
54	190
55	1822
56	591
57	480
58	190
60	70
65	40
67	240
68	160
69	2722
70	581
71	140
72	210
73	220
79	200
80	240
81	200
82	310
83	100
84	390
85	240
86	250
87	400
95	30
96	60
97	170
98	250
99	100
100	390
101	150
107	150
109	140
110	30
111	130
112	430
113	90
114	9999
115	861
116	30
126	140
127	90
128	801
129	70
140	180
141	80
142	1081
143	270
144	30
149	40
151	40
154	80
156	1682
157	260
168	100
169	40
170	420
171	50
177	290
179	260
182	130
184	480
185	70
186	40
196	50
198	270
199	30
210	60
212	3153
213	470
214	30
224	30
226	30
227	140
238	30
240	611
241	100
254	150
278	50
280	30
282	901
283	180
290	150
292	150
304	50
306	40
318	120
320	110
332	60
334	50
362	30
363	30
