Mass Spectrum: Propanamide, N,N-diundecyl-3-cyclopentyl-
Formula: C30 H59 N O
Molecular weight: 449
Origin: Zaikin V.G., TIPS RAS, Moscow, Russia
m/z	RELATIVE INTENSITY
26	100
27	180
28	80
29	210
30	270
38	20
39	230
40	60
41	751
42	230
43	941
44	1351
45	50
51	20
52	10
53	80
54	120
55	1631
56	420
57	971
58	160
60	60
65	30
66	30
67	410
68	130
69	741
70	360
71	370
72	170
73	190
74	30
77	20
79	360
80	110
81	460
82	150
83	290
84	260
85	230
86	280
87	400
88	20
91	40
93	40
94	30
95	200
96	120
97	350
98	240
99	100
100	260
101	160
105	20
107	430
108	50
109	80
110	50
111	90
112	210
113	80
114	280
115	60
121	20
122	20
123	60
124	50
125	270
126	190
127	60
128	300
129	50
136	20
137	30
138	40
139	20
140	150
141	50
142	210
143	40
152	30
153	20
154	140
155	60
156	150
157	20
163	20
166	40
167	20
168	130
169	50
170	290
171	60
172	20
178	30
180	40
181	20
182	450
183	70
184	9659
185	1351
186	70
194	40
196	120
197	160
198	781
199	90
210	200
211	40
212	1672
213	430
214	210
215	20
222	20
224	130
225	30
226	9188
227	1702
228	150
236	20
238	130
239	50
240	921
241	160
250	20
252	100
253	30
254	611
255	120
264	20
266	110
267	30
268	340
269	80
280	100
282	480
283	100
292	30
294	200
295	60
296	530
297	110
306	30
308	300
309	90
310	340
311	70
320	30
322	200
323	50
324	921
325	240
326	90
327	20
336	390
337	90
338	200
339	40
350	380
351	110
352	9999
353	2652
354	340
362	20
364	240
365	80
366	70
367	711
368	200
369	20
378	250
379	70
380	3613
381	1011
382	130
392	210
393	60
406	240
407	70
420	200
421	60
435	150
448	40
449	791
450	350
451	80
