Mass Spectrum: Propanamide, N,N-didecyl-3-chloro-
Formula: C23 H46 Cl N O
Molecular weight: 387
Origin: Zaikin V.G., TIPS RAS, Moscow, Russia
m/z	RELATIVE INTENSITY
25	70
26	500
27	591
29	450
30	80
35	220
36	1391
37	120
38	550
39	701
40	190
41	1341
42	430
43	1141
44	1371
45	100
50	170
51	200
52	170
53	250
54	210
55	1521
56	651
57	1281
58	80
63	130
65	130
66	80
67	721
68	260
69	1171
70	460
71	671
72	100
73	1121
74	110
75	140
77	330
78	160
79	571
80	170
81	951
82	360
83	851
84	330
85	510
86	100
87	50
91	420
92	100
93	340
94	170
95	941
96	831
97	871
98	460
99	250
100	160
101	50
103	120
104	60
105	230
106	120
107	270
108	160
109	711
110	250
111	561
112	280
113	150
114	90
115	140
117	120
118	50
119	310
120	110
121	250
122	130
123	490
124	180
125	300
126	320
127	120
128	160
129	90
130	60
131	120
133	530
134	500
135	330
136	170
137	290
138	110
139	120
140	270
141	130
142	120
143	60
145	90
147	571
148	140
149	290
150	100
151	200
152	100
153	90
154	250
155	110
156	270
157	60
159	50
161	120
162	90
163	300
164	80
165	170
166	90
167	70
168	440
169	120
170	7437
171	1041
172	70
175	60
176	120
177	350
178	80
179	240
180	70
181	60
182	280
183	110
184	1161
185	210
189	120
190	90
191	721
192	150
193	500
194	150
195	70
196	330
197	90
198	941
199	150
203	90
204	70
205	100
206	70
210	270
211	80
212	991
213	180
214	70
217	120
218	100
219	80
221	400
222	150
223	70
224	1081
225	270
226	1661
227	280
229	60
231	60
232	60
233	50
236	80
238	611
239	160
240	410
241	60
246	110
247	50
248	370
249	210
250	160
251	90
252	571
253	200
254	300
255	50
259	70
260	2302
261	440
262	771
263	150
265	160
266	410
267	490
268	230
269	80
274	300
275	80
276	110
277	60
280	290
282	490
283	310
284	50
288	350
289	80
290	120
294	200
295	100
296	721
297	170
302	210
303	50
304	70
308	150
309	50
310	100
316	120
322	260
323	80
324	5535
325	1431
326	180
327	90
330	170
331	50
332	60
336	240
337	60
341	210
342	50
344	180
345	50
346	60
350	180
351	250
352	9999
353	2873
354	400
355	480
356	150
357	80
358	210
359	50
360	60
371	50
372	120
386	200
387	110
388	90
