Mass Spectrum: Methanesulfonamide, N,N-dioctyl-
Formula: C17 H37 N O2 S
Molecular weight: 319
Origin: Zaikin V.G., TIPS RAS, Moscow, Russia
m/z	RELATIVE INTENSITY
26	60
27	160
28	90
29	230
30	230
36	80
39	160
40	40
41	701
42	380
43	771
44	490
48	50
53	50
54	60
55	561
56	320
57	741
58	70
64	110
67	80
68	70
69	641
70	250
71	410
72	30
79	130
81	40
82	50
83	90
84	520
85	50
96	50
97	30
98	240
108	540
110	190
111	210
112	140
122	9999
123	430
124	470
126	30
128	30
140	270
141	90
142	170
148	30
168	50
182	90
207	40
208	370
209	40
220	3593
221	440
222	190
240	230
241	40
319	50
