Mass Spectrum: 2-Thiopheneacetamide, N,N-dibutyl-
Formula: C14 H23 N O S
Molecular weight: 253
Origin: Zaikin V.G., TIPS RAS, Moscow, Russia
m/z	RELATIVE INTENSITY
29	641
30	90
39	50
41	1041
42	90
43	60
44	160
45	100
53	100
55	120
56	50
57	9999
58	400
70	40
72	40
84	130
86	1531
87	60
96	70
97	1772
99	90
100	3223
101	170
112	50
128	80
156	9068
157	871
158	30
210	80
253	2132
254	350
255	100
