Mass Spectrum: Propanamide, N,N-diheptyl-2-chloro-
Formula: C17 H34 Cl N O
Molecular weight: 303
Origin: Zaikin V.G., TIPS RAS, Moscow, Russia
m/z	RELATIVE INTENSITY
27	100
28	110
29	280
30	380
36	40
41	561
42	200
43	821
44	2182
45	30
55	791
56	240
57	3243
58	200
63	550
65	130
67	30
69	220
70	260
71	110
72	120
74	30
81	20
82	20
83	50
84	130
85	50
86	170
91	140
93	20
95	20
96	20
97	260
98	170
99	130
100	210
108	70
112	120
113	50
114	170
120	260
121	80
122	360
123	20
124	80
126	561
127	70
128	7417
129	661
134	8067
135	581
136	2712
137	170
140	210
141	140
142	1051
143	90
148	30
154	240
155	30
156	2032
157	180
162	60
168	90
170	1021
171	90
172	310
176	80
178	20
182	430
183	120
184	1211
185	120
190	20
196	140
197	50
198	220
204	40
206	450
207	50
208	130
210	140
211	20
212	881
213	140
218	5205
219	611
220	1772
221	180
224	40
232	190
234	60
238	320
239	40
240	8768
241	1441
242	90
246	260
247	20
248	60
260	130
262	60
266	20
267	60
268	9999
269	1862
270	140
274	220
276	40
302	60
303	300
304	170
305	100
306	30
