Mass Spectrum: 2,2-Dimethylpropanoic acid, 4-benzyloxyphenyl ester
Formula: C18 H20 O3
Molecular weight: 284
Origin: Zaikin V.G., TIPS RAS, Moscow, Russia
m/z	RELATIVE INTENSITY
28	30
29	80
36	130
39	30
41	220
44	70
57	2873
58	60
65	220
85	500
91	9999
92	721
110	50
119	50
144	70
200	2863
201	350
284	2752
285	480
286	30
