Mass Spectrum: But-2-enamide, N-decyl-N-methyl-3-methyl-
Formula: C16 H31 N O
Molecular weight: 253
Origin: Zaikin V.G., TIPS RAS, Moscow, Russia
m/z	RELATIVE INTENSITY
29	110
36	40
39	50
41	110
42	60
43	130
44	1201
45	30
53	40
55	671
56	60
57	130
58	300
69	60
70	60
71	30
82	200
83	9999
84	611
85	60
98	380
99	40
100	30
112	901
113	430
114	160
126	3213
127	1742
128	160
140	871
141	170
142	20
154	991
155	130
156	40
168	480
169	80
170	270
171	50
172	50
182	460
183	70
196	410
197	70
198	701
199	90
210	350
211	100
224	190
238	2252
239	380
240	30
252	170
253	2772
254	641
255	60
