Mass Spectrum: Benzamide, N,N-dibutyl-4-ethyl-
Formula: C17 H27 N O
Molecular weight: 261
Origin: Zaikin V.G., TIPS RAS, Moscow, Russia
m/z	RELATIVE INTENSITY
26	90
27	230
28	80
29	210
30	30
39	160
40	70
41	290
42	220
43	150
44	170
50	60
51	120
52	40
53	100
55	80
56	70
57	100
58	20
63	60
65	70
76	50
77	641
78	160
79	721
80	50
81	561
82	40
84	120
86	30
89	120
90	180
91	190
99	30
100	60
102	50
103	510
104	250
105	1041
106	110
107	70
116	30
118	80
119	60
131	120
132	110
133	9999
134	991
135	180
148	30
149	30
150	110
162	370
163	290
176	390
177	180
178	70
189	40
190	40
204	120
218	801
219	220
220	120
232	50
246	30
260	781
261	911
262	170
