Mass Spectrum: Phenylthioacetamide, N-heptyl-N-octyl-
Formula: C23 H39 N O S
Molecular weight: 377
Origin: Zaikin V.G., TIPS RAS, Moscow, Russia
m/z	RELATIVE INTENSITY
28	60
29	160
30	250
36	50
41	440
42	120
43	1521
44	1001
45	310
55	490
56	140
57	9999
58	510
65	30
69	290
70	120
71	4064
72	230
73	30
77	90
78	30
79	40
83	90
84	110
85	80
86	70
91	90
93	30
97	60
98	80
99	280
100	30
105	60
106	40
109	160
110	190
112	100
113	200
114	50
116	60
119	40
121	70
122	30
123	1181
124	450
125	60
126	140
128	2002
129	140
130	60
135	90
140	120
142	2182
143	200
152	30
154	50
156	661
157	40
167	270
168	200
170	761
171	50
182	100
184	611
185	50
198	80
212	60
218	60
226	701
227	100
228	30
232	240
240	210
246	160
250	30
252	50
254	8358
255	1461
256	90
268	5725
269	1001
270	70
278	250
279	90
292	200
293	40
306	40
320	70
334	50
344	771
345	160
348	50
376	60
377	1922
378	500
379	120
