Mass Spectrum: Benzamide, N,N-dihexyl-3-bromo-
Formula: C19 H30 Br N O
Molecular weight: 367
Origin: Zaikin V.G., TIPS RAS, Moscow, Russia
m/z	RELATIVE INTENSITY
26	60
27	140
29	170
30	40
39	50
41	340
42	270
43	380
55	180
56	120
57	60
70	70
77	110
84	60
91	40
105	550
106	40
112	120
132	30
134	50
146	190
148	170
162	70
169	50
171	50
174	40
182	120
183	9999
184	981
185	9869
186	791
187	60
188	40
204	130
212	400
213	200
214	430
215	190
216	120
217	30
218	731
219	110
224	30
226	981
227	420
228	981
229	410
230	80
232	180
240	290
241	90
242	280
243	80
246	100
254	230
255	40
256	210
257	30
266	30
268	160
269	30
270	120
282	210
283	40
284	290
285	50
286	110
287	20
288	4354
289	981
290	100
296	1641
297	490
298	1631
299	460
300	60
310	240
311	40
312	220
313	30
324	350
325	60
326	340
327	60
338	170
339	20
340	170
341	30
352	40
354	30
366	1161
367	781
368	1361
369	781
370	170
