Mass Spectrum: Benzamide, N,N-didecyl-3-bromo-
Formula: C27 H46 Br N O
Molecular weight: 479
Origin: Zaikin V.G., TIPS RAS, Moscow, Russia
m/z	RELATIVE INTENSITY
25	60
26	420
27	761
28	300
29	761
30	210
37	70
38	180
39	721
40	160
41	1892
42	901
43	1962
44	751
49	30
50	260
51	210
52	70
53	150
54	160
55	1201
56	731
57	781
58	70
63	40
65	50
67	210
68	120
69	460
70	430
71	160
73	70
74	80
75	200
76	320
77	731
78	170
79	230
80	250
81	230
82	350
83	180
84	320
85	120
89	30
90	30
91	240
92	40
93	30
95	60
96	80
97	90
98	160
99	50
102	40
103	80
104	170
105	2342
106	200
110	30
112	120
115	40
116	30
117	70
118	60
119	60
120	30
122	30
126	120
128	40
130	70
131	50
132	80
133	110
134	120
135	50
139	30
140	70
145	40
146	410
147	120
148	240
149	40
154	40
155	701
156	100
157	661
158	90
160	80
162	120
168	440
169	100
170	100
171	50
174	60
176	30
182	60
183	9999
184	831
185	9739
186	761
187	30
188	40
190	30
191	70
193	40
196	80
198	50
200	170
202	180
204	40
212	300
213	180
214	310
215	170
216	30
218	40
226	711
227	330
228	681
229	300
230	40
240	180
241	50
242	170
243	40
254	180
255	40
256	160
257	30
260	180
262	60
267	20
268	250
269	40
270	210
271	30
272	180
273	50
274	1121
275	210
282	140
283	60
284	140
286	130
287	30
288	200
289	30
294	30
296	210
298	90
300	40
302	100
310	70
312	50
316	90
324	90
325	30
326	40
330	70
338	170
339	40
340	330
341	70
342	170
343	30
344	80
352	1421
353	480
354	1441
355	510
356	100
358	50
366	230
367	50
368	220
369	40
380	340
381	70
382	320
383	70
394	190
395	40
396	180
397	40
398	40
399	40
400	5685
401	1712
402	250
408	200
409	40
410	180
411	40
422	170
423	40
424	160
425	30
436	170
437	40
438	180
439	30
450	120
452	120
464	40
466	30
478	1401
479	881
480	1581
481	861
482	220
