Mass Spectrum: Dichloroacetamide, N,N-didecyl-
Formula: C22 H43 Cl2 N O
Molecular weight: 407
Origin: Zaikin V.G., TIPS RAS, Moscow, Russia
m/z	RELATIVE INTENSITY
24	30
25	170
26	891
27	1882
28	901
29	2252
30	1081
35	741
36	3323
37	370
38	1071
39	1641
40	410
41	5985
42	2452
43	8117
44	3883
45	170
47	80
48	180
49	210
50	270
51	300
52	180
53	571
54	641
55	5575
56	2242
57	5115
58	520
59	40
60	40
61	30
62	40
63	70
64	30
65	170
66	90
67	1011
68	621
69	2783
70	1551
71	1912
72	380
73	240
74	90
75	190
76	320
77	400
78	170
79	520
80	270
81	801
82	621
83	2322
84	1111
85	1752
86	310
87	80
89	40
90	30
91	270
92	110
93	200
94	160
95	530
96	290
97	1011
98	801
99	420
100	130
102	70
103	70
104	50
105	180
106	390
107	140
108	230
109	230
110	230
111	300
112	591
113	140
114	70
115	90
117	60
118	70
119	170
120	1521
121	210
122	530
123	80
124	160
125	90
126	550
127	80
128	310
130	170
131	40
132	80
133	200
134	100
135	140
136	70
137	60
138	140
139	150
140	801
141	110
142	671
143	50
144	340
145	30
146	120
147	100
148	50
149	50
150	30
151	30
152	90
153	50
154	6616
155	490
156	4494
157	330
158	691
159	70
160	40
161	100
162	60
163	40
164	40
165	40
166	90
168	1571
169	210
170	1471
171	170
174	30
176	50
177	80
178	30
179	30
180	60
182	390
183	300
184	961
185	290
188	50
189	30
190	30
191	150
192	40
193	110
194	60
196	611
197	90
198	3453
199	430
200	150
202	90
204	70
210	480
211	90
212	370
213	50
222	60
224	270
225	40
226	80
232	410
233	50
234	390
235	30
236	130
238	220
240	110
244	210
246	1471
247	200
248	480
249	50
252	140
254	50
258	40
260	60
265	40
266	90
267	50
268	450
269	40
270	240
272	60
274	60
277	70
280	1712
281	410
282	1131
283	190
284	170
294	160
296	400
297	60
308	120
310	60
320	30
322	821
323	180
324	9999
325	2322
326	230
330	30
336	490
337	120
338	591
339	110
344	100
355	30
358	530
359	100
360	150
372	3513
373	871
374	1181
375	230
