Mass Spectrum: Chloroacetamide, N,N-dioctyl-
Formula: C18 H36 Cl N O
Molecular weight: 317
Origin: Zaikin V.G., TIPS RAS, Moscow, Russia
m/z	RELATIVE INTENSITY
26	140
27	380
28	240
29	611
30	581
35	70
36	510
38	200
39	390
40	100
41	1782
42	801
43	1892
44	2322
45	70
49	130
50	50
51	60
52	50
53	120
54	150
55	1331
56	731
57	1171
58	210
60	50
65	30
67	200
68	140
69	1201
70	561
71	591
72	250
73	80
76	40
77	400
78	40
79	230
81	110
82	110
83	160
84	360
85	120
86	280
87	110
93	30
94	160
95	50
96	140
97	50
98	330
99	100
100	120
101	30
106	440
107	150
108	500
109	60
110	130
111	60
112	320
113	100
114	100
120	6656
121	530
122	2232
123	200
124	30
126	270
127	60
128	190
130	30
134	60
140	761
141	90
142	3043
143	310
148	80
154	210
155	60
156	871
157	90
162	90
164	30
168	260
169	60
170	3043
171	360
172	180
176	60
182	330
183	70
184	1101
185	140
196	180
197	70
198	170
204	70
206	500
207	150
208	230
210	140
211	50
212	240
213	30
218	3313
219	450
220	1141
221	140
224	70
226	110
232	240
233	30
234	80
238	100
240	530
241	90
246	320
247	40
248	100
252	40
254	160
255	20
260	130
262	40
266	120
267	30
268	9999
269	1982
270	200
274	70
280	30
281	40
282	5765
283	1191
284	130
288	90
302	120
304	30
316	70
317	50
318	60
