Mass Spectrum: Benzamide, N,N-bis(2-ethylhexyl)-2-trifluoromethyl-
Formula: C24 H38 F3 N O
Molecular weight: 413
Origin: Zaikin V.G., TIPS RAS, Moscow, Russia
m/z	RELATIVE INTENSITY
26	40
27	100
28	50
29	140
30	30
39	130
40	30
41	460
42	220
43	330
44	80
50	40
51	30
53	40
54	30
55	320
56	170
57	290
67	40
68	30
69	160
70	160
71	80
75	40
77	30
81	20
83	30
84	60
95	60
96	40
98	40
112	70
125	50
126	110
127	50
130	100
140	60
144	30
145	1111
146	160
148	30
154	40
170	110
172	40
173	9999
174	751
175	40
176	40
182	140
183	40
184	40
190	160
196	30
202	150
203	210
204	110
216	1712
217	370
218	30
230	30
244	100
245	30
258	40
272	110
286	30
302	280
303	40
314	1161
315	310
316	40
344	40
356	30
384	40
412	30
413	110
