Mass Spectrum: trans-Cinnamamide, N-ethyl-N-(3-methylphenyl)-3-trifluoromethyl-
Formula: C19 H18 F3 N O
Molecular weight: 333
Origin: Zaikin V.G., TIPS RAS, Moscow, Russia
m/z	RELATIVE INTENSITY
28	10
57	40
65	60
77	40
91	390
92	40
95	50
97	30
102	280
107	190
118	240
119	210
120	2943
121	270
131	30
132	40
133	100
134	410
135	6936
136	721
145	150
147	120
151	2212
152	290
157	70
159	60
169	60
170	120
171	3133
172	320
174	1281
175	160
178	70
188	3513
189	480
198	90
199	9999
200	1241
201	60
215	270
216	350
217	30
226	220
227	20
290	80
304	230
305	90
314	360
315	40
316	40
318	260
319	40
332	641
333	5205
334	1091
335	110
