Mass Spectrum: Cyclopentanecarboxamide, N,N-dihexyl-
Formula: C18 H35 N O
Molecular weight: 281
Origin: Zaikin V.G., TIPS RAS, Moscow, Russia
m/z	RELATIVE INTENSITY
25	70
26	410
27	1111
28	410
29	1041
30	430
36	80
37	80
38	150
39	1141
40	410
41	3753
42	1221
43	2702
44	1601
45	30
50	60
51	80
52	50
53	280
54	160
55	1061
56	480
57	430
58	180
65	110
66	90
67	751
68	390
69	7607
70	771
71	80
72	140
73	30
79	50
81	60
82	50
83	70
84	370
85	300
86	220
95	140
96	230
97	1641
98	370
99	130
100	470
101	30
110	40
111	30
112	370
113	110
114	9999
115	851
126	190
127	200
128	891
129	70
138	60
140	370
141	340
142	831
143	70
154	210
155	110
156	751
157	60
168	220
169	130
170	250
182	140
183	30
184	300
185	40
196	160
197	150
198	90
210	270
211	130
212	2172
213	300
224	140
238	340
239	50
240	1111
241	180
252	200
253	40
266	40
280	40
281	410
282	120
