Mass Spectrum: Pentanamide, N,N-didecyl-5-bromo-
Formula: C25 H50 Br N O
Molecular weight: 459
Origin: Zaikin V.G., TIPS RAS, Moscow, Russia
m/z	RELATIVE INTENSITY
30	70
41	70
43	250
44	691
55	380
56	50
57	300
69	80
71	90
79	50
81	60
83	120
84	70
85	110
97	70
98	60
100	40
112	80
114	80
126	40
127	30
128	160
135	130
137	110
142	40
156	100
163	90
168	160
170	9999
171	1241
182	60
184	631
185	50
191	50
193	30
198	1371
199	140
212	450
213	40
224	80
226	300
240	601
241	30
252	30
253	30
254	581
255	30
267	30
268	120
280	50
281	60
282	120
294	70
296	380
297	60
308	40
320	130
322	160
324	8498
325	2202
326	210
332	500
333	40
334	480
346	70
348	40
352	751
353	170
360	130
362	120
364	30
374	60
376	70
379	50
380	5865
381	1431
382	140
388	30
402	70
404	60
416	50
418	40
430	30
432	30
458	40
459	60
460	90
461	80
