Mass Spectrum: Propanamide, N,N-dibutyl-2,2-dimethyl-
Formula: C13 H27 N O
Molecular weight: 213
Origin: Zaikin V.G., TIPS RAS, Moscow, Russia
m/z	RELATIVE INTENSITY
28	190
29	490
30	130
36	340
38	50
41	821
42	90
43	80
44	280
55	90
56	40
57	9999
58	420
70	40
72	90
73	70
79	50
84	80
85	3023
86	1001
87	50
100	1892
101	30
112	40
114	310
115	250
120	50
128	310
129	40
142	110
156	3894
157	350
170	861
171	100
198	100
213	711
214	70
