Mass Spectrum: Benzamide, N,N-dinonyl-4-butyl-
Formula: C29 H51 N O
Molecular weight: 429
Origin: Zaikin V.G., TIPS RAS, Moscow, Russia
m/z	RELATIVE INTENSITY
26	80
27	180
28	60
29	170
30	50
39	140
40	30
41	410
42	190
43	470
44	160
53	30
54	20
55	280
56	140
57	180
58	40
65	40
67	40
69	90
70	100
71	40
77	60
79	40
83	30
84	80
85	30
89	40
90	190
91	801
92	90
98	40
103	60
104	70
105	140
112	40
115	40
117	50
118	330
119	210
126	30
131	170
132	50
133	120
134	40
145	30
147	50
148	30
154	140
156	90
159	110
160	50
161	9999
162	1161
163	90
170	200
178	50
190	170
191	200
202	20
204	360
205	230
206	30
218	130
219	50
232	150
233	50
244	30
246	230
247	50
258	30
260	190
261	50
268	80
274	90
287	60
288	40
296	70
302	190
303	70
304	60
314	40
316	1461
317	581
318	100
328	30
330	200
331	60
344	270
345	70
358	180
359	50
372	230
373	60
386	260
387	80
400	150
401	40
414	50
428	2052
429	1611
430	470
431	70
