Mass Spectrum: 2-Thiopheneacetic acid, 2-naphthyl ester
Formula: C16 H12 O2 S
Molecular weight: 268
Origin: Zaikin V.G., TIPS RAS, Moscow, Russia
m/z	RELATIVE INTENSITY
39	50
45	240
53	280
63	50
65	40
69	50
70	40
89	80
95	20
96	390
97	6015
98	390
99	250
114	30
115	1061
116	210
124	5425
125	430
126	290
127	170
143	60
144	9999
145	1081
146	60
268	2292
269	390
270	130
