Mass Spectrum: Pentanamide, N,N-bis(2-ethylhexyl)-
Formula: C21 H43 N O
Molecular weight: 325
Origin: Zaikin V.G., TIPS RAS, Moscow, Russia
m/z	RELATIVE INTENSITY
29	70
30	140
41	160
43	190
44	971
55	100
56	30
57	671
58	30
69	90
70	50
71	170
72	30
73	70
84	40
85	420
86	50
87	40
98	30
100	50
102	100
112	40
114	90
115	130
126	40
128	180
129	40
140	40
142	9999
143	1051
144	30
156	370
157	50
170	310
171	90
184	430
185	50
198	30
212	70
214	90
226	1611
227	250
240	60
268	681
269	110
296	70
325	40
