Mass Spectrum: Benzamide, N-ethyl-N-(3-methylphenyl)-3-methoxy-
Formula: C17 H19 N O2
Molecular weight: 269
Origin: Zaikin V.G., TIPS RAS, Moscow, Russia
m/z	RELATIVE INTENSITY
63	30
64	120
65	50
76	50
77	821
78	70
79	50
91	140
92	540
93	30
107	1752
108	140
118	90
119	90
133	30
134	310
135	9999
136	921
137	70
162	400
163	40
240	30
241	180
254	70
268	1351
269	3693
270	671
271	70
