Mass Spectrum: Nicotinamide, N,N-dinonyl-
Formula: C24 H42 N2 O
Molecular weight: 374
Origin: Zaikin V.G., TIPS RAS, Moscow, Russia
m/z	RELATIVE INTENSITY
26	140
27	260
28	100
29	270
30	90
35	30
36	230
38	110
39	260
40	60
41	751
42	350
43	741
44	390
50	110
51	260
52	100
53	80
54	70
55	571
56	300
57	330
58	30
65	40
67	130
68	70
69	270
70	210
71	120
73	100
75	50
76	50
77	140
78	1692
79	320
80	110
81	110
82	100
83	140
84	160
85	80
91	60
92	50
93	100
94	30
95	90
96	160
97	70
98	80
99	30
104	60
105	200
106	9999
107	771
108	150
109	50
110	30
111	40
112	80
119	50
120	40
121	40
122	50
123	310
124	30
126	50
133	120
134	50
135	450
136	260
137	70
140	30
142	30
147	110
148	60
149	1631
150	420
151	50
154	230
155	70
156	120
157	30
161	40
163	210
164	70
170	40
175	40
177	300
178	70
182	60
183	290
184	150
185	290
189	50
190	100
191	300
192	80
193	80
200	30
202	30
203	60
204	30
205	160
206	180
217	40
219	100
232	100
233	70
234	30
247	320
248	80
249	260
250	40
259	60
261	3583
262	921
263	110
265	30
266	30
267	60
268	160
273	50
275	310
276	80
289	230
290	50
296	220
297	40
303	110
304	30
317	130
318	30
324	40
326	40
331	130
332	30
345	130
346	60
355	50
359	50
373	1181
374	1021
375	240
376	30
