Mass Spectrum: Thiophene-2-carboxamide, N-ethyl-N-(3-methylphenyl)-
Formula: C14 H15 N O S
Molecular weight: 245
Origin: Zaikin V.G., TIPS RAS, Moscow, Russia
m/z	RELATIVE INTENSITY
39	240
65	110
77	50
83	340
91	310
92	30
110	130
111	9999
112	751
113	510
118	180
119	200
120	60
128	100
132	40
133	40
134	1291
135	140
138	891
139	70
140	80
141	60
212	280
213	30
217	380
218	40
230	230
244	150
245	5685
246	931
247	320
248	40
