Mass Spectrum: 1-Naphthoic acid, undec-2-enyl ester
Formula: C22 H28 O2
Molecular weight: 324
Origin: Zaikin V.G., TIPS RAS, Moscow, Russia
m/z	RELATIVE INTENSITY
27	30
28	30
29	80
39	70
41	330
42	30
43	240
44	30
51	30
53	60
54	200
55	470
56	50
57	120
63	50
67	250
68	130
69	260
70	40
75	40
76	30
77	160
79	50
81	190
82	150
83	150
95	120
96	90
97	80
101	90
102	30
109	60
110	50
115	60
124	70
126	310
127	2542
128	821
129	160
141	100
142	30
144	40
152	110
153	50
154	150
155	9999
156	1852
157	180
161	70
165	50
166	30
167	320
168	100
169	30
171	60
172	5805
173	851
174	80
178	30
181	80
184	60
185	100
186	130
193	50
194	30
197	60
198	240
199	40
211	80
212	50
225	140
226	140
239	30
253	80
267	50
279	130
280	30
295	40
324	1011
325	240
326	80
