Mass Spectrum: Benzamide, N,N-diheptyl-3-trifluoromethyl-
Formula: C22 H34 F3 N O
Molecular weight: 385
Origin: Zaikin V.G., TIPS RAS, Moscow, Russia
m/z	RELATIVE INTENSITY
41	70
43	70
44	50
55	110
56	40
57	130
126	230
128	100
141	70
145	791
146	50
154	30
155	80
156	140
159	50
173	9999
174	921
175	50
190	150
202	300
203	250
204	50
212	70
216	2162
217	761
218	70
230	220
231	90
240	210
241	30
244	420
245	120
258	320
259	60
271	170
272	110
286	390
287	90
288	200
300	6276
301	1631
302	190
314	450
315	100
328	300
329	70
342	130
343	30
356	170
357	30
364	120
365	30
366	70
370	60
384	891
385	1441
386	380
387	40
