Mass Spectrum: Benzamide, N,N-dihexyl-4-fluoro-
Formula: C19 H30 F N O
Molecular weight: 307
Origin: Zaikin V.G., TIPS RAS, Moscow, Russia
m/z	RELATIVE INTENSITY
27	40
28	10
29	40
30	10
39	20
41	110
42	80
43	140
44	40
55	70
56	40
57	50
58	20
70	20
75	50
84	20
94	20
95	691
96	80
109	30
112	80
114	40
122	40
123	9999
124	631
125	40
127	40
140	60
152	170
153	160
154	10
164	20
166	420
167	250
168	20
180	150
181	60
184	30
194	150
195	20
206	20
207	40
208	60
212	20
222	140
223	30
224	40
236	1852
237	400
238	40
250	130
251	30
264	140
265	30
278	70
292	20
306	591
307	741
308	170
309	20
