Mass Spectrum: 2-Thiophenecarboxylic acid, 4-cyanophenyl ester
Formula: C12 H7 N O2 S
Molecular weight: 229
Origin: Zaikin V.G., TIPS RAS, Moscow, Russia
m/z	RELATIVE INTENSITY
39	811
45	30
57	90
63	30
64	40
81	30
82	70
83	540
84	40
90	60
111	9999
112	661
113	490
229	130
