Mass Spectrum: Benzamide, N,N-diheptyl-2,6-difluoro-
Formula: C21 H33 F2 N O
Molecular weight: 353
Origin: Zaikin V.G., TIPS RAS, Moscow, Russia
m/z	RELATIVE INTENSITY
26	90
27	240
28	110
29	270
30	50
36	30
38	30
39	210
40	40
41	601
42	330
43	410
44	120
50	30
53	40
54	40
55	310
56	170
57	220
63	130
67	30
68	40
69	80
70	90
84	70
94	40
98	30
112	40
113	480
114	150
123	50
126	80
127	50
128	30
136	40
140	120
141	9999
142	741
143	50
152	70
154	30
156	30
158	160
164	110
165	90
166	180
170	140
171	190
172	70
178	70
179	50
180	40
184	1211
185	550
186	50
192	40
198	100
199	40
206	90
210	30
212	140
213	40
220	30
226	170
240	90
248	150
249	80
250	120
254	150
256	130
262	250
263	50
264	30
268	1141
269	390
270	80
276	40
282	370
283	70
296	170
297	30
310	80
324	90
333	40
334	430
335	100
338	30
352	130
353	440
354	100
