Mass Spectrum: Trichloroacetamide, n-decyl-N-methyl-
Formula: C13 H24 Cl3 N O
Molecular weight: 315
Origin: Zaikin V.G., TIPS RAS, Moscow, Russia
m/z	RELATIVE INTENSITY
26	180
27	561
28	320
29	801
30	150
35	470
36	2863
37	180
38	931
39	691
40	180
41	2833
42	2162
43	3653
44	3753
45	90
47	70
48	90
49	120
50	90
51	120
52	100
53	280
54	280
55	2512
56	1031
57	5925
58	941
59	30
60	30
63	70
65	70
66	50
67	420
68	410
69	1161
70	1571
71	2883
72	410
73	80
75	40
76	300
77	140
78	540
79	200
80	210
81	260
82	540
83	1091
84	861
85	3373
86	330
87	40
89	30
90	120
91	140
92	60
93	70
94	60
95	170
96	390
97	420
98	450
99	561
100	120
104	40
105	60
106	160
107	40
108	130
109	70
110	691
111	200
112	811
113	100
114	250
117	751
118	30
119	821
120	791
121	360
122	260
123	130
124	80
125	290
126	230
127	230
128	60
132	130
133	40
134	90
136	40
138	80
140	310
141	210
142	400
143	80
144	210
146	200
148	90
152	40
153	360
154	2963
155	751
156	1832
157	360
158	320
159	60
160	1401
161	40
162	1321
163	40
164	420
166	90
168	260
169	90
170	1101
171	150
174	30
176	370
178	330
180	190
182	200
183	30
184	60
188	5195
189	500
190	4984
191	520
192	1641
193	160
194	220
196	731
197	100
198	9999
199	1331
200	100
202	100
204	70
210	180
211	30
212	50
216	50
218	80
224	30
226	120
232	250
234	80
244	160
245	30
246	621
247	90
248	190
252	180
254	110
280	1391
281	210
282	911
283	130
284	150
317	30
