Mass Spectrum: Propanamide, N-(3-methylphenyl)-3-phenyl-
Formula: C16 H17 N O
Molecular weight: 239
Origin: Zaikin V.G., TIPS RAS, Moscow, Russia
m/z	RELATIVE INTENSITY
27	60
28	40
39	110
41	40
44	120
50	40
51	140
52	60
53	40
55	30
63	60
65	330
66	30
77	601
78	240
79	410
80	70
89	70
90	50
91	2022
92	170
93	230
102	30
103	280
104	280
105	931
106	1031
107	9999
108	801
109	30
118	20
119	30
120	120
131	80
132	100
133	80
134	50
147	20
181	180
182	30
194	170
195	50
196	30
238	50
239	3873
240	701
241	60
