Mass Spectrum: Benzamide, N,N-dinonyl-2-fluoro-
Formula: C25 H42 F N O
Molecular weight: 391
Origin: Zaikin V.G., TIPS RAS, Moscow, Russia
m/z	RELATIVE INTENSITY
41	60
43	110
44	60
55	70
56	30
57	70
58	30
69	50
71	30
83	30
95	170
122	30
123	9999
124	801
125	50
140	200
146	110
147	50
148	30
152	300
153	320
154	200
156	120
160	130
161	90
166	1561
167	841
168	80
170	30
174	30
180	220
181	90
182	40
184	110
188	30
194	320
195	100
207	30
208	340
209	80
216	30
222	210
223	40
236	100
249	110
250	60
258	490
259	260
260	100
264	500
265	110
266	330
267	50
268	150
272	681
273	180
274	30
278	5995
279	1882
280	250
286	50
292	500
293	130
296	130
306	400
307	90
320	220
321	50
334	250
335	60
348	220
349	50
362	210
363	50
371	160
372	430
373	110
374	40
376	90
390	1651
391	2132
392	611
393	90
