Mass Spectrum: Pentafluoropropanamide, N,N-dioctyl-
Formula: C19 H34 F5 N O
Molecular weight: 387
Origin: Zaikin V.G., TIPS RAS, Moscow, Russia
m/z	RELATIVE INTENSITY
26	100
27	250
28	160
29	400
30	50
36	40
38	30
39	290
40	80
41	1361
42	510
43	1621
44	240
50	50
51	50
53	90
54	130
55	1321
56	510
57	1261
58	130
67	200
68	140
69	2232
70	460
71	691
72	90
78	40
79	30
81	110
82	90
83	260
84	200
85	40
95	40
97	40
98	120
99	50
100	60
101	30
110	40
111	430
112	150
113	40
119	300
126	70
128	40
140	140
142	220
147	70
156	350
157	30
160	30
164	150
168	60
170	1451
171	160
172	70
176	390
177	220
178	561
184	60
189	40
190	9999
191	741
192	110
202	70
204	100
205	40
212	30
216	70
218	280
230	40
232	90
238	60
240	70
246	40
266	60
268	6306
269	1111
270	120
274	150
276	851
277	90
288	3573
289	480
290	60
302	140
316	330
317	50
330	60
344	30
358	30
368	160
369	30
