Mass Spectrum: Thiophene-2-carboxamide, N-decyl-N-methyl-
Formula: C16 H27 N O S
Molecular weight: 281
Origin: Zaikin V.G., TIPS RAS, Moscow, Russia
m/z	RELATIVE INTENSITY
29	40
39	140
41	110
42	50
43	160
44	270
55	110
57	200
58	510
59	30
69	30
70	70
71	40
83	160
84	60
85	110
97	100
98	40
100	50
111	9999
112	861
113	540
114	30
124	60
126	70
136	100
139	40
140	140
141	1021
142	220
143	50
150	70
154	3904
155	2152
156	350
157	100
168	510
169	120
170	210
182	300
183	120
192	40
196	180
197	150
198	30
206	30
210	330
211	50
224	530
225	80
234	40
238	180
248	2472
249	430
250	40
252	90
253	40
266	80
267	30
280	110
281	1181
282	290
283	70
