Mass Spectrum: Isonicotinamide, N,N-dioctyl-
Formula: C22 H38 N2 O
Molecular weight: 346
Origin: Zaikin V.G., TIPS RAS, Moscow, Russia
m/z	RELATIVE INTENSITY
26	170
27	340
28	140
29	360
30	80
38	150
39	300
40	60
41	951
42	410
43	771
44	430
50	160
51	450
52	120
53	100
54	70
55	581
56	290
57	360
58	20
65	40
67	130
68	70
69	340
70	200
71	120
73	50
75	50
76	40
77	130
78	2372
79	440
80	90
81	90
82	50
83	80
84	150
85	40
91	60
92	80
93	110
95	50
96	70
97	40
98	80
105	90
106	9999
107	811
108	90
109	30
111	20
112	70
119	60
120	50
121	40
122	70
123	290
130	40
133	90
134	40
135	601
136	290
137	130
139	30
140	210
142	80
147	90
148	50
149	3663
150	761
151	70
156	50
161	60
163	250
164	90
168	70
170	480
171	50
175	60
176	70
177	450
178	100
183	40
185	30
189	110
190	30
191	390
192	150
193	50
203	120
205	160
206	30
216	50
217	40
218	120
219	70
231	30
233	370
234	80
235	320
236	40
238	30
240	80
245	50
247	4484
248	1111
249	120
259	50
261	500
262	130
268	641
269	120
275	350
276	70
277	50
282	30
289	140
290	30
303	150
304	30
317	130
331	50
345	1131
346	1111
347	270
