Mass Spectrum: Benzamide, N,N-didecyl-4-ethyl-
Formula: C29 H51 N O
Molecular weight: 429
Origin: Zaikin V.G., TIPS RAS, Moscow, Russia
m/z	RELATIVE INTENSITY
26	90
27	190
28	70
29	170
30	60
39	170
40	60
41	450
42	200
43	500
44	300
50	40
51	50
53	40
54	40
55	310
56	190
57	220
58	50
65	30
67	50
68	30
69	120
70	130
71	50
73	30
77	190
78	60
79	290
81	30
83	50
84	110
85	40
89	40
90	50
91	130
96	40
97	30
98	50
103	180
104	140
105	601
106	70
112	40
117	20
118	50
119	100
126	40
131	90
132	120
133	9999
134	981
135	90
148	40
150	70
162	170
163	210
168	170
170	110
174	30
176	360
177	240
178	30
184	180
190	130
191	100
193	30
196	30
204	150
205	50
218	200
219	50
232	110
246	130
247	30
260	60
273	50
274	50
288	170
289	70
290	80
296	80
300	30
302	1441
303	581
304	100
314	30
316	170
317	50
324	80
330	220
331	60
344	150
345	40
358	180
359	40
372	160
373	40
386	160
387	40
400	110
401	30
414	40
428	1641
429	1351
430	390
431	60
