Mass Spectrum: Propanamide, N,N-dinonyl-2-methyl-
Formula: C22 H45 N O
Molecular weight: 339
Origin: Zaikin V.G., TIPS RAS, Moscow, Russia
m/z	RELATIVE INTENSITY
28	10
36	30
41	40
43	460
44	220
55	50
57	130
69	60
70	30
71	561
72	50
83	30
85	100
87	30
88	30
100	80
101	130
114	160
115	230
128	110
129	60
142	170
143	40
154	80
156	9999
157	1241
158	50
170	1061
171	140
184	1251
185	170
198	160
212	240
213	300
214	210
226	1111
227	280
240	350
241	50
254	480
255	80
268	681
269	150
282	180
296	6846
297	1501
298	140
310	280
311	40
324	110
338	140
339	681
340	220
