Mass Spectrum: Benzamide, N,N-diheptyl-3-methoxy-
Formula: C22 H37 N O2
Molecular weight: 347
Origin: Zaikin V.G., TIPS RAS, Moscow, Russia
m/z	RELATIVE INTENSITY
41	40
43	60
44	30
55	60
57	70
58	30
77	200
92	100
107	661
108	80
109	20
121	1561
122	140
126	120
128	90
134	30
135	9999
136	1001
137	80
141	40
142	100
151	80
152	50
156	60
164	230
165	330
178	490
179	390
180	30
192	160
193	80
206	300
207	50
212	110
220	310
221	50
233	80
234	90
240	140
248	230
249	70
250	50
262	1842
263	811
264	100
276	240
277	70
290	290
291	60
304	170
305	40
316	30
318	180
319	30
332	100
346	2042
347	2622
348	641
349	70
