Mass Spectrum: Propanamide, N-ethyl-N-(3-methylphenyl)-2-chloro-
Formula: C12 H16 Cl N O
Molecular weight: 225
Origin: Zaikin V.G., TIPS RAS, Moscow, Russia
m/z	RELATIVE INTENSITY
27	80
29	140
30	10
39	40
41	40
42	20
43	20
51	20
55	100
57	40
63	300
65	340
77	200
78	80
79	20
89	30
90	350
91	1872
92	220
93	60
104	110
105	70
106	480
107	160
108	50
115	20
117	100
118	2392
119	811
120	4204
121	350
132	320
133	1892
134	9999
135	1341
136	90
146	80
160	70
161	20
162	6936
163	751
164	30
174	60
175	60
188	20
189	470
190	3853
191	430
197	591
198	30
199	150
210	90
224	40
225	7257
226	1031
227	2502
228	270
