Mass Spectrum: Octanamide, N-(2-fluorophenyl)-
Formula: C14 H20 F N O
Molecular weight: 237
Origin: Zaikin V.G., TIPS RAS, Moscow, Russia
m/z	RELATIVE INTENSITY
27	120
28	70
29	190
39	110
41	450
42	70
43	420
53	30
55	300
56	40
57	991
58	40
63	30
64	60
65	30
67	50
69	30
75	40
77	30
83	390
84	150
90	100
91	90
92	30
95	50
98	30
104	30
109	110
110	380
111	9999
112	761
124	50
127	170
128	50
133	60
134	70
137	60
138	180
153	480
154	40
166	80
237	330
238	50
