Mass Spectrum: Benzamide, N,N-dinonyl-2,3,4-trifluoro-
Formula: C25 H40 F3 N O
Molecular weight: 427
Origin: Zaikin V.G., TIPS RAS, Moscow, Russia
m/z	RELATIVE INTENSITY
27	80
28	50
29	120
30	50
39	60
41	320
42	170
43	420
44	150
55	300
56	140
57	180
67	30
69	180
70	100
71	60
81	50
83	90
84	70
85	30
98	30
112	30
131	250
132	60
140	30
141	70
145	30
154	140
156	90
158	30
159	9999
160	671
161	40
170	40
176	130
182	120
183	50
184	90
188	240
189	200
190	80
196	70
197	50
202	1661
203	490
204	40
210	30
216	140
217	50
224	30
230	220
231	50
238	30
244	170
245	30
258	100
268	90
272	50
285	80
286	40
294	260
295	100
296	110
300	320
301	70
302	270
303	40
308	250
309	60
314	4234
315	1281
316	170
322	30
328	500
329	140
342	220
343	50
356	120
357	30
370	130
371	30
384	110
385	30
398	110
407	70
408	270
409	60
412	60
426	360
427	1932
428	530
429	70
