Mass Spectrum: 2,2-Dimethylpropanoic acid, 3,4-dichlorophenyl ester
Formula: C11 H12 Cl2 O2
Molecular weight: 246
Origin: Zaikin V.G., TIPS RAS, Moscow, Russia
m/z	RELATIVE INTENSITY
27	60
28	270
29	691
36	30
39	150
41	1391
42	160
55	130
56	140
57	9999
58	400
63	160
69	120
70	70
73	100
75	40
85	4574
86	200
98	60
99	170
101	40
109	80
126	30
128	30
133	150
135	90
145	70
147	40
162	3363
163	240
164	2142
165	140
166	340
203	70
205	40
246	160
248	100
