Mass Spectrum: Benzamide, N,N-dioctyl-4-bromo-
Formula: C23 H38 Br N O
Molecular weight: 423
Origin: Zaikin V.G., TIPS RAS, Moscow, Russia
m/z	RELATIVE INTENSITY
26	90
27	240
28	120
29	300
30	90
36	30
38	40
39	240
40	50
41	761
42	420
43	711
44	270
50	130
51	70
53	50
54	50
55	450
56	300
57	370
58	60
67	60
68	50
69	230
70	210
71	90
74	60
75	180
76	430
77	210
78	40
79	30
80	60
81	60
82	100
83	40
84	160
85	40
91	60
98	110
103	70
104	871
105	490
106	50
112	90
119	30
126	40
132	30
133	30
140	340
141	30
142	180
146	60
147	30
148	30
155	981
156	170
157	881
158	100
168	70
169	50
170	70
171	40
182	40
183	9999
184	781
185	9949
186	721
187	40
200	110
202	90
212	230
213	240
214	240
215	230
224	50
226	601
227	330
228	581
229	310
230	30
240	300
241	60
242	150
243	50
246	40
254	220
255	60
256	200
257	50
266	40
268	290
269	60
270	230
271	40
280	40
281	40
282	150
283	30
284	90
295	70
296	60
297	80
298	40
310	200
311	50
312	240
313	50
314	70
322	40
324	1972
325	571
326	2032
327	550
328	70
338	210
339	50
340	200
341	50
344	70
352	200
353	40
354	200
355	50
366	100
368	100
380	130
382	130
394	90
396	90
408	40
410	30
422	961
423	821
424	1111
425	851
426	190
