Mass Spectrum: Cyclopentanecarboxamide, N-heptyl-N-octyl-
Formula: C21 H41 N O
Molecular weight: 323
Origin: Zaikin V.G., TIPS RAS, Moscow, Russia
m/z	RELATIVE INTENSITY
25	60
26	430
27	841
28	340
29	871
30	440
35	110
36	621
37	110
38	340
39	1121
40	410
41	4284
42	1241
43	2282
44	2422
45	50
50	110
51	130
52	80
53	330
54	230
55	1431
56	791
57	1872
58	290
63	40
65	130
66	110
67	931
68	480
69	9999
70	1091
71	430
72	190
73	110
77	60
79	120
80	30
81	110
82	90
83	90
84	400
85	120
86	300
91	40
94	30
95	220
96	300
97	2332
98	480
99	140
100	420
110	40
111	40
112	210
113	90
114	340
115	30
124	30
126	350
127	270
128	7487
129	691
130	50
135	30
138	60
139	30
140	490
141	430
142	7637
143	791
144	30
152	30
154	340
155	150
156	1271
157	120
168	280
169	70
170	1131
171	120
182	410
183	110
184	661
185	70
196	200
197	70
198	330
199	30
210	170
211	150
212	300
213	30
224	330
225	250
226	510
227	90
228	30
238	290
239	100
252	390
253	70
254	4284
255	761
256	60
266	410
267	70
280	300
281	30
282	1661
283	330
294	280
295	60
308	80
322	120
323	550
324	150
