Mass Spectrum: Benzamide, N-ethyl-N-(3-methylphenyl)-3-fluoro-
Formula: C16 H16 F N O
Molecular weight: 257
Origin: Zaikin V.G., TIPS RAS, Moscow, Russia
m/z	RELATIVE INTENSITY
39	40
51	40
63	30
65	190
75	130
77	90
78	40
89	40
90	30
91	500
92	60
94	30
95	2212
96	180
104	40
107	30
118	280
119	380
120	120
122	320
123	9999
124	641
125	40
132	70
133	90
134	641
135	90
150	871
151	90
165	30
183	30
228	30
229	330
230	50
242	120
256	1712
257	4174
258	701
259	60
