Mass Spectrum: Benzamide, N,N-didecyl-4-chloro-
Formula: C27 H46 Cl N O
Molecular weight: 435
Origin: Zaikin V.G., TIPS RAS, Moscow, Russia
m/z	RELATIVE INTENSITY
26	110
27	210
28	90
29	220
30	70
36	100
38	60
39	200
40	80
41	581
42	270
43	601
44	390
50	70
51	50
53	60
54	60
55	470
56	250
57	330
58	60
67	100
68	50
69	200
70	180
71	80
73	50
74	40
75	130
76	90
77	110
78	30
79	40
81	60
82	50
83	100
84	150
85	70
91	50
95	50
96	70
97	50
98	80
103	30
104	190
105	180
110	30
111	691
112	180
113	230
114	40
115	30
119	20
125	90
126	60
127	30
133	60
137	30
138	40
139	9999
140	831
141	3253
142	250
147	40
154	40
156	110
158	30
168	591
169	260
170	290
171	80
177	30
180	40
182	591
183	360
184	230
185	110
191	80
193	50
194	40
196	190
197	60
198	90
210	240
211	80
212	70
222	30
224	230
225	50
226	70
236	30
238	130
239	30
240	40
252	130
253	20
254	30
266	70
267	50
268	30
277	30
279	100
280	60
281	30
282	70
283	30
292	30
294	270
295	80
296	300
297	60
298	40
306	60
308	2582
309	781
310	941
311	260
312	30
320	40
322	250
323	60
324	200
325	40
336	220
337	50
338	70
350	120
351	30
352	40
364	130
365	30
366	50
378	130
379	30
380	40
392	120
393	30
394	40
400	20
406	90
408	30
420	40
434	1161
435	901
436	611
437	330
438	70
