Mass Spectrum: Benzamide, N,N-dihexyl-3-methoxy-
Formula: C20 H33 N O2
Molecular weight: 319
Origin: Zaikin V.G., TIPS RAS, Moscow, Russia
m/z	RELATIVE INTENSITY
41	40
43	100
44	30
55	40
77	260
92	140
107	711
108	90
112	100
114	60
120	30
121	1371
122	110
127	30
128	70
134	30
135	9999
136	961
137	70
142	40
151	80
152	50
164	230
165	300
178	500
179	360
180	30
184	90
192	210
193	100
206	220
207	30
212	100
219	60
220	100
234	220
235	50
236	30
248	1511
249	591
250	70
262	190
263	40
276	240
277	50
290	120
304	80
318	1461
319	2192
320	440
321	50
