Mass Spectrum: Heptafluorobutanamide, N-(2-fluorophenyl)-
Formula: C10 H5 F8 N O
Molecular weight: 307
Origin: Zaikin V.G., TIPS RAS, Moscow, Russia
m/z	RELATIVE INTENSITY
57	190
63	50
69	210
75	130
81	30
82	100
83	1301
84	70
90	550
91	30
94	40
95	200
109	180
110	3023
111	220
112	130
118	210
137	200
138	5075
139	380
140	40
240	30
260	90
288	591
289	40
307	9999
308	1091
309	50
