Mass Spectrum: Pentafluoropropanamide, N,N-didecyl-
Formula: C23 H42 F5 N O
Molecular weight: 443
Origin: Zaikin V.G., TIPS RAS, Moscow, Russia
m/z	RELATIVE INTENSITY
26	90
27	200
28	120
29	300
30	50
38	20
39	240
40	60
41	1021
42	390
43	1501
44	200
50	40
51	40
53	80
54	130
55	1271
56	490
57	1131
58	110
67	200
68	150
69	961
70	360
71	400
72	60
79	30
81	150
82	110
83	1291
84	270
85	280
86	30
95	90
96	70
97	661
98	180
99	70
100	60
109	30
110	30
111	60
112	120
113	40
119	200
126	90
138	30
139	60
140	80
147	50
154	50
160	30
164	120
168	140
170	240
171	30
172	50
176	310
177	210
178	430
184	400
185	50
189	40
190	7307
191	661
192	110
196	80
198	1661
199	240
202	70
204	100
205	40
210	30
212	70
216	90
218	290
219	30
224	30
225	40
226	30
230	40
232	130
238	50
239	20
240	40
244	30
246	80
252	40
260	70
274	40
294	70
296	100
302	150
304	991
305	150
316	3954
317	631
318	90
322	120
323	30
324	9999
325	2042
326	260
330	160
344	370
345	70
358	60
372	40
386	30
400	30
414	30
424	230
425	50
442	50
