Mass Spectrum: Benzamide, N,N-dibutyl-4-methyl-
Formula: C16 H25 N O
Molecular weight: 247
Origin: Zaikin V.G., TIPS RAS, Moscow, Russia
m/z	RELATIVE INTENSITY
28	50
65	170
89	30
90	50
91	1361
92	100
99	30
100	70
118	40
119	9999
120	851
121	20
136	280
148	360
149	280
156	60
162	390
163	160
175	30
190	100
204	1361
205	350
218	30
246	1111
247	1401
248	230
