Mass Spectrum: 1-Naphthoic acid, 2,6-dimethylnon-1-en-3-yn-5-yl ester
Formula: C22 H24 O2
Molecular weight: 320
Origin: Zaikin V.G., TIPS RAS, Moscow, Russia
m/z	RELATIVE INTENSITY
27	40
29	50
39	80
41	220
43	120
50	30
51	70
53	70
55	130
63	70
65	100
66	30
67	60
69	130
75	40
77	490
78	80
79	240
80	20
81	50
82	50
83	80
91	540
92	140
93	270
94	40
95	80
101	90
103	50
104	30
105	330
106	270
107	250
108	30
109	40
115	40
117	50
119	390
120	110
121	50
123	280
124	40
126	230
127	2282
128	450
129	40
133	500
134	60
136	300
137	40
141	30
148	671
149	100
154	40
155	9999
156	1161
157	80
165	290
166	40
172	380
173	50
179	40
184	100
191	40
192	70
193	40
203	30
205	360
206	70
219	50
221	20
222	60
233	60
237	80
247	30
249	120
250	140
261	30
277	240
278	50
305	40
320	50
