Mass Spectrum: Benzamide, N,N-dinonyl-3-bromo-
Formula: C25 H42 Br N O
Molecular weight: 451
Origin: Zaikin V.G., TIPS RAS, Moscow, Russia
m/z	RELATIVE INTENSITY
26	170
27	340
28	140
29	360
30	90
37	30
38	50
39	300
40	60
41	801
42	410
43	821
44	280
50	130
51	100
52	50
53	110
54	110
55	781
56	480
57	450
58	40
63	30
65	40
67	130
68	90
69	320
70	320
71	140
73	50
74	80
75	200
76	310
77	621
78	130
79	170
80	200
81	180
82	280
83	130
84	250
85	90
89	30
90	30
91	180
92	30
95	40
96	50
97	50
98	120
99	40
102	50
103	80
104	150
105	1742
106	150
112	110
115	40
116	30
117	60
118	50
119	50
120	30
122	30
126	100
128	30
130	60
131	50
132	90
133	80
134	90
135	50
139	30
140	30
145	40
146	380
147	100
148	210
149	40
154	420
155	801
156	230
157	711
158	100
159	20
160	80
161	20
162	100
169	50
171	50
174	50
176	30
182	170
183	9999
184	931
185	9649
186	781
187	50
188	50
191	50
196	30
200	180
202	190
204	40
212	300
213	200
214	320
215	180
216	40
218	30
224	30
226	741
227	360
228	721
229	330
230	50
240	200
241	60
242	190
243	50
246	160
248	40
254	180
255	50
256	180
257	50
258	170
259	50
260	981
261	180
266	70
267	30
268	360
269	50
270	230
271	40
272	130
274	200
275	30
282	220
283	60
284	170
285	30
286	30
288	110
296	140
298	80
302	70
310	40
312	30
316	60
324	170
325	40
326	310
327	60
328	160
330	70
338	1441
339	510
340	1461
341	490
342	90
352	250
353	50
354	230
355	60
366	320
367	70
368	320
369	70
370	30
371	30
372	4784
373	1411
374	200
380	190
381	40
382	180
383	30
394	180
395	40
396	180
397	40
408	160
409	30
410	170
411	30
422	140
423	30
424	130
425	30
436	50
438	40
450	1281
451	821
452	1451
453	811
454	200
