Mass Spectrum: Propanamide, N-heptyl-N-octyl-2-methyl-
Formula: C19 H39 N O
Molecular weight: 297
Origin: Zaikin V.G., TIPS RAS, Moscow, Russia
m/z	RELATIVE INTENSITY
28	40
29	100
30	80
36	200
41	420
42	30
43	3413
44	1501
55	350
56	60
57	1431
58	50
69	340
70	100
71	2332
72	90
73	80
81	30
83	70
84	40
85	50
87	40
88	30
95	110
97	130
100	240
101	290
111	90
114	350
115	490
125	30
128	9148
129	871
135	30
142	9999
143	841
156	1862
157	140
170	951
171	30
184	120
185	90
186	30
198	811
199	150
200	30
212	691
213	70
226	681
227	70
240	220
241	30
254	4994
255	741
256	30
268	80
297	480
298	30
