Mass Spectrum: 2,3,4-Trifluorobenzoic acid, 4-nitrophenyl ester
Formula: C13 H6 F3 N O4
Molecular weight: 297
Origin: Zaikin V.G., TIPS RAS, Moscow, Russia
m/z	RELATIVE INTENSITY
30	30
62	30
63	70
64	40
81	390
112	40
130	40
131	1181
132	90
159	9999
160	681
161	40
297	30
