Mass Spectrum: 1-Naphthoic acid, 2-methyloct-5-yn-4-yl ester
Formula: C20 H22 O2
Molecular weight: 294
Origin: Zaikin V.G., TIPS RAS, Moscow, Russia
m/z	RELATIVE INTENSITY
27	70
29	80
39	110
41	320
43	310
51	50
53	110
55	200
57	40
65	80
66	90
67	160
68	30
69	80
77	280
78	40
79	390
80	90
81	520
82	40
91	200
92	30
93	520
94	100
95	70
101	80
105	50
107	651
108	70
122	280
123	80
124	50
126	220
127	1992
128	460
129	70
139	200
154	50
155	9999
156	1071
157	70
165	60
172	1661
173	220
178	50
179	60
181	30
193	70
197	30
223	40
237	70
238	290
239	60
251	310
252	60
265	60
266	40
294	70
