Mass Spectrum: Benzamide, N,N-dioctyl-4-fluoro-
Formula: C23 H38 F N O
Molecular weight: 363
Origin: Zaikin V.G., TIPS RAS, Moscow, Russia
m/z	RELATIVE INTENSITY
27	20
28	10
29	30
36	20
39	20
41	100
42	50
43	110
44	80
55	90
56	50
57	90
58	20
69	60
70	40
71	30
75	30
84	30
95	470
96	60
98	30
109	30
112	20
122	30
123	9999
124	671
125	40
140	140
142	80
152	180
153	210
154	20
155	50
156	30
164	20
166	500
167	310
168	50
170	50
180	140
181	50
194	200
195	60
206	20
207	30
208	320
209	40
212	20
220	30
222	100
223	20
235	70
236	40
240	70
250	210
251	60
252	90
262	30
264	2943
265	761
266	100
268	60
277	30
278	250
279	60
292	230
293	50
306	120
307	30
320	150
321	30
334	120
335	30
348	50
362	1121
363	1101
364	290
365	40
