Mass Spectrum: Propanamide, N-decyl-N-methyl-2-methyl-
Formula: C15 H31 N O
Molecular weight: 241
Origin: Zaikin V.G., TIPS RAS, Moscow, Russia
m/z	RELATIVE INTENSITY
28	78
29	196
36	294
41	843
42	255
43	5588
44	59
45	392
55	549
57	1706
58	1451
69	98
70	137
71	4156
72	333
73	1804
85	647
86	1235
87	1333
100	706
101	451
102	843
114	5999
115	3921
116	137
123	59
128	1314
129	255
142	1392
143	157
152	78
156	725
170	902
184	510
198	9999
199	1216
212	373
226	137
241	1431
242	98
