Mass Spectrum: Benzamide, N,N-dibutyl-3-methoxy-
Formula: C16 H25 N O2
Molecular weight: 263
Origin: Zaikin V.G., TIPS RAS, Moscow, Russia
m/z	RELATIVE INTENSITY
29	40
41	30
57	50
64	40
76	20
77	430
78	40
79	30
84	60
86	30
92	260
99	30
100	50
107	921
108	110
120	30
121	1011
122	90
128	30
134	40
135	9999
136	981
137	70
151	50
152	70
156	60
162	30
164	410
165	390
166	30
178	420
179	220
191	60
192	40
206	180
207	40
220	1321
221	430
222	50
234	80
248	80
262	1381
263	2732
264	490
265	40
