Mass Spectrum: Phthalic acid, heptyl pentyl ester
Formula: C20 H30 O4
Molecular weight: 334
Origin: Zaikin V.G., Institute of Petrochemical Synthesis RAS
m/z	RELATIVE INTENSITY
26	50
27	140
28	80
29	210
39	160
40	30
41	470
42	210
43	510
44	70
50	110
51	40
53	40
54	40
55	330
56	150
57	350
65	100
67	40
68	30
69	110
70	180
71	90
74	40
75	30
76	260
77	90
78	30
93	90
98	40
104	340
105	170
121	100
122	100
123	80
148	30
149	9999
150	751
151	80
167	80
219	120
237	320
238	40
247	40
265	160
