Mass Spectrum: Benzamide, N-decyl-N-methyl-2-trifluoromethyl-
Formula: C19 H28 F3 N O
Molecular weight: 343
Origin: Zaikin V.G., TIPS RAS, Moscow, Russia
m/z	RELATIVE INTENSITY
28	10
36	40
39	30
41	80
42	60
43	70
44	70
55	60
57	40
69	30
75	40
95	80
96	30
125	70
126	100
127	40
130	30
134	50
144	40
145	1391
146	180
148	210
149	30
154	90
162	90
164	180
172	40
173	9999
174	851
175	50
176	30
182	50
183	60
184	210
185	30
186	80
190	50
196	120
197	100
202	260
203	40
204	170
210	40
216	2672
217	1151
218	140
224	70
230	701
231	120
244	500
245	80
258	250
259	50
272	230
273	50
274	651
275	130
286	200
287	40
300	180
301	40
314	160
315	30
322	60
323	40
324	210
325	40
328	50
342	841
343	921
344	210
