Mass Spectrum: Furan-2-carboxamide, N-(2-fluorophenyl)-
Formula: C11 H8 F N O2
Molecular weight: 205
Origin: Zaikin V.G., TIPS RAS, Moscow, Russia
m/z	RELATIVE INTENSITY
39	440
51	40
57	70
67	240
75	50
83	250
84	30
95	9999
96	550
97	50
110	50
111	80
112	150
148	80
176	30
177	60
186	50
205	7697
206	961
207	30
