Mass Spectrum: 2-Thiopheneacetic acid, 4-cyanophenyl ester
Formula: C13 H9 N O2 S
Molecular weight: 243
Origin: Zaikin V.G., TIPS RAS, Moscow, Russia
m/z	RELATIVE INTENSITY
28	50
39	130
45	470
47	20
51	50
52	30
53	480
58	30
63	90
64	50
69	90
70	90
71	50
90	60
91	30
95	70
96	310
97	9999
98	671
99	470
102	60
119	140
124	3433
125	530
126	180
243	1782
244	270
245	90
