Mass Spectrum: Dichloroacetamide, N,N-dioctyl-
Formula: C18 H35 Cl2 N O
Molecular weight: 351
Origin: Zaikin V.G., TIPS RAS, Moscow, Russia
m/z	RELATIVE INTENSITY
25	30
26	250
27	611
28	360
29	901
30	350
35	160
36	751
37	90
38	290
39	561
40	130
41	2172
42	911
43	2312
44	1141
47	30
48	60
49	80
50	60
51	70
52	40
53	170
54	170
55	1571
56	701
57	1912
58	160
65	30
67	230
68	150
69	1331
70	500
71	1171
72	120
75	50
76	270
77	190
78	120
79	120
80	50
81	220
82	260
83	631
84	581
85	360
86	80
90	30
91	90
92	40
93	40
94	80
95	90
96	140
97	90
98	500
99	200
100	60
105	60
106	260
107	60
108	130
109	50
110	140
111	200
112	410
113	140
114	30
118	30
119	80
120	681
121	80
122	230
123	20
124	50
126	340
127	60
128	210
130	100
132	60
133	30
134	40
138	50
139	50
140	1491
141	220
142	1581
143	140
144	370
146	90
148	40
152	30
154	7727
155	641
156	5105
157	430
158	841
159	40
160	40
162	30
166	30
168	430
169	80
170	2973
171	320
172	30
174	80
176	90
180	40
182	420
183	100
184	150
185	40
188	40
190	30
194	30
196	200
197	60
198	80
204	490
205	50
206	330
207	50
208	90
209	30
210	130
211	30
212	100
216	180
217	30
218	1331
219	160
220	420
221	40
224	70
226	30
230	30
232	60
238	120
240	731
241	80
242	270
244	80
246	60
252	1982
253	240
254	1261
255	140
256	210
266	550
267	100
268	9999
269	1942
270	180
274	30
280	500
281	60
282	270
283	40
288	90
294	60
296	50
302	520
303	80
304	170
315	30
316	4724
317	961
318	1631
319	300
322	30
350	30
352	40
