Mass Spectrum: Benzamide, n-decyl-N-methyl-2,3,4-trifluoro-
Formula: C18 H26 F3 N O
Molecular weight: 329
Origin: Zaikin V.G., TIPS RAS, Moscow, Russia
m/z	RELATIVE INTENSITY
28	10
29	40
36	40
41	110
42	70
43	100
44	100
55	100
56	30
57	90
69	50
70	40
81	80
83	20
131	510
132	70
140	20
141	80
155	30
159	9999
160	701
161	50
170	160
172	80
176	30
182	250
183	140
184	280
185	30
188	300
189	160
190	430
191	40
196	60
197	70
198	110
202	3343
203	1531
204	160
216	601
217	130
230	290
231	60
244	150
245	30
258	150
259	40
272	120
273	30
286	90
300	90
309	40
310	200
311	40
312	20
314	80
328	310
329	1391
330	300
331	30
