Mass Spectrum: Benzamide, N,N-diheptyl-4-butyl-
Formula: C25 H43 N O
Molecular weight: 373
Origin: Zaikin V.G., TIPS RAS, Moscow, Russia
m/z	RELATIVE INTENSITY
26	70
27	170
28	70
29	170
30	40
39	130
40	30
41	370
42	190
43	360
44	100
53	20
55	220
56	120
57	170
58	40
65	60
69	40
70	60
77	70
78	30
79	30
84	60
89	60
90	270
91	931
92	100
98	30
103	80
104	90
105	160
115	50
116	30
117	50
118	571
119	210
126	110
128	70
131	170
132	60
133	100
134	40
141	30
142	130
145	30
147	40
148	30
159	100
160	50
161	9999
162	1071
163	80
178	40
190	170
191	180
202	30
204	360
205	230
212	60
218	130
219	50
232	190
233	60
240	40
246	220
247	40
259	40
260	60
274	140
275	40
276	30
286	30
288	921
289	320
290	50
302	140
303	30
316	180
317	40
330	150
331	40
344	110
358	30
372	1101
373	851
374	230
375	30
