Mass Spectrum: Phenylthioacetamide, N-decyl-N-methyl-
Formula: C19 H31 N O S
Molecular weight: 321
Origin: Zaikin V.G., TIPS RAS, Moscow, Russia
m/z	RELATIVE INTENSITY
28	70
29	170
30	30
36	30
39	30
41	500
42	240
43	2552
44	3403
45	540
51	30
55	561
56	120
57	5415
58	641
65	100
66	20
69	270
70	190
71	3883
72	571
73	40
74	120
77	130
78	40
79	60
83	200
84	130
85	4164
86	1832
87	110
91	70
97	90
98	70
99	821
100	160
105	60
107	170
109	340
110	190
112	60
114	210
121	100
122	40
123	1541
124	611
125	100
126	50
128	130
134	360
135	130
141	50
142	130
148	460
149	30
150	40
152	50
156	90
161	150
165	50
168	80
170	561
171	70
172	70
181	360
182	70
184	170
194	440
195	130
196	50
198	9999
199	1321
200	90
212	5415
213	761
214	30
222	210
236	110
250	50
264	30
278	80
288	490
289	70
292	80
320	70
321	3473
322	851
323	230
