Mass Spectrum: Propanamide, N,N-bis(2-ethylhexyl)-3-chloro-
Formula: C19 H38 Cl N O
Molecular weight: 331
Origin: Zaikin V.G., TIPS RAS, Moscow, Russia
m/z	RELATIVE INTENSITY
26	120
27	250
28	90
29	220
30	230
35	80
36	470
38	190
39	250
40	60
41	911
42	340
43	921
44	1782
45	60
50	60
51	70
52	70
53	110
54	90
55	861
56	410
57	1041
58	80
63	611
65	200
67	140
68	90
69	500
70	430
71	490
72	110
77	40
78	30
79	110
80	20
81	80
82	70
83	100
84	260
85	50
86	130
91	581
93	170
95	50
96	50
97	40
98	510
99	80
100	170
108	120
110	60
111	90
112	220
113	40
114	50
120	270
121	170
122	200
123	70
124	50
126	100
128	190
133	30
134	3994
135	340
136	1341
137	110
138	30
140	390
141	50
142	9999
143	1101
144	50
154	120
156	581
157	60
159	30
160	70
162	100
163	40
168	160
170	781
171	80
174	80
176	60
182	70
183	20
184	811
185	100
188	30
190	160
192	50
196	741
197	110
198	581
199	70
202	60
203	40
204	70
210	40
212	130
218	60
220	591
221	70
222	190
232	7227
233	1061
234	2432
235	330
236	40
238	70
240	190
241	30
252	30
266	50
268	1251
269	250
274	130
276	40
288	90
296	1511
297	320
298	30
302	180
303	30
304	50
316	30
330	50
331	60
332	50
