Mass Spectrum: Nicotinic acid, 3-phenylpropyl ester
Formula: C15 H15 N O2
Molecular weight: 241
Origin: Zaikin V.G., TIPS RAS, Moscow, Russia
m/z	RELATIVE INTENSITY
26	40
27	60
28	50
39	130
41	100
44	30
50	140
51	571
52	110
53	30
63	60
65	310
76	40
77	310
78	1571
79	310
89	70
90	50
91	1932
92	220
102	30
103	290
104	140
105	380
106	1231
107	100
115	300
116	100
117	5665
118	9999
119	841
120	30
123	120
124	190
137	881
138	60
240	30
241	90
