Mass Spectrum: 1-Naphthoic acid, tridec-2-ynyl ester
Formula: C24 H30 O2
Molecular weight: 350
Origin: Zaikin V.G., TIPS RAS, Moscow, Russia
m/z	RELATIVE INTENSITY
27	40
29	80
39	40
41	190
42	30
43	170
52	30
53	70
55	140
57	40
65	30
67	100
69	40
77	80
79	120
81	70
91	50
93	60
94	20
95	50
126	60
127	791
128	230
129	70
141	30
155	9999
156	1041
157	70
165	100
166	30
167	30
172	280
173	60
178	60
179	120
180	30
181	30
223	40
