Mass Spectrum: Heptafluorobutanamide, N-heptyl-N-octyl-
Formula: C19 H32 F7 N O
Molecular weight: 423
Origin: Zaikin V.G., TIPS RAS, Moscow, Russia
m/z	RELATIVE INTENSITY
28	10
29	40
36	80
41	190
42	40
43	390
44	120
55	601
56	110
57	781
58	30
69	841
70	170
71	220
83	80
84	40
97	621
98	80
111	340
112	50
128	170
140	30
142	170
156	430
169	130
170	380
214	140
222	70
224	30
226	220
227	120
228	651
240	9999
241	921
242	80
254	5405
255	971
256	60
268	210
282	70
310	90
312	621
313	50
324	2612
325	310
326	581
327	50
338	2512
339	340
352	290
366	180
380	30
404	50
422	30
