Mass Spectrum: Propanamide, N-heptyl-N-octyl-3-chloro-
Formula: C18 H36 Cl N O
Molecular weight: 317
Origin: Zaikin V.G., TIPS RAS, Moscow, Russia
m/z	RELATIVE INTENSITY
25	30
26	220
27	571
28	200
29	510
30	450
35	70
36	420
38	180
39	390
40	100
41	1411
42	611
43	1341
44	2472
45	70
50	40
51	50
52	50
53	130
54	140
55	1301
56	661
57	1231
58	180
63	1121
64	30
65	360
67	190
68	130
69	550
70	530
71	310
72	140
73	40
77	40
79	110
80	30
81	130
82	100
83	140
84	440
85	120
86	260
87	30
90	40
91	1011
92	50
93	330
95	90
96	90
97	110
98	581
99	210
100	561
101	40
108	140
109	50
110	70
111	80
112	370
113	120
114	290
115	30
120	290
121	220
122	160
123	80
124	50
125	30
126	550
127	90
128	9238
129	901
130	30
133	30
134	1341
135	410
136	460
137	130
138	30
140	530
141	100
142	9659
143	991
144	40
148	140
149	60
150	50
152	20
154	420
155	70
156	1231
157	130
160	30
162	180
163	30
164	60
168	250
169	40
170	1551
171	170
174	30
176	290
177	30
178	90
182	540
183	120
184	2212
185	270
190	100
191	30
192	30
196	681
197	160
198	1611
199	210
204	110
206	270
210	410
211	90
212	390
213	50
218	2002
219	280
220	871
221	110
222	70
224	390
225	70
226	731
227	120
228	40
232	2032
233	290
234	651
235	90
238	170
239	30
240	110
246	460
247	60
248	150
252	190
253	30
254	4624
255	841
256	80
260	360
261	60
262	110
266	40
274	210
275	30
276	60
280	70
282	9999
283	1992
284	210
288	190
289	30
290	60
302	70
316	80
317	140
318	80
319	50
