Mass Spectrum: Pentanamide, N-(2-fluorophenyl)-
Formula: C11 H14 F N O
Molecular weight: 195
Origin: Zaikin V.G., TIPS RAS, Moscow, Russia
m/z	RELATIVE INTENSITY
28	30
29	90
36	250
38	40
39	20
41	180
44	40
55	50
57	681
64	30
65	50
77	120
79	170
83	200
84	100
85	430
90	20
91	200
92	150
93	40
105	250
106	40
110	200
111	9999
112	741
119	150
120	160
123	190
133	60
134	160
135	310
136	160
137	40
138	210
152	280
153	450
165	100
194	50
195	1201
196	110
