Mass Spectrum: Benzamide, N-(2-fluorophenyl)-3-methoxy-
Formula: C14 H12 F N O2
Molecular weight: 245
Origin: Zaikin V.G., TIPS RAS, Moscow, Russia
m/z	RELATIVE INTENSITY
63	40
64	140
76	50
77	761
78	50
79	40
92	621
93	30
107	1832
108	140
135	9999
136	951
137	80
230	40
245	5345
246	831
247	70
