Mass Spectrum: Propanamide, N,N-diundecyl-2-bromo-
Formula: C25 H50 Br N O
Molecular weight: 459
Origin: Zaikin V.G., TIPS RAS, Moscow, Russia
m/z	RELATIVE INTENSITY
28	10
29	40
30	110
41	110
42	40
43	340
44	741
55	220
56	80
57	450
58	30
69	160
70	70
71	240
72	30
74	20
80	20
81	20
82	20
83	110
84	70
85	170
86	110
87	30
95	20
97	90
98	70
99	60
100	70
101	30
107	50
109	50
111	30
112	60
113	20
114	20
126	60
128	20
135	40
137	30
140	60
142	20
154	30
164	20
166	50
168	30
170	110
178	1081
179	50
180	1081
181	50
182	210
183	20
184	4274
185	581
186	20
196	140
198	300
199	30
210	90
212	180
224	20
226	591
227	90
228	100
238	150
239	30
240	2692
241	440
242	20
252	100
254	90
262	90
264	70
266	70
268	70
280	40
282	40
290	20
292	20
294	30
296	40
306	130
308	140
310	20
318	1301
319	210
320	1321
321	210
322	50
324	901
325	210
326	20
332	50
334	50
346	60
348	70
350	390
351	90
352	4154
353	1061
354	110
360	30
362	40
378	20
379	20
380	9999
381	2833
382	390
383	30
430	841
431	190
432	801
433	190
458	50
459	20
460	70
461	30
462	20
