Mass Spectrum: Isonicotinic acid, phenylmethyl ester
Formula: C13 H11 N O2
Molecular weight: 213
Origin: Zaikin V.G., TIPS RAS, Moscow, Russia
m/z	RELATIVE INTENSITY
26	50
27	50
28	10
38	30
39	260
41	80
44	120
49	30
50	350
51	1231
52	230
53	40
62	40
63	210
64	80
65	941
66	50
75	40
76	60
77	661
78	1661
79	1852
80	120
89	661
90	2062
91	8047
92	611
105	370
106	7537
107	1201
108	290
123	70
166	30
167	190
168	460
169	80
184	30
185	50
195	641
196	90
212	1661
213	9999
214	1341
215	120
