Mass Spectrum: Phosphoric acid, triheptyl ester
Formula: C21 H45 O4 P
Molecular weight: 392
Origin: Zaikin V.G., Institute of Petrochemical Synthesis RAS
m/z	RELATIVE INTENSITY
26	80
27	190
28	90
29	240
38	30
39	260
40	60
41	731
42	250
43	410
53	90
54	150
55	841
56	480
57	761
58	30
67	160
68	100
69	350
70	230
71	30
79	30
81	100
82	50
83	120
96	20
97	90
98	160
99	9999
101	70
111	30
112	50
113	150
125	210
126	30
127	260
139	80
141	30
153	80
167	30
195	30
197	1421
198	110
225	140
295	2042
296	330
297	40
363	80
393	40
