Mass Spectrum: Dibutylpentylamine
Formula: C13 H29 N
Molecular weight: 199
Origin: A.A.Kutin, Moscow, Russia
m/z	RELATIVE INTENSITY
28	30
29	80
30	130
41	220
42	110
43	280
44	480
55	80
57	210
58	290
70	30
77	30
84	150
86	150
91	40
98	160
100	2853
101	120
105	40
107	40
112	70
114	1081
115	40
138	180
142	5985
143	550
156	9999
157	1081
198	60
199	811
200	60
