Mass Spectrum: Acetic acid, 3-mercapto-3-methylbutyl ester
Formula: C7 H14 O2 S
Molecular weight: 162
Origin: T.Tominaga ET AL. J.Agric. Food Chem., 48, 2874(2000)
m/z	RELATIVE INTENSITY
38	70
39	1461
40	220
41	4534
42	571
43	9999
44	220
45	440
47	490
53	440
55	651
56	721
57	270
59	831
60	160
61	330
67	300
68	460
69	7667
70	420
71	340
73	120
74	360
75	1071
77	50
86	180
87	771
102	1692
103	100
104	100
162	20
