Mass Spectrum: Carbonic acid, hexadecyl methyl ester
Formula: C18 H36 O3
Molecular weight: 300
Origin: Zaikin V.G., TIPS RAS, Moscow, Russia
m/z	RELATIVE INTENSITY
25	80
26	530
27	1451
28	160
29	2552
30	130
31	651
33	70
35	20
36	240
37	100
38	190
39	1631
40	440
41	6456
42	2222
43	7156
44	1641
45	961
50	100
51	130
52	90
53	530
54	1391
55	8608
56	5215
57	7216
58	540
59	991
60	30
63	20
65	110
66	170
67	1952
68	2322
69	7917
70	5135
71	3783
72	220
73	70
74	20
77	9999
78	250
79	310
80	90
81	1161
82	3143
83	8458
84	3563
85	2432
86	150
87	20
88	250
91	60
93	40
94	30
95	581
96	1501
97	7327
98	2282
99	611
100	30
101	20
102	2092
103	510
104	50
105	10
109	220
110	691
111	3934
112	1631
113	410
114	40
116	20
117	80
123	90
124	390
125	1952
126	1071
127	210
130	180
131	20
137	40
138	250
139	691
140	721
141	550
142	60
152	160
153	340
154	480
155	100
166	90
167	210
168	370
169	70
173	110
180	40
181	100
182	160
183	20
194	20
195	50
196	851
197	120
207	20
222	20
224	530
225	110
