Mass Spectrum: 4'-Ethoxycarbonyl-.alpha.-(2-oxopyrrolidino)hexanophene
Formula: C19 H25 N O4
Molecular weight: 331
Origin: D.Springer ET AL. J.Chrom. B, 789,79(2003)
m/z	RELATIVE INTENSITY
54	60
55	110
56	60
59	60
65	160
66	80
68	60
69	751
70	180
71	110
75	130
76	160
79	80
83	110
85	140
86	641
87	180
91	160
97	110
98	3033
99	130
104	480
106	110
112	160
115	160
121	130
124	100
133	100
143	100
149	540
151	190
154	9999
155	1051
177	290
286	240
