Mass Spectrum: Methamphetamine, N-propyloxycarbonyl-
Formula: C14 H21 N O2
Molecular weight: 235
Origin: R. Meatherall, J. Anal. Tox., 19,316(1995)
m/z	RELATIVE INTENSITY
44	550
45	90
50	240
51	460
52	140
54	80
55	140
56	1061
57	370
58	9799
59	240
62	80
63	480
64	130
65	1331
66	60
69	60
71	80
75	130
77	390
89	270
90	120
91	4454
92	360
100	230
101	240
102	4884
103	310
104	150
115	390
116	210
117	641
118	390
119	350
129	90
130	210
132	190
140	170
141	120
142	260
143	1531
144	9999
145	530
146	90
148	220
176	370
236	550
