Mass Spectrum: Carbonic acid, dodecyl methyl ester
Formula: C14 H28 O3
Molecular weight: 244
Origin: Zaikin V.G., TIPS RAS, Moscow, Russia
m/z	RELATIVE INTENSITY
25	20
26	300
27	1251
28	180
29	2762
30	220
31	581
33	100
35	190
36	1351
37	80
38	430
39	1171
40	280
41	6276
42	2332
43	6976
44	911
45	1271
50	40
51	60
52	40
53	420
54	1101
55	8398
56	6336
57	6025
58	300
59	1221
60	20
65	60
66	100
67	1461
68	2062
69	7227
70	5885
71	2422
72	100
73	40
77	9999
78	220
79	190
80	20
81	651
82	2432
83	6216
84	3693
85	1361
86	180
87	20
88	140
91	20
95	220
96	891
97	4404
98	2142
99	290
101	80
102	40
103	20
104	20
109	40
110	350
111	2322
112	1211
113	170
117	110
124	100
125	771
126	480
127	60
130	40
138	40
139	200
140	1421
141	130
144	150
168	440
169	70
