Mass Spectrum: Carbonic acid, methyl octyl ester
Formula: C10 H20 O3
Molecular weight: 188
Origin: Zaikin V.G., TIPS RAS, Moscow, Russia
m/z	RELATIVE INTENSITY
25	40
26	270
27	1031
28	891
29	2232
31	360
33	170
37	30
38	70
39	1151
40	270
41	4544
42	2362
43	3083
44	390
45	1591
46	30
50	40
51	70
52	30
53	380
54	591
55	5615
56	5765
57	2813
59	761
60	20
65	50
66	30
67	621
68	1111
69	4144
70	5195
71	1782
72	80
77	9999
78	220
79	90
81	130
82	841
83	3703
84	4984
85	330
90	20
91	20
95	20
97	410
98	40
111	70
112	981
113	100
117	280
