Mass Spectrum: Benzoic acid, 4-(1-oxo-2-pyrrolidinohexyl)-, trimethylsilyl ester
Formula: C20 H31 N O3 Si
Molecular weight: 361
Origin: D.Springer ET AL. J.Chrom.B, 789,79(2003)
m/z	RELATIVE INTENSITY
53	50
54	100
55	210
56	230
68	60
69	390
73	290
74	80
76	420
84	490
96	420
97	390
98	150
103	210
104	571
133	130
134	160
135	160
140	9999
141	1251
142	60
146	80
150	80
178	631
179	110
221	230
346	240
355	50
