Mass Spectrum: 4'-Ethoxycarbonyl-.alpha.-pyrrolidinohexanophene
Formula: C19 H27 N O3
Molecular weight: 317
Origin: D.Springer ET AL. J.Chrom.B, 789,79(2003)
m/z	RELATIVE INTENSITY
52	60
53	110
54	310
55	601
56	320
57	60
59	60
63	60
65	450
67	100
68	230
69	681
70	320
72	80
74	60
75	150
76	581
77	210
82	150
84	731
91	110
93	60
94	60
96	671
97	450
98	310
103	260
105	150
110	410
115	60
119	50
121	230
132	60
138	80
140	9999
141	1962
142	110
149	420
177	290
198	360
260	160
261	50
272	370
