Mass Spectrum: Benzoic acid, 4-[1-hydroxy-2-(2-oxopyrrolidino)hexyl]-, ethyl ester
Formula: C19 H27 N O4
Molecular weight: 333
Origin: D.Springer ET AL. J.Chrom. B, 789,79(2003)
m/z	RELATIVE INTENSITY
52	50
54	80
55	160
56	280
57	50
59	80
61	50
63	60
65	50
68	210
69	751
70	390
71	60
73	100
75	100
76	130
77	410
78	240
79	340
80	60
82	60
83	130
84	110
86	601
87	150
89	80
91	180
93	50
95	100
96	130
98	2993
99	440
100	60
102	20
103	50
104	50
105	340
106	571
107	100
109	260
111	80
112	581
113	100
116	100
117	60
119	160
126	130
130	60
133	310
134	310
147	80
149	150
150	80
151	110
154	9999
155	1461
156	130
158	80
160	30
163	80
177	80
179	520
287	30
288	160
289	20
