Mass Spectrum: Stanozolol, 2TMS derivative
Formula: C27 H48 N2 O Si2
Molecular weight: 472
Origin: A. Huenerbein ET AL., J. Chrom. A, 985, 375 (2003)
m/z	RELATIVE INTENSITY
55	360
58	190
59	240
61	70
63	140
65	90
66	110
67	180
68	110
70	50
71	190
73	3974
74	80
75	661
76	310
77	190
78	60
79	230
81	310
84	250
87	80
88	100
89	130
91	250
93	230
94	310
95	320
96	420
100	120
102	270
105	430
106	200
107	230
110	130
113	220
115	380
117	200
119	210
121	140
122	130
125	250
127	70
129	250
130	400
131	270
132	130
133	270
139	200
141	110
143	9999
144	1762
145	721
146	170
149	120
150	190
151	80
152	120
153	120
154	130
157	70
158	110
159	140
160	110
161	170
163	210
164	80
165	130
166	270
167	330
168	671
169	310
170	110
171	210
173	170
174	100
175	130
177	190
178	120
180	350
181	260
183	260
185	190
186	70
187	100
188	130
189	170
191	430
193	280
194	110
195	90
197	70
199	90
201	100
202	200
203	250
205	200
207	651
208	230
209	170
210	70
211	160
212	80
213	90
215	200
216	110
217	250
219	190
220	90
222	260
229	100
231	120
232	70
233	130
238	70
239	120
240	60
241	260
243	120
245	90
250	80
252	80
253	180
254	200
255	150
257	120
258	240
259	200
268	220
269	110
270	70
271	70
280	60
281	100
282	140
285	130
295	310
296	210
299	70
301	60
309	110
310	150
311	120
313	230
315	400
317	90
325	140
326	70
327	250
328	70
329	200
330	380
331	270
341	80
342	681
343	330
344	140
357	50
361	70
367	190
369	240
371	50
378	60
382	310
383	190
385	530
401	200
402	90
432	60
434	80
458	420
459	120
469	90
471	140
472	2062
473	951
474	430
475	160
