Mass Spectrum: 2-Pyrrolidino-1-(p-tolyl)-1-trimethylsilyloxyhexane
Formula: C20 H35 N O Si
Molecular weight: 333
Origin: D.Springer ET AL. J.Chrom.B, 789,79(2003)
m/z	RELATIVE INTENSITY
54	280
55	340
56	470
58	150
59	150
65	360
69	470
70	130
71	80
73	1411
74	130
75	310
77	180
81	160
84	410
90	150
91	881
92	100
95	80
96	330
98	280
99	160
103	130
106	100
109	100
110	200
115	130
116	100
118	110
119	160
129	100
130	130
131	180
138	230
140	9999
141	961
163	210
164	210
165	70
174	100
177	210
179	70
186	70
187	160
193	210
244	160
318	230
319	80
