Mass Spectrum: Carbonic acid, methyl tetradecyl ester
Formula: C16 H32 O3
Molecular weight: 272
Origin: Zaikin V.G., TIPS RAS, Moscow, Russia
m/z	RELATIVE INTENSITY
25	70
26	430
27	1361
28	1111
29	2783
30	60
31	460
33	120
37	70
38	40
39	1491
40	380
41	6146
42	2142
43	6576
44	881
45	1391
46	20
50	70
51	100
52	50
53	520
54	1261
55	8247
56	5255
57	5985
58	270
59	1201
60	40
65	90
66	130
67	1651
68	1852
69	6596
70	4674
71	2823
72	130
77	9999
78	200
79	170
80	40
81	721
82	2152
83	5765
84	2722
85	1371
86	70
88	20
91	20
95	240
96	731
97	3663
98	1351
99	190
102	220
103	70
104	20
109	50
110	280
111	1541
112	701
113	110
117	50
124	100
125	530
126	350
127	50
130	20
138	40
139	140
140	180
141	20
153	40
154	60
167	20
168	290
169	20
173	40
174	60
196	100
