Mass Spectrum: N-Propylamphetamine, N-propyloxycarbonyl-
Formula: C16 H25 N O2
Molecular weight: 263
Origin: R. Meatherall, J.Anal.Tox., 19,316(1995)
m/z	RELATIVE INTENSITY
44	2632
45	100
50	140
51	310
54	90
55	50
56	1481
57	220
58	130
62	100
63	220
65	811
70	300
74	30
77	260
78	140
79	100
84	270
85	180
86	6045
87	350
88	140
89	210
90	50
91	4174
92	300
100	90
102	100
103	150
104	150
105	80
115	350
117	440
118	300
119	420
128	530
129	220
130	3503
131	270
146	120
170	130
171	450
172	9999
173	671
174	100
192	150
205	220
264	50
