Mass Spectrum: 4'-Methyl-.alpha.-(2-oxopyrrolidino)hexanophene
Formula: C17 H23 N O2
Molecular weight: 273
Origin: D.Springer ET AL. J.Chrom.B, 789,79(2003)
m/z	RELATIVE INTENSITY
53	50
54	130
55	190
56	150
58	60
59	60
60	60
63	110
64	110
65	701
68	260
69	1001
70	601
71	130
75	180
76	80
82	100
84	110
86	530
89	340
90	110
91	1752
92	80
96	130
98	3343
99	180
103	80
112	110
119	881
120	100
147	190
154	9999
155	911
159	50
190	360
191	50
