Mass Spectrum: d-Proline, N-methoxycarbonyl-, isobutyl ester
Formula: C11 H19 N O4
Molecular weight: 229
Origin: Zaikin V.G., TIPS RAS, Moscow, Russia
m/z	RELATIVE INTENSITY
27	50
29	100
39	70
40	20
41	270
42	510
43	20
44	20
55	40
57	70
59	220
67	20
68	90
69	70
70	40
82	230
84	230
85	30
101	40
114	150
126	20
127	30
128	9999
129	581
130	50
142	30
156	30
170	20
229	120
