Mass Spectrum: Sarcosylsarcosine, N-ethoxycarbonyl-, octyl ester
Formula: C17 H32 N2 O5
Molecular weight: 344
Origin: Zaikin V.G., TIPS RAS, Moscow, Russia
m/z	RELATIVE INTENSITY
27	80
28	140
29	370
39	30
41	220
42	330
43	420
44	2102
45	60
55	90
56	10
57	220
71	110
72	520
73	20
86	40
87	70
88	480
89	30
90	30
102	30
113	70
114	20
115	130
116	9999
117	571
118	50
132	110
143	761
144	981
145	80
159	40
187	30
200	60
214	180
215	80
243	90
299	340
300	40
344	611
345	120
