Mass Spectrum: Sarcosylsarcosine, N-isobutoxycarbonyl-, hexyl ester
Formula: C17 H32 N2 O5
Molecular weight: 344
Origin: Zaikin V.G., TIPS RAS, Moscow, Russia
m/z	RELATIVE INTENSITY
26	20
27	110
28	160
29	400
30	20
39	120
40	40
41	911
42	571
43	1101
44	4234
45	110
53	20
54	10
55	250
56	120
57	6256
58	330
60	10
67	20
71	110
72	90
73	30
74	10
82	20
84	20
85	160
86	110
87	150
88	1982
89	130
90	140
100	40
101	40
102	90
104	50
110	10
111	10
113	180
114	30
115	761
116	2742
117	140
118	20
127	20
128	80
129	20
130	40
131	10
132	160
139	30
141	50
142	120
143	30
144	9999
145	901
146	60
156	90
157	10
159	30
160	10
170	10
171	420
172	1211
173	180
174	110
185	60
186	170
187	190
200	70
215	320
216	40
242	290
243	280
244	30
245	30
270	10
271	1281
272	180
329	30
344	1501
345	250
346	10
