Mass Spectrum: Sarcosylsarcosine, N-isobutoxycarbonyl-, isohexyl ester
Formula: C17 H32 N2 O5
Molecular weight: 344
Origin: Zaikin V.G., TIPS RAS, Moscow, Russia
m/z	RELATIVE INTENSITY
26	30
27	270
28	340
29	871
30	50
31	20
39	280
40	70
41	1431
42	921
43	1742
44	6456
45	170
51	10
52	10
53	50
54	20
55	260
56	250
57	8548
58	420
59	10
60	10
67	10
69	50
72	110
73	20
74	20
84	40
85	520
86	120
87	130
88	2062
89	170
90	210
100	30
101	50
102	120
113	160
114	20
115	831
116	2803
117	140
118	20
120	10
121	10
128	70
129	20
130	40
131	10
132	170
141	20
142	130
143	40
144	9999
145	921
146	70
156	100
158	10
159	90
161	10
170	10
171	430
172	1301
173	160
174	100
185	70
186	120
187	260
188	10
190	20
200	50
215	340
216	40
219	10
229	10
242	250
243	280
244	40
245	30
271	1151
272	230
329	30
344	1371
345	230
346	10
