Mass Spectrum: Sarcosylsarcosine, n-butoxycarbonyl-, butyl ester
Formula: C15 H28 N2 O5
Molecular weight: 316
Origin: Zaikin V.G., TIPS RAS, Moscow, Russia
m/z	RELATIVE INTENSITY
26	30
27	170
28	360
29	901
30	50
39	120
40	30
41	1001
42	701
43	330
44	5575
45	150
53	10
55	20
56	50
57	3373
58	190
60	20
72	80
74	20
86	100
87	90
88	1972
89	110
90	50
99	10
100	20
101	10
102	70
113	170
114	40
115	480
116	1661
117	80
118	10
128	10
130	40
132	20
139	20
141	20
142	70
143	40
144	9999
145	891
146	140
157	110
158	90
159	10
171	530
172	1391
173	130
187	430
188	30
215	10
216	10
217	10
242	210
243	841
244	100
316	961
317	160
318	10
