Mass Spectrum: l-Norvaline, N-allyloxycarbonyl-, allyl ester
Formula: C12 H19 N O4
Molecular weight: 241
Origin: Zaikin V.G., TIPS RAS, Moscow, Russia
m/z	RELATIVE INTENSITY
26	30
27	150
28	30
29	80
30	180
38	30
39	751
40	110
41	6636
42	250
43	250
44	190
55	100
58	80
59	20
70	430
72	140
74	100
81	40
86	20
95	40
112	4574
113	370
114	50
116	220
154	90
155	90
156	9999
157	911
158	110
198	40
