Mass Spectrum: d-Proline, N-methoxycarbonyl-, octyl ester
Formula: C15 H27 N O4
Molecular weight: 285
Origin: Zaikin V.G., TIPS RAS, Moscow, Russia
m/z	RELATIVE INTENSITY
27	40
29	80
39	30
41	240
42	370
43	130
55	100
56	30
57	70
59	140
67	20
68	60
69	80
70	30
71	20
82	150
84	150
85	20
101	40
114	110
126	20
127	30
128	9999
129	601
130	50
142	20
226	40
285	40
