Mass Spectrum: d-Proline, n-propoxycarbonyl-, isohexyl ester
Formula: C15 H27 N O4
Molecular weight: 285
Origin: Zaikin V.G., TIPS RAS, Moscow, Russia
m/z	RELATIVE INTENSITY
27	30
29	10
39	20
41	150
42	40
43	460
44	40
68	70
70	1782
71	50
85	20
112	140
114	911
115	60
129	30
141	20
142	110
155	10
156	9999
157	861
158	70
285	110
