Mass Spectrum: d-Proline, N-allyloxycarbonyl-, butyl ester
Formula: C13 H21 N O4
Molecular weight: 255
Origin: Zaikin V.G., TIPS RAS, Moscow, Russia
m/z	RELATIVE INTENSITY
27	60
28	70
29	180
39	290
40	40
41	2662
42	220
43	40
44	40
54	20
55	40
57	140
67	20
68	430
69	200
70	711
71	20
81	20
96	30
108	50
110	5185
111	440
114	440
115	20
153	30
154	9999
155	951
156	20
170	460
171	20
255	200
256	20
