Mass Spectrum: l-Norvaline, N-isobutoxycarbonyl-, octadecyl ester
Formula: C28 H55 N O4
Molecular weight: 469
Origin: Zaikin V.G., TIPS RAS, Moscow, Russia
m/z	RELATIVE INTENSITY
29	90
30	20
39	30
41	300
42	90
43	500
44	30
54	30
55	340
56	170
57	1491
58	60
67	50
68	40
69	230
70	110
71	310
72	901
73	40
74	70
81	30
82	40
83	160
84	50
85	190
95	20
96	20
97	120
98	90
99	30
101	30
111	50
116	861
117	60
118	130
119	10
128	30
143	230
144	240
162	30
171	30
172	9999
173	911
174	70
200	60
218	150
368	30
469	30
