Mass Spectrum: Glycine, N-methyl-N-allyloxycarbonyl-, octyl ester
Formula: C15 H27 N O4
Molecular weight: 285
Origin: Zaikin V.G., TIPS RAS, Moscow, Russia
m/z	RELATIVE INTENSITY
26	20
27	170
29	290
30	10
39	440
40	70
41	4244
42	941
43	761
44	520
45	10
53	30
54	10
55	210
56	10
57	270
58	40
60	20
67	20
71	170
72	20
84	3623
85	160
88	851
89	20
90	10
114	40
116	591
117	20
127	20
128	9999
129	941
155	40
156	90
157	20
174	140
200	671
201	100
215	30
228	50
229	20
242	50
243	20
256	70
257	10
285	360
286	60
