Mass Spectrum: Sarcosylsarcosine, n-butoxycarbonyl-, isohexyl ester
Formula: C17 H32 N2 O5
Molecular weight: 344
Origin: Zaikin V.G., TIPS RAS, Moscow, Russia
m/z	RELATIVE INTENSITY
26	40
27	220
29	761
30	30
31	30
38	10
39	190
40	60
41	1161
42	651
43	1321
44	5145
45	150
51	10
53	30
54	30
55	370
56	220
57	3203
58	190
67	50
68	40
69	130
70	30
71	60
72	80
73	10
74	10
76	20
81	10
82	30
83	20
84	50
85	440
86	70
87	90
88	1431
89	110
90	110
91	10
98	20
99	10
100	20
101	10
102	50
109	10
110	10
113	100
114	30
115	571
116	1551
117	80
118	10
123	140
124	10
128	20
130	130
131	20
132	100
141	20
142	70
143	30
144	9999
145	821
146	60
157	10
159	50
168	150
171	530
172	1201
173	120
174	30
185	30
186	50
187	100
190	20
200	20
215	170
216	20
242	160
243	160
244	10
271	330
272	40
344	671
345	90
346	10
