Mass Spectrum: Glycine, N-methyl-N-allyloxycarbonyl-, isobutyl ester
Formula: C11 H19 N O4
Molecular weight: 229
Origin: Zaikin V.G., TIPS RAS, Moscow, Russia
m/z	RELATIVE INTENSITY
26	30
27	230
29	530
30	40
31	10
37	10
39	1001
40	140
41	7166
42	1611
43	601
44	701
45	20
53	10
57	801
58	90
60	50
72	30
82	50
84	4564
85	230
88	1301
89	40
90	10
100	10
101	10
114	40
116	681
117	20
127	30
128	9999
129	711
132	10
144	771
145	60
155	40
156	370
157	20
170	30
173	20
174	70
229	540
230	60
