Mass Spectrum: d-Proline, N-methoxycarbonyl-, methyl ester
Formula: C8 H13 N O4
Molecular weight: 187
Origin: Zaikin V.G., TIPS RAS, Moscow, Russia
m/z	RELATIVE INTENSITY
27	70
29	50
30	30
39	130
40	60
41	470
42	1251
44	20
45	30
53	20
54	30
55	80
56	30
59	601
67	60
68	170
69	140
82	561
84	400
85	70
101	50
126	40
127	30
128	9999
129	550
130	50
156	20
187	230
188	20
