Mass Spectrum: Glycine, N-methyl-N-allyloxycarbonyl-, allyl ester
Formula: C10 H15 N O4
Molecular weight: 213
Origin: Zaikin V.G., TIPS RAS, Moscow, Russia
m/z	RELATIVE INTENSITY
26	70
27	200
28	30
29	140
30	10
31	40
36	30
37	40
38	110
39	1621
40	240
41	9929
42	1862
43	601
44	941
45	30
54	20
55	80
56	70
57	110
58	60
67	20
68	10
69	40
70	40
71	20
72	30
76	10
79	10
81	10
82	100
83	30
84	3163
85	190
88	500
89	10
97	10
98	40
99	20
100	20
104	20
113	30
114	10
116	140
126	20
127	20
128	9999
129	651
130	60
139	120
140	30
141	80
154	20
155	20
156	210
169	20
213	140
214	20
