Mass Spectrum: d-Proline, N-methoxycarbonyl-, ethyl ester
Formula: C9 H15 N O4
Molecular weight: 201
Origin: Zaikin V.G., TIPS RAS, Moscow, Russia
m/z	RELATIVE INTENSITY
27	90
28	60
29	170
30	20
39	60
40	20
41	240
42	801
44	40
59	340
67	20
68	120
70	30
82	350
84	290
85	50
101	40
114	30
117	50
118	60
127	30
128	9999
129	591
130	50
142	210
156	20
201	220
202	20
