Mass Spectrum: d-Proline, N-allyloxycarbonyl-, allyl ester
Formula: C12 H17 N O4
Molecular weight: 239
Origin: Zaikin V.G., TIPS RAS, Moscow, Russia
m/z	RELATIVE INTENSITY
27	60
38	20
39	510
40	70
41	4144
42	290
43	80
44	50
54	20
55	110
56	30
57	20
67	30
68	480
69	230
70	651
71	40
81	40
82	30
83	10
96	20
97	30
108	80
110	5155
111	410
114	190
153	40
154	9999
155	851
156	70
239	70
