Mass Spectrum: l-Norvaline, n-butoxycarbonyl-, octadecyl ester
Formula: C28 H55 N O4
Molecular weight: 469
Origin: Zaikin V.G., TIPS RAS, Moscow, Russia
m/z	RELATIVE INTENSITY
29	70
30	40
39	20
41	240
42	60
43	380
44	30
54	30
55	320
56	190
57	761
58	30
67	40
68	40
69	190
70	110
71	280
72	891
73	40
74	70
81	30
82	40
83	150
84	50
85	180
95	20
96	20
97	120
98	100
99	40
101	40
111	50
112	20
113	20
116	581
117	30
118	60
125	20
128	50
143	210
144	120
171	30
172	9999
173	911
174	70
199	50
200	80
218	160
