Mass Spectrum: d-Proline, N-allyloxycarbonyl-, isobutyl ester
Formula: C13 H21 N O4
Molecular weight: 255
Origin: Zaikin V.G., TIPS RAS, Moscow, Russia
m/z	RELATIVE INTENSITY
26	20
27	240
28	220
29	561
30	30
31	20
38	40
39	951
40	160
41	7837
42	661
43	420
44	100
53	50
54	50
55	190
56	80
57	991
58	30
65	20
67	70
68	951
69	540
70	1922
71	130
82	40
83	60
84	70
85	40
93	60
96	60
97	60
98	20
108	70
110	7737
111	581
112	20
114	1101
115	60
122	20
142	80
153	30
154	9999
155	881
156	60
170	1121
171	90
182	30
255	80
