Mass Spectrum: d-Proline, N-ethoxycarbonyl-, heptyl ester
Formula: C15 H27 N O4
Molecular weight: 285
Origin: Zaikin V.G., TIPS RAS, Moscow, Russia
m/z	RELATIVE INTENSITY
27	20
28	40
29	100
41	120
42	50
43	110
44	20
55	60
56	20
57	90
68	120
69	70
70	1311
71	60
96	30
98	601
99	40
114	390
115	50
141	30
142	9999
143	861
144	70
212	120
285	90
