Mass Spectrum: d-Proline, n-propoxycarbonyl-, hexyl ester
Formula: C15 H27 N O4
Molecular weight: 285
Origin: Zaikin V.G., TIPS RAS, Moscow, Russia
m/z	RELATIVE INTENSITY
26	20
27	280
28	60
29	150
39	120
40	30
41	841
42	240
43	1992
44	140
53	10
55	120
56	40
57	20
68	230
69	160
70	4474
71	180
112	210
113	20
114	1201
115	80
129	30
141	30
142	40
156	9999
157	781
158	60
198	130
285	50
