Mass Spectrum: Glycine, N-methyl-N-ethoxycarbonyl-, ethyl ester
Formula: C8 H15 N O4
Molecular weight: 189
Origin: Zaikin V.G., TIPS RAS, Moscow, Russia
m/z	RELATIVE INTENSITY
26	50
27	460
28	691
29	1732
30	70
42	941
43	110
44	5525
45	150
58	10
59	20
60	60
61	10
72	931
73	30
74	10
87	20
88	681
89	40
102	30
115	90
116	9999
117	490
118	40
143	10
144	340
145	10
189	1061
190	100
