Mass Spectrum: Glycine, N-methyl-N-allyloxycarbonyl-, ethyl ester
Formula: C9 H15 N O4
Molecular weight: 201
Origin: Zaikin V.G., TIPS RAS, Moscow, Russia
m/z	RELATIVE INTENSITY
26	60
27	200
29	661
30	60
37	10
38	10
39	1121
40	130
41	8007
42	2122
44	1241
45	60
59	10
60	70
61	10
72	80
84	3633
85	150
86	10
88	821
89	20
114	30
116	2112
117	110
118	10
127	20
128	9999
129	540
142	50
144	260
145	10
155	40
156	380
157	20
171	10
201	1061
202	100
