Mass Spectrum: d-Proline, N-allyloxycarbonyl-, isohexyl ester
Formula: C15 H25 N O4
Molecular weight: 283
Origin: Zaikin V.G., TIPS RAS, Moscow, Russia
m/z	RELATIVE INTENSITY
27	50
28	30
29	80
39	200
40	40
41	1902
42	160
43	480
44	40
53	20
55	110
56	30
67	20
68	320
69	160
70	771
71	40
82	20
85	70
96	30
108	40
110	3954
111	330
114	490
115	30
142	100
153	30
154	9999
155	931
156	100
198	120
200	10
283	190
284	20
