Mass Spectrum: .beta.-Alanine, N-(3-methoxybenzoyl)-, propyl ester
Formula: C14 H19 N O4
Molecular weight: 265
Origin: Zaikin V.G., TIPS RAS, Moscow, Russia
m/z	RELATIVE INTENSITY
27	120
29	20
30	20
38	20
39	70
41	120
42	20
43	180
44	40
50	60
51	60
55	40
63	180
64	340
65	90
70	190
74	20
75	40
76	190
77	1161
78	140
79	80
88	631
89	40
91	40
92	1051
93	90
98	60
103	60
104	80
105	40
106	40
107	1641
108	270
109	40
119	40
120	60
121	140
122	20
130	4204
131	300
132	30
133	80
134	170
135	9999
136	1071
137	90
148	40
149	110
150	80
151	200
160	90
161	70
162	130
163	420
164	260
165	20
176	210
177	530
178	330
179	110
193	30
206	1611
207	210
208	30
220	70
222	300
223	70
224	30
264	80
265	2272
266	390
267	40
