Mass Spectrum: Sarcosine, N-(4-methylbenzoyl)-, isobutyl ester
Formula: C15 H21 N O3
Molecular weight: 263
Origin: Zaikin V.G., TIPS RAS, Moscow, Russia
m/z	RELATIVE INTENSITY
27	20
29	50
39	80
41	110
42	110
43	80
44	50
51	30
55	20
57	50
63	70
64	20
65	420
66	20
69	20
83	20
88	60
89	160
90	160
91	1441
92	120
97	20
101	40
105	20
118	80
119	9999
120	781
121	50
134	20
144	220
148	30
160	40
161	20
162	1411
163	200
189	70
190	210
191	30
206	50
262	731
263	1211
264	250
265	30
