Mass Spectrum: Sarcosine, N-(2-bromobenzoyl)-, isobutyl ester
Formula: C14 H18 Br N O3
Molecular weight: 327
Origin: Zaikin V.G., TIPS RAS, Moscow, Russia
m/z	RELATIVE INTENSITY
27	80
28	80
29	210
39	110
40	20
41	370
42	651
43	360
44	100
50	290
51	130
55	90
56	60
57	310
58	30
65	30
68	20
69	60
70	20
71	40
74	110
75	601
76	861
77	480
78	60
80	20
82	30
85	10
88	200
89	30
90	40
91	180
92	30
103	20
104	170
105	510
106	30
111	20
118	200
119	80
121	30
136	60
137	20
144	1041
145	60
146	220
147	40
148	40
154	20
155	1371
156	120
157	1331
158	110
174	40
182	30
183	9999
184	831
185	9669
186	791
187	30
192	150
198	20
199	20
200	40
212	50
214	40
226	2793
227	310
228	2702
229	280
248	110
253	80
254	280
255	70
256	260
270	90
272	110
326	1071
327	1451
328	1361
329	1471
330	260
