Mass Spectrum: .beta.-Alanine, N-(3-methoxybenzoyl)-, ethyl ester
Formula: C13 H17 N O4
Molecular weight: 251
Origin: Zaikin V.G., TIPS RAS, Moscow, Russia
m/z	RELATIVE INTENSITY
27	70
29	140
30	20
38	20
39	50
41	20
44	30
50	50
51	70
53	20
62	20
63	210
64	380
65	80
70	50
73	30
74	120
75	50
76	210
77	1231
78	160
79	80
88	60
90	20
91	60
92	1171
93	120
103	40
104	70
105	40
106	50
107	1812
108	290
109	30
112	20
116	4204
117	260
118	30
119	50
120	50
121	150
122	20
133	90
134	200
135	9999
136	1141
137	60
148	40
149	100
150	70
151	180
160	70
161	20
162	130
163	400
164	290
165	20
176	220
177	490
178	260
179	80
193	20
205	10
206	1641
207	200
208	20
222	340
223	50
234	20
250	80
251	2803
252	430
