Mass Spectrum: .beta.-Alanine, N-(4-butylbenzoyl)-, hexyl ester
Formula: C20 H31 N O3
Molecular weight: 333
Origin: Zaikin V.G., TIPS RAS, Moscow, Russia
m/z	RELATIVE INTENSITY
27	80
29	120
39	60
41	240
42	70
43	420
51	20
53	20
55	220
56	70
57	30
63	20
65	90
70	180
77	120
78	40
79	40
85	30
88	1221
89	170
90	460
91	1311
92	130
102	20
103	130
104	110
105	170
106	70
107	20
115	70
116	60
117	80
118	611
119	440
120	30
130	40
131	250
132	60
133	130
134	80
135	30
145	30
146	50
148	40
159	120
160	120
161	9999
162	1141
163	80
172	5295
173	530
174	40
177	50
178	20
186	40
188	30
189	290
190	100
202	90
203	380
204	390
205	460
206	70
231	20
232	631
233	90
248	410
249	120
250	330
251	40
276	20
277	20
304	70
318	20
332	60
333	931
334	190
