Mass Spectrum: Sarcosine, N-cyclopropylcarbonyl-, pentyl ester
Formula: C12 H21 N O3
Molecular weight: 227
Origin: Zaikin V.G., TIPS RAS, Moscow, Russia
m/z	RELATIVE INTENSITY
27	190
28	120
29	300
39	611
40	120
41	2032
42	731
43	721
44	2492
45	30
53	20
54	10
55	210
68	170
69	9999
70	420
71	30
72	20
87	260
88	290
90	30
98	70
103	30
111	40
112	8257
113	621
116	30
130	30
139	90
140	210
158	951
159	250
227	490
228	20
