Mass Spectrum: Sarcosine, N-isobutyryl-, ethyl ester
Formula: C9 H17 N O3
Molecular weight: 187
Origin: Zaikin V.G., TIPS RAS, Moscow, Russia
m/z	RELATIVE INTENSITY
27	320
28	90
29	240
39	110
41	601
42	861
43	3803
44	9999
45	240
55	140
56	30
69	90
70	190
71	2742
72	140
88	520
98	20
114	2752
115	140
116	1551
117	160
118	661
141	140
142	791
144	30
159	80
187	2642
188	180
