Mass Spectrum: Sarcosine, N-(4-chlorobenzoyl)-, hexyl ester
Formula: C16 H22 Cl N O3
Molecular weight: 311
Origin: Zaikin V.G., TIPS RAS, Moscow, Russia
m/z	RELATIVE INTENSITY
27	60
29	90
39	40
41	200
42	270
43	420
44	110
50	60
51	30
55	70
56	20
74	20
75	380
76	150
77	30
85	30
88	120
104	140
105	30
110	20
111	1301
112	100
113	430
114	20
119	40
139	9999
140	781
141	3373
142	260
168	30
172	721
173	60
180	30
182	3123
183	410
184	1041
185	120
209	80
210	100
211	30
212	30
226	50
228	80
310	851
311	1161
312	520
313	400
314	70
