Mass Spectrum: Sarcosine, N-cyclopropylcarbonyl-, butyl ester
Formula: C11 H19 N O3
Molecular weight: 213
Origin: Zaikin V.G., TIPS RAS, Moscow, Russia
m/z	RELATIVE INTENSITY
26	20
27	220
28	180
29	460
30	20
38	20
39	751
40	150
41	2262
42	791
43	300
44	2672
45	60
53	20
55	180
56	50
57	210
60	20
68	220
69	9999
70	450
71	50
82	30
83	40
84	100
88	260
97	20
98	100
111	30
112	6055
113	450
114	20
116	20
139	70
140	210
144	641
145	30
157	20
213	290
214	20
