Mass Spectrum: Sarcosine, N-(3-methylbut-2-enoyl)-, isohexyl ester
Formula: C14 H25 N O3
Molecular weight: 255
Origin: Zaikin V.G., TIPS RAS, Moscow, Russia
m/z	RELATIVE INTENSITY
27	90
29	290
39	140
40	20
41	180
42	220
43	220
44	1231
45	20
53	140
54	70
55	1001
56	90
57	20
82	921
83	9999
84	480
85	60
88	280
90	180
96	40
98	20
110	30
112	60
122	20
124	30
125	40
126	2422
127	270
153	320
154	230
170	30
171	180
172	350
173	30
174	931
175	50
240	20
255	1862
256	260
