Mass Spectrum: Sarcosine, N-(2-chlorobenzoyl)-, pentyl ester
Formula: C15 H20 Cl N O3
Molecular weight: 297
Origin: Zaikin V.G., TIPS RAS, Moscow, Russia
m/z	RELATIVE INTENSITY
27	40
28	30
29	70
39	20
41	140
42	230
43	280
44	90
50	60
51	60
55	70
56	20
57	40
69	30
70	20
71	30
74	30
75	360
76	160
77	140
79	20
83	20
85	30
88	90
89	20
91	30
97	20
102	20
104	30
105	150
106	20
110	30
111	1151
112	120
113	390
114	30
117	50
118	40
119	20
120	10
123	20
125	20
133	300
134	50
138	30
139	9999
140	801
141	3413
142	240
145	50
146	90
154	20
158	701
159	110
168	30
173	60
174	20
176	20
180	30
182	3143
183	330
184	1071
185	70
192	20
209	80
210	150
211	40
212	40
226	50
228	110
230	20
262	100
296	931
297	1672
298	631
299	601
300	100
