Mass Spectrum: Sarcosine, N-(4-methylbenzoyl)-, nonyl ester
Formula: C20 H31 N O3
Molecular weight: 333
Origin: Zaikin V.G., TIPS RAS, Moscow, Russia
m/z	RELATIVE INTENSITY
27	30
28	20
29	50
39	50
41	130
42	110
43	180
44	130
55	40
57	20
63	30
65	220
88	90
89	80
90	90
91	1041
92	90
105	20
118	70
119	9999
120	871
121	50
148	30
160	50
161	20
162	2702
163	360
164	30
189	120
190	120
206	50
208	140
214	490
215	60
276	20
332	921
333	1411
334	320
335	40
