Mass Spectrum: .beta.-Alanine, N-caproyl-, heptyl ester
Formula: C16 H31 N O3
Molecular weight: 285
Origin: Zaikin V.G., TIPS RAS, Moscow, Russia
m/z	RELATIVE INTENSITY
26	20
27	140
28	120
29	320
30	581
39	150
40	20
41	941
42	290
43	1872
44	661
45	20
51	30
53	70
54	90
55	911
56	320
57	1411
58	40
59	70
60	50
67	80
68	120
69	440
70	611
71	881
72	1141
73	170
74	50
75	50
79	40
81	80
82	50
83	190
84	250
85	621
86	130
87	1451
88	1972
89	230
90	1431
91	120
92	20
96	40
97	150
98	871
99	1611
100	130
101	40
105	30
109	40
111	140
112	110
113	1381
114	4434
115	310
116	661
117	60
124	20
125	30
126	1912
127	360
128	550
129	40
130	190
131	310
132	9999
133	530
134	30
139	110
140	1261
141	751
142	130
143	20
144	330
145	90
146	30
154	80
158	310
159	540
168	70
169	80
170	2282
171	190
172	70
173	170
177	30
186	4824
187	671
188	1211
189	60
200	410
201	120
214	200
215	30
229	2662
230	260
242	1281
243	190
256	691
257	40
285	280
286	30
