Mass Spectrum: .beta.-Alanine, N-capryloyl-, isohexyl ester
Formula: C17 H33 N O3
Molecular weight: 299
Origin: Zaikin V.G., TIPS RAS, Moscow, Russia
m/z	RELATIVE INTENSITY
26	70
27	530
28	360
29	901
30	1561
31	30
39	320
40	70
41	1832
42	500
43	4104
44	1631
45	100
50	20
52	10
53	120
54	140
55	1601
56	611
57	3093
58	130
65	80
67	200
68	80
69	591
70	581
71	290
72	1421
73	180
74	70
80	30
81	80
82	70
83	160
84	1511
85	1391
86	110
87	841
88	3393
89	621
90	2262
91	330
92	70
95	20
97	90
98	891
99	110
100	120
101	40
102	30
103	130
104	20
107	20
109	110
110	30
111	160
112	100
113	1742
114	2392
115	510
116	410
117	20
118	50
123	60
125	50
126	1611
127	1862
128	70
129	70
130	20
131	1371
132	9999
133	591
134	60
138	60
139	130
140	400
141	70
144	1411
145	260
146	60
154	250
155	20
156	290
157	80
158	310
159	50
161	40
166	30
168	250
169	130
170	100
171	30
172	1842
173	170
174	300
181	80
182	40
183	20
185	10
186	320
187	120
189	50
196	90
197	50
198	2272
199	280
200	180
206	40
214	30
215	2662
216	981
217	70
228	891
229	150
242	130
256	150
257	40
270	210
284	10
299	300
300	70
