Mass Spectrum: Sarcosine, N-(1-naphthoyl)-, pentyl ester
Formula: C19 H23 N O3
Molecular weight: 313
Origin: Zaikin V.G., TIPS RAS, Moscow, Russia
m/z	RELATIVE INTENSITY
27	10
29	20
41	40
42	40
43	70
44	30
51	10
55	20
57	20
69	10
70	10
71	10
74	10
75	30
76	10
77	110
78	10
88	30
91	10
97	20
98	10
101	90
102	10
104	20
125	10
126	290
127	2582
128	370
129	20
135	20
141	40
142	20
150	20
153	10
154	30
155	9999
156	1251
157	100
158	210
184	40
196	60
197	80
198	781
199	130
224	90
225	200
226	150
242	80
243	50
312	310
313	2432
314	540
315	60
