Mass Spectrum: Sarcosine, N-(cyclopentylcarbonyl)-, propyl ester
Formula: C12 H21 N O3
Molecular weight: 227
Origin: Zaikin V.G., TIPS RAS, Moscow, Russia
m/z	RELATIVE INTENSITY
27	360
29	100
31	20
39	380
40	120
41	2032
42	731
43	751
44	9999
45	270
53	100
54	20
55	490
58	50
60	40
65	80
66	50
67	591
68	370
69	6476
70	430
71	60
72	70
88	791
95	110
96	290
97	3333
98	631
99	50
110	30
111	20
112	80
113	20
115	20
116	140
126	711
127	40
130	1631
131	591
132	2252
133	130
140	3573
141	280
142	20
167	721
168	1091
169	90
186	2252
187	220
199	50
227	2722
228	390
229	30
