Mass Spectrum: .beta.-Alanine, N-(4-chlorobenzoyl)-, hexyl ester
Formula: C16 H22 Cl N O3
Molecular weight: 311
Origin: Zaikin V.G., TIPS RAS, Moscow, Russia
m/z	RELATIVE INTENSITY
27	90
28	40
29	100
30	50
39	60
41	210
42	80
43	400
44	230
45	20
50	140
51	90
53	20
55	140
56	60
59	20
65	30
70	390
71	40
72	70
73	20
74	90
75	661
76	260
77	100
84	30
85	120
87	891
88	1772
89	80
90	20
91	210
92	70
98	30
102	20
103	70
104	220
105	80
110	50
111	1892
112	170
113	721
114	50
116	30
119	30
127	20
136	250
137	190
138	180
139	9999
140	871
141	3423
142	260
146	70
153	50
155	160
156	70
157	50
158	20
164	50
166	50
167	240
168	470
169	100
170	160
172	5345
173	550
174	30
180	150
181	1131
182	550
183	711
184	210
185	110
208	20
209	140
210	1121
211	170
212	390
213	30
223	20
226	340
227	70
228	701
229	70
230	180
255	50
282	20
296	20
310	20
311	961
312	50
313	330
314	40
