Mass Spectrum: Sarcosine, N-(1-naphthoyl)-, hexyl ester
Formula: C20 H25 N O3
Molecular weight: 327
Origin: Zaikin V.G., TIPS RAS, Moscow, Russia
m/z	RELATIVE INTENSITY
29	20
41	60
42	50
43	120
44	40
55	50
57	40
69	20
75	30
77	110
85	20
88	30
97	60
98	20
101	80
126	270
127	2552
128	360
129	20
134	30
135	40
141	40
142	30
154	40
155	9999
156	1261
157	80
184	40
196	50
197	80
198	771
199	150
224	80
225	200
226	100
242	80
243	60
326	270
327	1822
328	400
329	40
