Mass Spectrum: Sarcosine, N-(3-phenylpropionyl)-, hexyl ester
Formula: C18 H27 N O3
Molecular weight: 305
Origin: Zaikin V.G., TIPS RAS, Moscow, Russia
m/z	RELATIVE INTENSITY
27	110
28	50
29	140
39	110
41	430
42	390
43	1021
44	9949
45	310
50	20
51	140
52	20
53	30
55	280
56	100
57	290
58	50
63	50
65	340
67	30
69	70
70	20
71	270
72	70
76	20
77	661
78	350
79	480
83	50
84	20
85	100
86	40
88	1141
89	270
90	1071
91	5045
92	430
97	30
98	40
102	90
103	771
104	2983
105	4624
106	460
107	60
112	470
113	50
115	30
116	110
117	60
118	60
119	50
120	170
128	30
130	20
131	550
132	530
133	1031
134	150
142	200
144	70
145	10
146	20
147	50
148	20
150	260
151	40
158	50
159	40
160	30
162	120
164	50
172	1972
173	1621
174	7537
175	981
176	1271
177	380
178	50
186	50
203	3493
204	1021
205	100
220	30
221	170
222	70
248	490
249	70
305	9999
306	2092
307	240
