Mass Spectrum: Sarcosine, N-isobutyryl-, isobutyl ester
Formula: C11 H21 N O3
Molecular weight: 215
Origin: Zaikin V.G., TIPS RAS, Moscow, Russia
m/z	RELATIVE INTENSITY
27	210
28	100
29	260
39	120
40	20
41	741
42	621
43	3123
44	9999
45	410
55	30
56	30
57	661
69	40
70	60
71	2302
72	130
85	50
87	20
88	691
89	210
90	120
100	40
112	20
114	2282
115	170
116	160
141	100
142	661
143	30
144	581
145	50
146	330
215	991
216	60
