Mass Spectrum: Sarcosine, N-(4-butylbenzoyl)-, propyl ester
Formula: C17 H25 N O3
Molecular weight: 291
Origin: Zaikin V.G., TIPS RAS, Moscow, Russia
m/z	RELATIVE INTENSITY
41	40
42	30
43	40
55	30
65	60
77	70
78	30
79	20
88	30
89	90
90	270
91	641
92	50
103	80
104	70
105	70
115	40
116	20
118	280
119	40
130	240
131	120
132	30
133	70
159	40
160	20
161	9999
162	1001
163	70
176	20
202	40
204	641
205	90
231	40
232	180
233	20
248	50
290	611
291	1131
292	250
293	30
