Mass Spectrum: Sarcosine, N-(4-methoxybenzoyl)-, hexyl ester
Formula: C17 H25 N O4
Molecular weight: 307
Origin: Zaikin V.G., TIPS RAS, Moscow, Russia
m/z	RELATIVE INTENSITY
41	20
42	30
43	50
44	110
64	40
76	20
77	300
78	20
91	30
92	250
104	30
105	40
107	170
120	20
121	20
133	20
135	9999
136	931
137	70
150	40
164	20
172	210
173	100
176	30
178	1041
179	120
204	160
205	90
206	100
306	861
307	1461
308	280
309	20
