Mass Spectrum: Sarcosine, N-(4-trifluoromethylbenzoyl)-, propyl ester
Formula: C14 H16 F3 N O3
Molecular weight: 303
Origin: Zaikin V.G., TIPS RAS, Moscow, Russia
m/z	RELATIVE INTENSITY
27	80
29	20
39	30
41	80
42	330
43	250
44	60
50	40
51	20
75	100
76	30
88	50
95	190
107	20
119	20
125	140
126	190
127	30
130	380
131	20
143	20
144	40
145	2192
146	190
154	70
159	20
172	30
173	9999
174	841
175	40
187	20
202	30
214	50
215	20
216	2072
217	240
243	40
244	220
245	20
284	320
285	40
302	731
303	931
304	210
