Mass Spectrum: .beta.-Alanine, N-caproyl-, pentadecyl ester
Formula: C24 H47 N O3
Molecular weight: 397
Origin: Zaikin V.G., TIPS RAS, Moscow, Russia
m/z	RELATIVE INTENSITY
26	40
27	260
28	200
29	510
30	1001
39	210
40	30
41	1431
42	420
43	3463
44	671
45	70
50	20
53	80
54	180
55	1651
56	520
57	1441
58	50
59	110
60	60
61	30
65	20
67	270
68	230
69	1001
70	721
71	1521
72	1461
73	190
74	20
75	30
77	40
79	50
80	40
81	210
82	220
83	621
84	320
85	681
86	130
87	1261
88	1792
89	180
90	2032
91	100
92	20
93	20
95	100
96	120
97	420
98	540
99	1641
100	270
101	70
103	10
109	60
110	50
111	280
112	130
113	661
114	4974
115	370
116	550
117	30
124	20
125	50
126	1702
127	180
128	811
129	90
130	120
131	230
132	9999
133	581
134	60
135	40
139	120
140	861
141	611
142	150
143	130
144	380
145	80
146	140
152	120
153	50
154	100
155	20
158	350
159	320
160	20
168	130
169	200
170	3833
171	360
172	160
173	190
185	20
186	230
187	130
188	3493
189	310
200	370
201	160
202	170
203	80
207	20
210	20
214	240
215	130
228	150
229	80
230	10
241	20
242	330
243	70
244	20
256	510
257	200
270	380
271	180
284	300
285	120
298	3914
299	801
300	260
312	280
313	70
314	50
326	240
327	60
341	2062
342	420
343	20
354	1581
355	340
356	40
368	500
369	120
370	10
382	30
397	530
398	110
