Mass Spectrum: .beta.-Alanine, N-caproyl-, pentyl ester
Formula: C14 H27 N O3
Molecular weight: 257
Origin: Zaikin V.G., TIPS RAS, Moscow, Russia
m/z	RELATIVE INTENSITY
26	140
27	991
28	761
29	1922
30	3063
31	30
39	671
40	100
41	3243
42	1301
43	9999
44	1611
45	250
50	50
51	70
52	80
53	270
54	240
55	2522
56	701
59	280
60	210
61	50
65	70
67	260
68	290
69	1191
70	1932
71	3934
72	2732
73	711
74	210
75	80
76	20
77	40
79	80
80	30
81	70
82	80
83	20
84	520
85	1892
86	340
87	4404
88	4804
89	460
90	2172
91	330
92	30
95	100
96	70
97	340
98	2182
99	4144
100	370
101	430
102	30
103	60
105	40
107	40
112	120
113	3894
114	5675
115	410
116	1471
117	230
118	30
124	80
125	320
126	3053
127	440
128	1381
131	671
132	8287
133	350
136	50
139	290
140	1782
141	1111
142	200
143	330
144	310
145	160
146	20
154	60
156	20
158	7787
159	2772
160	751
168	30
169	40
170	4004
171	280
172	130
186	20
188	160
201	7247
202	530
207	20
214	1351
215	150
228	400
257	200
