Mass Spectrum: .beta.-Alanine, N-caproyl-, hexyl ester
Formula: C15 H29 N O3
Molecular weight: 271
Origin: Zaikin V.G., TIPS RAS, Moscow, Russia
m/z	RELATIVE INTENSITY
26	40
27	410
28	250
29	641
30	1141
39	300
40	40
41	1541
42	561
43	4724
44	1321
45	50
47	20
50	20
51	40
52	20
53	150
54	130
55	1431
56	530
57	681
59	150
60	80
65	40
67	180
68	140
69	581
70	1051
71	1181
72	1732
73	320
74	110
75	60
77	40
79	20
80	30
81	100
82	140
83	340
84	591
85	1241
86	210
87	2482
88	2943
89	430
90	1772
91	300
92	130
96	80
97	210
98	1471
99	2322
100	250
101	40
102	20
103	40
105	30
111	130
112	130
113	2402
114	5605
115	350
116	1011
117	140
119	10
124	30
125	40
126	2652
127	661
128	661
129	50
130	210
131	601
132	9999
133	530
134	20
136	250
137	70
139	200
140	1591
141	841
142	130
143	100
144	621
145	140
146	50
154	110
155	20
158	230
159	1001
168	110
169	50
170	3133
171	230
172	5735
173	991
174	490
177	20
185	70
186	250
187	370
188	500
189	20
198	130
200	330
201	20
215	4514
216	440
228	1341
229	230
242	601
243	20
256	40
271	330
272	30
