Mass Spectrum: l-Leucine, n-butoxycarbonyl-N-methyl-, hexadecyl ester
Formula: C28 H55 N O4
Molecular weight: 469
Origin: Zaikin V.G., TIPS RAS, Moscow, Russia
m/z	RELATIVE INTENSITY
27	20
29	140
39	10
41	240
42	100
43	280
44	80
55	140
56	80
57	781
58	150
69	80
70	40
71	80
83	30
84	40
85	40
88	210
98	30
100	671
101	40
102	40
115	40
128	30
142	20
144	801
145	60
156	40
171	40
172	50
184	20
200	9999
201	1101
202	90
