Mass Spectrum: .beta.-Alanine, N-(1-naphthoyl)-, decyl ester
Formula: C24 H33 N O3
Molecular weight: 383
Origin: Zaikin V.G., TIPS RAS, Moscow, Russia
m/z	RELATIVE INTENSITY
27	60
28	30
29	90
30	20
39	40
41	280
42	70
43	380
44	30
51	20
53	10
55	230
56	110
57	220
67	30
68	20
69	90
70	70
71	50
75	50
77	100
81	40
82	20
83	90
84	20
85	20
87	30
88	591
97	20
101	80
109	20
111	20
115	40
126	340
127	3033
128	581
129	70
141	60
144	20
153	170
154	200
155	9999
156	1571
157	80
169	70
170	370
171	170
172	80
180	30
182	260
183	931
184	460
196	30
197	270
198	220
199	460
207	20
224	20
225	60
226	430
227	30
228	1211
229	100
242	180
243	1191
244	591
245	40
298	20
312	50
326	40
327	20
354	30
382	50
383	2152
384	571
385	20
