Mass Spectrum: Sarcosine, N-(2-methoxybenzoyl)-, propyl ester
Formula: C14 H19 N O4
Molecular weight: 265
Origin: Zaikin V.G., TIPS RAS, Moscow, Russia
m/z	RELATIVE INTENSITY
27	40
39	30
41	40
42	80
43	40
44	130
50	30
51	90
63	70
64	120
65	40
76	70
77	961
78	90
79	70
88	30
89	20
91	40
92	470
93	40
105	70
119	150
120	130
121	40
130	160
131	290
132	30
134	30
135	9999
136	761
137	60
150	50
162	30
176	20
178	621
179	60
205	20
206	180
207	20
264	400
265	671
266	110
