Mass Spectrum: .beta.-Alanine, N-(4-methylbenzoyl)-, pentyl ester
Formula: C16 H23 N O3
Molecular weight: 277
Origin: Zaikin V.G., TIPS RAS, Moscow, Russia
m/z	RELATIVE INTENSITY
27	60
28	30
29	90
39	80
41	150
42	70
43	200
51	20
55	500
63	60
64	30
65	380
66	20
69	20
70	100
71	40
77	20
87	20
88	751
89	200
90	190
91	1651
92	140
93	20
105	20
116	20
117	20
118	210
119	9999
120	741
121	50
135	70
144	50
146	70
147	180
148	220
149	20
158	3944
159	360
160	130
161	440
162	340
163	310
164	30
189	50
190	821
191	110
206	330
208	200
209	20
235	30
260	20
262	20
276	70
277	1201
278	230
279	20
