Mass Spectrum: Sarcosine, n-hexanoyl-, heptadecyl ester
Formula: C26 H51 N O3
Molecular weight: 425
Origin: Zaikin V.G., TIPS RAS, Moscow, Russia
m/z	RELATIVE INTENSITY
27	130
28	120
29	320
39	90
41	681
42	330
43	2432
44	9999
45	270
54	60
55	841
56	280
57	1001
58	40
67	100
68	90
69	450
70	210
71	1091
72	40
73	20
81	50
82	70
83	260
84	70
85	210
86	390
87	1071
88	520
89	90
90	1281
91	80
95	20
96	40
97	180
98	120
99	951
100	140
111	50
112	40
113	1241
114	671
115	20
116	100
117	40
118	20
119	180
120	20
126	140
127	30
128	20
130	10
131	330
132	2632
133	130
140	90
142	1461
143	290
144	110
158	70
159	90
162	30
168	20
169	641
170	400
171	30
172	40
173	50
186	110
187	50
188	480
189	60
190	80
200	120
201	20
204	20
214	110
215	20
228	80
229	20
242	110
256	130
257	20
270	110
271	20
281	70
284	120
298	100
312	100
326	1501
327	991
328	540
329	80
340	50
354	20
369	3313
370	731
371	50
382	581
383	160
396	160
397	20
425	550
426	110
