Mass Spectrum: .beta.-Alanine, N-isobutyryl-, hexyl ester
Formula: C13 H25 N O3
Molecular weight: 243
Origin: Zaikin V.G., TIPS RAS, Moscow, Russia
m/z	RELATIVE INTENSITY
26	50
27	861
28	1171
29	691
30	1191
31	50
39	440
40	100
41	2262
42	921
43	9999
44	1161
45	140
46	50
53	70
54	60
55	911
56	550
57	861
58	100
59	30
60	120
67	80
69	220
70	1822
71	3523
72	1722
73	270
74	260
77	20
83	10
84	100
85	2072
86	130
87	210
88	3944
89	230
90	791
91	80
92	20
96	30
98	3533
99	320
100	1221
101	60
112	120
113	1962
114	540
115	651
116	6426
117	300
118	40
126	420
127	40
130	30
131	40
132	20
134	30
135	60
136	60
139	40
140	20
141	731
142	3043
143	210
144	90
158	70
159	70
160	1111
161	320
172	8928
173	641
174	300
177	50
178	70
179	20
187	90
200	180
201	40
214	30
228	40
243	1421
244	180
