Mass Spectrum: .beta.-Alanine, N-(2-methylbenzoyl)-, heptyl ester
Formula: C18 H27 N O3
Molecular weight: 305
Origin: Zaikin V.G., TIPS RAS, Moscow, Russia
m/z	RELATIVE INTENSITY
26	20
27	100
28	60
29	170
30	80
39	120
40	10
41	360
42	80
43	290
44	50
51	40
53	20
54	20
55	250
56	90
57	310
63	70
64	20
65	450
66	20
67	30
68	30
69	110
70	210
71	60
72	20
73	20
77	40
81	20
82	30
83	70
84	30
85	40
87	20
88	540
89	210
90	520
91	2212
92	200
93	20
95	20
97	50
98	40
104	20
105	30
106	40
107	20
111	20
116	70
117	90
118	9999
119	7216
120	641
121	40
123	110
132	30
133	20
134	70
135	70
136	50
141	250
144	30
145	20
146	170
147	270
148	130
160	70
161	190
162	130
163	140
164	10
186	2632
187	310
188	30
189	1051
190	671
191	80
192	30
206	60
207	120
208	340
209	30
235	20
262	20
276	40
290	90
304	20
305	1882
306	410
307	40
