Mass Spectrum: Sarcosine, N-(4-methoxybenzoyl)-, pentyl ester
Formula: C16 H23 N O4
Molecular weight: 293
Origin: Zaikin V.G., TIPS RAS, Moscow, Russia
m/z	RELATIVE INTENSITY
41	20
42	30
43	40
44	40
64	40
76	20
77	330
78	20
91	20
92	280
104	30
105	20
107	180
120	30
121	20
135	9999
136	901
137	80
150	40
158	180
176	20
178	891
179	100
204	20
205	80
206	110
292	881
293	1501
294	290
295	20
