Mass Spectrum: Sarcosine, N-(2-thiophenylacetyl)-, ethyl ester
Formula: C11 H15 N O3 S
Molecular weight: 241
Origin: Zaikin V.G., TIPS RAS, Moscow, Russia
m/z	RELATIVE INTENSITY
27	360
29	1201
31	70
38	30
39	460
41	60
42	1181
43	530
44	9999
45	1782
47	70
50	30
51	130
52	70
53	1181
54	60
57	20
58	170
59	60
61	30
63	140
65	20
69	280
70	290
71	120
72	911
73	20
84	150
88	5375
89	160
95	220
96	771
97	8738
98	701
99	430
116	7657
117	400
118	2322
119	90
124	5935
125	540
126	270
144	310
168	1171
169	80
170	20
195	420
196	1031
197	90
198	30
241	9308
242	1241
243	460
244	20
