Mass Spectrum: Sarcosine, N-(2-thiophenylacetyl)-, butyl ester
Formula: C13 H19 N O3 S
Molecular weight: 269
Origin: Zaikin V.G., TIPS RAS, Moscow, Russia
m/z	RELATIVE INTENSITY
27	240
29	1051
39	370
40	20
41	1081
42	791
43	380
44	5205
45	1051
47	60
51	80
52	50
53	851
57	1641
58	160
63	80
69	60
70	100
71	60
84	40
88	9999
89	370
90	120
95	130
96	520
97	7176
98	691
99	350
100	20
110	20
113	10
116	3703
117	150
124	6446
125	540
126	330
138	20
144	210
146	2933
147	220
167	50
168	561
169	70
184	40
195	460
196	681
197	80
198	20
269	7427
270	1211
271	480
272	30
