Mass Spectrum: Sarcosine, N-(3-methylbenzoyl)-, nonyl ester
Formula: C20 H31 N O3
Molecular weight: 333
Origin: Zaikin V.G., TIPS RAS, Moscow, Russia
m/z	RELATIVE INTENSITY
27	20
28	20
29	60
39	50
41	170
42	110
43	240
44	130
51	10
55	120
56	40
57	80
63	30
65	250
69	40
70	20
71	40
83	20
85	20
88	100
89	90
90	110
91	1341
92	110
97	20
105	110
111	10
118	70
119	9999
120	841
121	50
139	40
148	30
160	60
161	20
162	2462
163	380
164	20
176	20
189	80
190	90
206	50
207	20
208	150
214	480
215	60
262	30
276	20
332	681
333	1071
334	250
335	30
