Mass Spectrum: Sarcosine, N-(2-furoyl)-, ethyl ester
Formula: C10 H13 N O4
Molecular weight: 211
Origin: Zaikin V.G., TIPS RAS, Moscow, Russia
m/z	RELATIVE INTENSITY
26	20
27	120
28	90
29	230
37	20
38	130
39	761
40	50
41	50
42	540
43	140
44	200
51	40
53	30
66	50
67	150
68	40
81	50
88	40
95	9999
96	591
97	50
110	70
116	370
124	40
138	3873
139	330
140	20
165	40
166	210
211	1361
212	170
