Mass Spectrum: Sarcosine, N-(3-methoxybenzoyl)-, pentyl ester
Formula: C16 H23 N O4
Molecular weight: 293
Origin: Zaikin V.G., TIPS RAS, Moscow, Russia
m/z	RELATIVE INTENSITY
27	50
28	30
29	90
39	50
41	110
42	130
43	180
44	60
50	30
51	30
55	30
63	100
64	200
65	40
75	20
76	110
77	771
78	80
79	40
88	80
92	641
93	50
104	30
105	30
106	20
107	1011
108	100
120	30
121	991
122	80
133	20
135	9999
136	851
137	70
158	520
159	40
164	30
176	40
177	20
178	701
179	110
192	20
205	40
206	100
222	20
292	390
293	1591
294	330
295	40
