Mass Spectrum: Sarcosine, N-(3-methoxybenzoyl)-, undecyl ester
Formula: C22 H35 N O4
Molecular weight: 377
Origin: Zaikin V.G., TIPS RAS, Moscow, Russia
m/z	RELATIVE INTENSITY
27	40
28	40
29	100
39	40
41	230
42	140
43	330
44	180
55	170
56	50
57	150
63	50
64	100
65	30
67	20
69	60
70	20
71	40
76	50
77	500
78	50
79	30
83	20
85	20
88	160
92	380
93	30
104	30
105	30
107	811
108	90
120	40
121	1361
122	120
133	20
135	9999
136	901
137	70
164	40
176	60
177	30
178	1231
179	380
180	30
192	70
205	120
206	120
207	20
222	40
223	40
224	220
225	20
242	741
243	110
278	20
292	20
306	20
348	20
376	550
377	1481
378	390
379	50
