Mass Spectrum: Sarcosine, N-(2-furoyl)-, heptyl ester
Formula: C15 H23 N O4
Molecular weight: 281
Origin: Zaikin V.G., TIPS RAS, Moscow, Russia
m/z	RELATIVE INTENSITY
27	130
28	90
29	240
38	40
39	500
40	40
41	410
42	430
43	360
44	230
51	20
53	30
55	190
56	40
57	240
58	20
66	30
67	110
68	40
81	70
88	160
95	9999
96	581
97	40
110	50
124	100
137	20
138	9018
139	951
140	70
165	110
166	140
184	210
186	480
187	40
193	20
281	811
282	120
