Mass Spectrum: .beta.-Alanine, N-isobutyryl-, dodecyl ester
Formula: C19 H37 N O3
Molecular weight: 327
Origin: Zaikin V.G., TIPS RAS, Moscow, Russia
m/z	RELATIVE INTENSITY
26	60
27	540
28	671
29	771
30	1141
31	20
39	340
40	70
41	2412
42	791
43	6976
44	991
45	60
46	50
53	110
54	220
55	2092
56	811
57	3663
58	210
59	90
60	50
67	300
68	230
69	1041
70	1702
71	4404
72	1712
73	230
74	110
75	30
77	20
79	60
81	170
82	150
83	470
84	220
85	1421
86	110
87	390
88	4404
89	240
90	1361
91	70
95	90
96	90
97	270
98	1621
99	370
100	1381
101	90
109	20
111	170
112	140
113	1802
114	540
115	1101
116	4254
117	190
118	40
125	20
126	400
127	70
128	60
130	50
131	50
132	60
135	20
139	270
140	90
141	1641
142	5315
143	450
144	130
158	110
159	240
160	4874
161	390
162	20
169	20
172	20
173	60
186	50
187	220
200	30
201	100
214	140
215	70
228	310
229	90
242	160
243	40
256	9999
257	1732
258	440
259	40
270	130
271	40
284	360
285	80
298	130
312	30
327	2432
328	631
329	70
