Mass Spectrum: Sarcosine, N-(3-methylbut-2-enoyl)-, ethyl ester
Formula: C10 H17 N O3
Molecular weight: 199
Origin: Zaikin V.G., TIPS RAS, Moscow, Russia
m/z	RELATIVE INTENSITY
27	320
28	260
29	661
30	20
39	420
40	40
41	60
42	370
43	40
44	1151
45	20
51	30
53	270
54	130
55	1401
56	40
67	60
82	911
83	9999
84	520
88	90
96	20
110	60
112	30
116	340
117	90
118	611
119	20
124	20
125	40
126	1421
127	110
153	160
154	340
155	20
170	20
184	220
199	2092
200	240
