Mass Spectrum: .beta.-Alanine, N-capryloyl-, pentyl ester
Formula: C16 H31 N O3
Molecular weight: 285
Origin: Zaikin V.G., TIPS RAS, Moscow, Russia
m/z	RELATIVE INTENSITY
26	80
27	741
28	651
29	1641
30	2873
31	80
39	430
40	100
41	2883
42	1061
43	5465
44	400
45	240
46	50
51	20
52	20
53	140
54	180
55	2192
56	611
57	4604
58	230
59	160
60	90
61	50
65	30
67	360
68	220
69	751
70	1201
71	811
72	2352
73	500
74	120
77	20
79	40
80	30
81	170
82	180
83	540
84	931
85	1511
86	220
87	3213
88	3453
89	300
90	2232
91	130
95	20
96	70
97	350
98	1631
99	250
100	280
101	50
102	50
103	60
105	20
109	210
110	40
112	190
113	3133
114	5765
115	480
116	1271
117	250
118	20
119	30
124	50
125	120
126	4384
127	2803
128	290
129	801
131	430
132	9999
133	581
134	50
136	40
137	90
140	1171
144	370
145	190
146	30
154	520
155	20
156	460
158	8388
159	3413
160	1932
161	150
168	761
169	300
170	190
171	50
172	260
173	150
182	60
186	530
187	30
196	120
197	90
198	4194
199	510
200	50
201	9749
202	1091
203	80
213	20
214	3073
215	480
216	330
228	410
229	30
242	561
243	150
256	631
257	80
270	30
284	30
285	751
286	210
