Mass Spectrum: .beta.-Alanine, N-(4-trifluoromethylbenzoyl)-, propyl ester
Formula: C14 H16 F3 N O3
Molecular weight: 303
Origin: Zaikin V.G., TIPS RAS, Moscow, Russia
m/z	RELATIVE INTENSITY
27	220
29	50
30	80
31	20
39	40
41	200
42	70
43	380
44	80
46	20
50	30
51	20
55	200
60	60
61	50
70	250
73	40
75	130
76	50
88	911
89	30
95	260
98	20
125	170
126	270
127	50
130	4384
131	290
143	20
144	80
145	3413
146	350
154	120
172	210
173	9999
174	901
175	40
187	80
189	20
198	60
200	30
201	190
202	701
203	60
214	300
215	971
216	440
217	110
243	70
244	2072
245	260
258	20
260	150
262	70
284	561
285	80
303	851
304	130
