Mass Spectrum: Sarcosine, N-(2-methoxybenzoyl)-, ethyl ester
Formula: C13 H17 N O4
Molecular weight: 251
Origin: Zaikin V.G., TIPS RAS, Moscow, Russia
m/z	RELATIVE INTENSITY
27	30
29	70
39	20
42	100
44	120
50	40
51	120
63	110
64	150
65	20
76	90
77	1051
78	100
79	80
92	571
93	50
104	20
105	100
116	130
117	380
118	30
120	130
121	40
133	40
134	40
135	9999
136	831
137	70
150	60
176	20
178	741
179	80
206	200
207	20
250	691
251	1071
252	170
253	20
