Mass Spectrum: .beta.-Alanine, N-isobutyryl-, heptyl ester
Formula: C14 H27 N O3
Molecular weight: 257
Origin: Zaikin V.G., TIPS RAS, Moscow, Russia
m/z	RELATIVE INTENSITY
26	50
27	661
28	1051
29	741
30	1221
31	20
39	400
40	100
41	2242
42	831
43	6105
44	1101
45	110
46	50
53	90
54	90
55	1011
56	440
57	6306
58	330
59	20
60	90
67	30
69	80
70	1862
71	3443
72	1782
73	540
74	200
77	30
81	30
86	30
87	250
88	4314
89	230
90	951
91	30
96	50
98	2502
99	350
100	1321
101	80
107	30
112	120
113	2092
114	631
115	731
116	6055
117	290
118	40
126	530
127	140
130	20
131	40
132	40
141	1281
142	3573
143	280
144	130
158	80
159	120
160	2082
161	140
169	200
173	110
184	20
186	9999
187	1301
188	350
201	20
212	160
214	290
215	50
228	170
229	80
242	30
257	1551
258	260
