Mass Spectrum: Sarcosine, N-cyclopropylcarbonyl-, ethyl ester
Formula: C9 H15 N O3
Molecular weight: 185
Origin: Zaikin V.G., TIPS RAS, Moscow, Russia
m/z	RELATIVE INTENSITY
27	100
28	60
29	160
39	460
40	80
41	1261
42	540
43	70
44	1862
45	40
55	240
58	20
59	20
60	30
68	250
69	9999
70	460
71	10
72	10
82	20
83	20
84	120
85	30
86	50
87	60
88	170
91	10
98	90
105	30
110	10
111	20
112	9058
113	671
114	20
116	1722
117	90
118	30
139	160
140	721
141	30
185	2652
186	240
