Mass Spectrum: Sarcosine, N-(1-naphthoyl)-, isohexyl ester
Formula: C20 H25 N O3
Molecular weight: 327
Origin: Zaikin V.G., TIPS RAS, Moscow, Russia
m/z	RELATIVE INTENSITY
41	30
42	30
43	90
44	20
55	20
75	20
77	90
85	20
88	50
101	70
126	230
127	2292
128	330
135	40
141	40
154	40
155	9999
156	1251
157	80
184	20
196	50
197	50
198	861
199	130
224	30
225	170
226	120
242	320
243	490
244	100
326	110
327	2262
328	490
329	40
