Mass Spectrum: Sarcosine, N-(3-methylbenzoyl)-, butyl ester
Formula: C15 H21 N O3
Molecular weight: 263
Origin: Zaikin V.G., TIPS RAS, Moscow, Russia
m/z	RELATIVE INTENSITY
27	30
28	30
29	80
39	70
41	90
42	100
43	60
44	50
51	30
55	20
57	30
63	60
64	20
65	360
66	20
88	50
89	130
90	130
91	1491
92	120
105	60
118	60
119	9999
120	691
121	40
144	280
145	20
146	20
148	20
160	50
161	20
162	1301
163	150
189	40
190	140
191	20
206	20
262	781
263	1591
264	320
265	30
