Mass Spectrum: .beta.-Alanine, N-capryloyl-, nonyl ester
Formula: C20 H39 N O3
Molecular weight: 341
Origin: Zaikin V.G., TIPS RAS, Moscow, Russia
m/z	RELATIVE INTENSITY
26	40
27	330
28	270
29	671
30	1271
31	20
39	220
40	60
41	1541
42	470
43	2492
44	741
45	110
46	20
53	90
54	170
55	1431
56	470
57	2873
58	130
59	160
60	50
67	250
68	160
69	601
70	661
71	621
72	1401
73	180
74	40
79	50
80	20
81	160
82	170
83	330
84	460
85	681
86	130
87	1401
88	1682
89	170
90	1692
91	70
95	70
96	90
97	250
98	671
99	110
100	180
101	80
102	30
103	20
107	20
109	120
110	40
112	130
113	1031
114	4134
115	310
116	500
117	60
118	340
124	30
125	100
126	2322
127	1401
128	130
130	120
131	260
132	9999
133	591
134	50
140	791
141	60
142	110
143	20
144	380
145	100
146	80
149	60
154	320
155	20
156	300
158	350
159	410
160	30
168	360
169	280
170	130
171	60
172	150
173	190
174	60
182	50
183	230
184	40
186	230
187	280
188	30
189	20
196	130
197	100
198	1802
199	210
200	350
201	100
214	2903
215	430
216	1531
217	160
228	160
229	30
230	310
231	20
242	140
243	110
257	1571
258	270
259	10
269	80
270	1341
271	230
284	260
285	60
298	300
299	70
312	320
313	50
314	30
326	20
340	20
341	330
342	120
