Mass Spectrum: Sarcosine, N-(4-methylbenzoyl)-, propyl ester
Formula: C14 H19 N O3
Molecular weight: 249
Origin: Zaikin V.G., TIPS RAS, Moscow, Russia
m/z	RELATIVE INTENSITY
27	40
39	80
41	80
42	110
43	110
44	40
51	30
57	20
63	60
64	20
65	380
66	20
69	20
83	20
88	40
89	140
90	140
91	1391
92	110
97	20
105	20
118	80
119	9999
120	811
121	50
130	270
131	20
133	20
134	20
146	20
148	20
160	40
162	1281
163	150
189	40
190	240
191	30
248	971
249	1501
250	280
251	30
