Mass Spectrum: Sarcosine, N-(2-fluorobenzoyl)-, propyl ester
Formula: C13 H16 F N O3
Molecular weight: 253
Origin: Zaikin V.G., TIPS RAS, Moscow, Russia
m/z	RELATIVE INTENSITY
27	50
28	10
39	20
41	70
42	230
43	180
44	60
50	20
51	20
69	50
74	20
75	310
76	30
77	20
88	40
94	100
95	1091
96	110
109	20
122	50
123	9999
124	771
125	30
130	500
131	30
146	40
147	10
152	20
164	20
165	20
166	2722
167	290
193	40
194	340
195	30
233	40
252	470
253	1621
254	270
255	20
