Mass Spectrum: Sarcosine, N-valeryl-, ethyl ester
Formula: C10 H19 N O3
Molecular weight: 201
Origin: Zaikin V.G., TIPS RAS, Moscow, Russia
m/z	RELATIVE INTENSITY
27	290
29	801
30	40
31	20
39	130
41	591
42	631
43	190
44	9999
45	240
53	30
55	160
57	1742
58	220
60	20
71	30
72	40
85	1371
86	360
87	50
88	320
98	100
100	20
113	470
114	40
116	781
117	871
118	420
126	60
128	1111
129	70
155	100
156	540
157	30
159	3003
160	220
172	220
173	20
201	330
202	40
