Mass Spectrum: Sarcosine, N-(2-thienylcarbonyl)-, propyl ester
Formula: C11 H15 N O3 S
Molecular weight: 241
Origin: Zaikin V.G., TIPS RAS, Moscow, Russia
m/z	RELATIVE INTENSITY
27	100
38	20
39	651
40	20
42	290
43	130
44	120
45	50
53	20
58	20
83	200
88	100
111	9999
112	510
113	380
114	20
130	801
131	20
140	30
154	2202
155	200
156	100
181	60
182	200
183	20
241	1141
242	160
243	70
