Mass Spectrum: Sarcosine, N-(4-bromobenzoyl)-, propyl ester
Formula: C13 H16 Br N O3
Molecular weight: 313
Origin: Zaikin V.G., TIPS RAS, Moscow, Russia
m/z	RELATIVE INTENSITY
27	160
28	10
29	20
39	50
41	220
42	771
43	801
44	170
50	410
51	80
74	150
75	991
76	1321
77	190
88	120
103	100
104	751
105	80
119	170
123	60
130	1261
131	80
147	50
155	1591
156	120
157	1611
158	100
183	9999
184	751
185	9428
186	691
226	2482
227	210
228	2402
229	200
253	20
254	160
255	40
256	150
312	631
313	851
314	741
315	871
316	110
