Mass Spectrum: .beta.-Alanine, N-(3-methylbenzoyl)-, isobutyl ester
Formula: C15 H21 N O3
Molecular weight: 263
Origin: Zaikin V.G., TIPS RAS, Moscow, Russia
m/z	RELATIVE INTENSITY
27	40
39	40
41	80
42	30
43	20
50	10
51	80
53	20
55	70
57	60
63	60
65	450
70	30
83	50
88	1031
89	250
90	160
91	1852
92	140
117	30
118	150
119	9999
120	881
135	160
136	40
144	3103
145	140
147	90
148	150
160	20
161	270
162	140
188	20
190	1401
191	50
206	160
207	40
208	280
263	871
264	40
