Mass Spectrum: .beta.-Alanine, N-(3-fluorobenzoyl)-, propyl ester
Formula: C13 H16 F N O3
Molecular weight: 253
Origin: Zaikin V.G., TIPS RAS, Moscow, Russia
m/z	RELATIVE INTENSITY
27	170
29	20
30	50
39	40
41	90
42	30
43	170
44	60
50	50
51	30
55	110
60	20
61	20
70	290
73	30
75	490
76	50
88	821
89	30
94	140
95	2552
96	230
121	30
122	210
123	9999
124	781
125	20
130	4214
131	290
137	110
139	50
140	60
148	70
150	40
151	240
152	901
153	60
164	270
165	891
166	400
167	110
192	10
193	120
194	2302
195	250
208	30
210	160
211	20
212	60
236	10
253	1421
254	220
