Mass Spectrum: .beta.-Alanine, N-caproyl-, nonyl ester
Formula: C18 H35 N O3
Molecular weight: 313
Origin: Zaikin V.G., TIPS RAS, Moscow, Russia
m/z	RELATIVE INTENSITY
26	30
27	270
28	200
29	510
30	1021
39	190
40	30
41	1071
42	340
43	2823
44	681
45	90
53	70
54	100
55	1101
56	300
57	581
58	20
59	130
60	40
67	110
68	120
69	500
70	771
71	1391
72	1331
73	190
74	50
75	20
79	20
81	110
82	60
83	190
84	280
85	731
86	140
87	1471
88	1942
89	140
90	1551
91	90
95	40
96	40
97	140
98	691
99	1571
100	220
101	70
102	40
111	30
112	50
113	951
114	4434
115	320
116	591
118	230
124	40
126	1872
127	350
128	661
129	40
130	110
131	310
132	9999
133	571
134	50
139	70
140	911
141	340
142	180
143	90
144	330
145	80
146	80
154	50
158	320
159	450
160	20
168	80
169	160
170	2272
171	240
172	140
173	130
186	230
187	130
188	1271
189	120
198	20
200	350
201	90
214	3723
215	550
216	300
228	170
229	20
236	110
242	190
243	20
256	70
257	1852
258	280
270	1071
271	180
284	420
285	40
313	220
314	40
