Mass Spectrum: .beta.-Alanine, N-(4-butylbenzoyl)-, isohexyl ester
Formula: C20 H31 N O3
Molecular weight: 333
Origin: Zaikin V.G., TIPS RAS, Moscow, Russia
m/z	RELATIVE INTENSITY
27	60
29	110
39	60
41	220
42	40
43	540
55	260
56	70
57	120
63	20
65	80
67	20
69	110
70	120
71	60
72	20
73	20
77	80
78	40
79	40
82	30
83	90
84	70
85	130
88	2322
89	200
90	410
91	1171
92	110
97	40
98	50
101	30
102	20
103	110
104	100
105	170
106	70
107	20
115	70
116	50
117	60
118	510
119	300
120	20
125	30
127	40
131	240
132	70
133	90
134	50
135	20
143	90
145	40
146	60
147	10
148	30
159	110
160	100
161	9999
162	1281
163	100
172	3613
173	390
174	30
177	30
178	40
186	30
188	20
189	340
190	90
192	20
202	90
203	410
204	370
205	240
206	30
231	40
232	891
233	130
245	40
248	410
249	160
250	1551
251	230
332	40
333	1041
334	220
