Mass Spectrum: .beta.-Alanine, N-(1-naphthoyl)-, ethyl ester
Formula: C16 H17 N O3
Molecular weight: 271
Origin: Zaikin V.G., TIPS RAS, Moscow, Russia
m/z	RELATIVE INTENSITY
27	60
28	40
29	120
44	50
50	30
51	80
55	30
63	50
64	30
70	40
73	20
74	100
75	140
76	90
77	380
78	30
87	30
88	30
99	40
100	20
101	260
102	60
113	20
114	30
115	100
116	1842
117	110
123	20
125	50
126	731
127	5265
128	931
129	100
140	20
141	90
142	30
143	40
152	30
153	130
154	200
155	9999
156	1511
157	120
166	20
168	30
169	130
170	450
171	220
180	90
181	30
182	450
183	801
184	430
185	50
196	70
197	300
198	130
199	40
214	30
225	60
226	881
227	120
242	130
243	60
254	100
270	170
271	3423
272	651
273	60
