Mass Spectrum: Sarcosine, N-(4-methylbenzoyl)-, isohexyl ester
Formula: C17 H25 N O3
Molecular weight: 291
Origin: Zaikin V.G., TIPS RAS, Moscow, Russia
m/z	RELATIVE INTENSITY
27	30
29	40
39	50
41	100
42	80
43	210
44	50
51	20
55	60
56	20
57	30
63	40
65	260
69	20
77	20
85	20
88	100
89	100
90	110
91	1111
92	100
105	40
118	70
119	9999
120	791
121	50
133	110
134	30
136	30
137	30
148	50
160	40
162	1872
163	230
172	280
173	30
189	70
190	120
203	30
206	170
207	50
208	140
290	811
291	1461
292	320
293	40
