Mass Spectrum: .beta.-Alanine, N-(2-methylbenzoyl)-, hexyl ester
Formula: C17 H25 N O3
Molecular weight: 291
Origin: Zaikin V.G., TIPS RAS, Moscow, Russia
m/z	RELATIVE INTENSITY
26	10
27	90
28	40
29	110
30	60
39	120
41	250
42	70
43	370
44	50
51	40
53	20
55	170
56	70
57	70
63	70
64	20
65	480
66	20
67	20
69	40
70	100
71	20
73	30
77	40
83	40
84	20
85	30
87	30
88	470
89	230
90	561
91	2282
92	210
93	20
97	20
98	10
104	20
105	30
106	30
107	20
116	70
117	80
118	9999
119	7337
120	631
121	40
132	30
133	30
134	70
135	60
136	80
144	30
146	170
147	250
148	130
160	70
161	190
162	120
163	110
172	2442
173	260
189	961
190	711
191	90
192	30
206	60
207	80
208	170
276	100
290	20
291	1972
292	410
293	40
