Mass Spectrum: Sarcosine, n-hexanoyl-, octyl ester
Formula: C17 H33 N O3
Molecular weight: 299
Origin: Zaikin V.G., TIPS RAS, Moscow, Russia
m/z	RELATIVE INTENSITY
27	190
29	480
30	20
39	140
40	30
41	911
42	530
43	2092
44	9999
45	280
53	50
54	30
55	490
56	180
57	430
58	20
65	60
67	40
68	60
69	160
70	80
71	941
72	80
75	20
77	50
85	30
86	300
87	1381
88	621
89	140
90	821
91	190
92	30
93	10
98	110
99	1171
100	170
102	30
103	30
112	60
113	721
114	260
115	50
116	100
117	80
118	260
119	370
120	20
126	180
128	30
130	80
131	220
132	3053
133	200
134	20
135	20
136	581
137	300
140	80
141	20
142	1081
143	150
144	160
145	50
146	20
154	20
155	130
156	20
157	40
158	130
159	250
160	20
168	20
169	410
170	350
171	60
172	60
173	90
183	30
185	150
186	430
187	80
188	120
195	20
200	1121
201	681
202	561
203	60
214	450
215	100
228	20
240	40
243	2552
244	370
245	20
256	591
257	130
270	190
271	30
284	20
298	20
299	540
300	150
