Mass Spectrum: Sarcosine, N-isobutyryl-, propyl ester
Formula: C10 H19 N O3
Molecular weight: 201
Origin: Zaikin V.G., TIPS RAS, Moscow, Russia
m/z	RELATIVE INTENSITY
27	450
28	90
29	240
30	20
31	20
39	250
40	40
41	1031
42	931
43	4474
44	9999
45	400
53	60
55	180
56	60
57	240
58	50
60	60
69	130
70	320
71	3093
72	200
73	20
83	20
84	20
86	20
87	70
88	1451
89	30
90	140
99	30
100	100
112	20
113	30
114	3994
115	480
116	440
126	20
130	1411
131	260
132	941
133	50
141	230
142	1161
143	70
144	70
159	60
173	170
201	3693
202	410
