Mass Spectrum: Sarcosine, N-(2-furoyl)-, hexyl ester
Formula: C14 H21 N O4
Molecular weight: 267
Origin: Zaikin V.G., TIPS RAS, Moscow, Russia
m/z	RELATIVE INTENSITY
27	120
28	60
29	160
38	50
39	500
40	40
41	280
42	400
43	330
44	210
51	20
53	30
55	40
66	30
67	100
81	50
88	160
95	9999
96	571
110	30
124	80
137	30
138	8358
139	871
140	60
165	100
166	140
172	500
173	40
179	20
184	120
267	1171
268	180
