Mass Spectrum: .beta.-Alanine, N-caproyl-, octyl ester
Formula: C17 H33 N O3
Molecular weight: 299
Origin: Zaikin V.G., TIPS RAS, Moscow, Russia
m/z	RELATIVE INTENSITY
26	20
27	190
29	330
30	651
39	180
41	991
42	360
43	2062
44	651
51	20
53	80
54	100
55	921
56	260
57	891
59	100
60	40
67	90
68	150
69	510
70	530
71	1281
72	1051
73	150
74	30
75	30
77	50
79	40
80	30
81	70
82	80
83	220
84	310
85	540
86	70
87	1371
88	1842
89	180
90	1391
91	70
92	40
95	40
96	50
97	170
98	701
99	1491
100	160
101	40
112	140
113	1141
114	4144
115	330
116	601
117	90
124	20
126	1742
127	300
128	540
130	170
131	310
132	9999
133	601
134	30
135	20
137	40
139	210
140	951
141	641
142	140
143	40
144	340
145	80
146	60
154	70
155	50
158	230
159	410
168	50
169	70
170	2252
171	160
172	200
173	120
186	210
187	100
188	901
189	60
198	20
200	4324
201	611
202	310
207	40
214	180
215	110
228	150
243	2162
244	240
256	1261
257	170
270	530
271	30
284	20
299	250
300	20
