Mass Spectrum: Sarcosine, N-(4-ethylbenzoyl)-, pentyl ester
Formula: C17 H25 N O3
Molecular weight: 291
Origin: Zaikin V.G., TIPS RAS, Moscow, Russia
m/z	RELATIVE INTENSITY
27	30
28	10
29	40
39	30
41	60
42	70
43	120
44	50
51	30
63	20
65	20
77	290
78	70
79	340
80	20
88	40
89	60
90	100
91	50
103	270
104	140
105	470
106	50
118	30
119	20
131	70
132	70
133	9999
134	941
135	70
147	30
148	20
158	320
162	20
174	50
176	1241
177	170
203	60
204	120
220	20
290	821
291	1431
292	320
293	40
