Mass Spectrum: Sarcosine, N-(2-methoxybenzoyl)-, pentyl ester
Formula: C16 H23 N O4
Molecular weight: 293
Origin: Zaikin V.G., TIPS RAS, Moscow, Russia
m/z	RELATIVE INTENSITY
27	20
29	60
39	20
41	70
42	80
43	150
44	150
51	40
55	20
63	40
64	80
76	50
77	741
78	70
88	50
92	370
93	30
105	40
120	110
121	40
134	210
135	9999
136	821
137	70
150	60
158	210
159	280
160	30
164	20
178	821
179	90
205	20
206	110
292	661
293	1171
294	210
295	20
