Mass Spectrum: Sarcosine, N-(4-methoxybenzoyl)-, butyl ester
Formula: C15 H21 N O4
Molecular weight: 279
Origin: Zaikin V.G., TIPS RAS, Moscow, Russia
m/z	RELATIVE INTENSITY
29	50
39	20
41	50
42	50
43	20
44	40
50	10
57	20
63	50
64	120
65	20
76	60
77	500
78	40
79	20
88	20
92	440
93	30
104	50
105	20
107	250
108	20
120	30
121	20
133	20
135	9999
136	761
137	60
144	150
150	50
152	50
176	20
178	621
179	70
205	40
206	100
278	360
279	611
280	110
