Mass Spectrum: .beta.-Alanine, N-isobutyryl-, propyl ester
Formula: C10 H19 N O3
Molecular weight: 201
Origin: Zaikin V.G., TIPS RAS, Moscow, Russia
m/z	RELATIVE INTENSITY
26	110
27	1661
28	1601
29	420
30	1992
31	150
38	30
39	631
40	150
41	2582
42	931
43	9999
44	1611
45	240
46	70
54	60
55	1151
56	470
57	50
58	70
59	80
60	260
61	80
68	20
69	190
70	2562
71	4604
72	2062
73	500
74	671
84	150
85	180
86	30
87	130
88	2242
89	150
90	260
96	70
98	8948
99	641
100	1712
101	70
112	230
113	1631
114	400
115	330
116	8528
117	410
118	30
126	601
127	20
130	9549
131	711
132	420
140	40
141	561
142	5665
143	440
144	50
158	611
159	160
160	280
201	2162
202	310
