Mass Spectrum: Sarcosine, N-(4-methylbenzoyl)-, pentyl ester
Formula: C16 H23 N O3
Molecular weight: 277
Origin: Zaikin V.G., TIPS RAS, Moscow, Russia
m/z	RELATIVE INTENSITY
27	30
29	60
39	70
41	110
42	110
43	160
44	60
51	20
55	40
57	20
58	10
63	50
64	20
65	340
66	20
69	20
71	20
83	20
88	70
89	120
90	130
91	1331
92	110
97	20
105	30
118	80
119	9999
120	861
121	50
134	20
148	20
158	350
159	30
160	50
162	1762
163	200
189	70
190	130
206	20
276	851
277	1451
278	290
279	30
