Mass Spectrum: l-Leucine, N-ethoxycarbonyl-N-methyl-, octadecyl ester
Formula: C28 H55 N O4
Molecular weight: 469
Origin: Zaikin V.G., TIPS RAS, Moscow, Russia
m/z	RELATIVE INTENSITY
29	100
41	60
42	80
43	220
44	50
55	100
56	60
57	260
58	150
69	70
70	30
71	90
72	20
82	30
83	40
84	40
85	50
86	50
88	150
97	30
98	30
100	200
102	30
115	20
116	160
128	80
129	20
143	20
144	230
156	40
172	9999
173	951
174	80
199	10
200	170
201	50
218	20
412	20
