Mass Spectrum: Sarcosine, N-(2-furoyl)-, octyl ester
Formula: C16 H25 N O4
Molecular weight: 295
Origin: Zaikin V.G., TIPS RAS, Moscow, Russia
m/z	RELATIVE INTENSITY
27	120
28	90
29	230
38	40
39	460
40	40
41	460
42	420
43	410
44	280
51	20
53	40
55	200
56	40
57	160
66	30
67	110
68	40
69	60
71	70
81	70
82	20
88	190
95	9859
96	591
97	20
110	60
124	110
137	30
138	9999
139	1111
140	90
165	140
166	160
184	300
185	20
200	510
201	50
207	20
267	20
295	771
296	130
