Mass Spectrum: .beta.-Alanine, N-(4-methoxybenzoyl)-, propyl ester
Formula: C14 H19 N O4
Molecular weight: 265
Origin: Zaikin V.G., TIPS RAS, Moscow, Russia
m/z	RELATIVE INTENSITY
27	90
28	10
29	30
38	20
39	50
41	90
42	30
43	110
44	30
50	40
51	40
53	20
55	60
63	110
64	210
65	40
70	40
75	30
76	90
77	761
78	70
79	40
88	260
91	20
92	621
93	50
103	60
104	70
105	30
106	30
107	400
108	50
119	30
120	60
121	40
122	20
129	30
130	2472
131	160
133	40
134	80
135	9999
136	851
137	70
151	150
160	30
162	20
163	80
164	70
176	40
177	120
178	110
179	80
206	821
207	90
222	180
223	50
248	70
264	40
265	821
266	130
