Mass Spectrum: .beta.-Alanine, N-(2-furoyl)-, undecyl ester
Formula: C19 H31 N O4
Molecular weight: 337
Origin: Zaikin V.G., TIPS RAS, Moscow, Russia
m/z	RELATIVE INTENSITY
26	30
27	220
28	190
29	490
30	150
38	50
39	701
40	70
41	1161
42	280
43	1461
44	150
46	30
51	20
53	90
54	100
55	1141
56	290
57	891
58	20
66	60
67	270
68	250
69	450
70	811
71	330
72	40
73	40
79	30
80	40
81	140
82	160
83	140
84	50
85	180
87	110
88	3753
89	130
90	70
93	30
94	180
95	9999
96	651
97	80
98	70
99	50
108	30
109	621
110	280
111	500
112	611
113	50
116	70
120	40
122	30
123	20
124	4394
125	380
126	30
130	30
136	150
137	2893
138	3043
139	1371
140	70
142	10
154	130
155	30
164	390
165	611
166	5295
167	641
168	80
182	430
183	400
184	2913
185	290
186	50
197	30
200	30
210	20
211	160
214	20
224	20
225	70
238	90
239	60
242	6516
243	1021
244	80
252	210
253	70
266	130
267	60
280	110
281	30
294	90
295	30
308	150
309	90
319	10
337	3083
338	711
339	80
