Mass Spectrum: .beta.-Alanine, N-(3-cyclopentylpropionyl)-, propyl ester
Formula: C14 H25 N O3
Molecular weight: 255
Origin: Zaikin V.G., TIPS RAS, Moscow, Russia
m/z	RELATIVE INTENSITY
26	90
27	991
29	681
30	4094
31	120
38	20
39	751
40	160
41	2963
42	500
43	2612
44	2012
45	160
46	60
51	30
52	20
53	430
54	490
55	3954
56	130
58	40
59	270
60	180
61	100
65	100
66	120
67	1341
68	290
69	611
70	1772
72	2232
73	540
74	220
77	80
78	20
79	1071
80	360
81	1261
82	60
84	390
85	1852
86	290
87	2292
88	1812
89	240
90	691
91	80
93	60
94	50
95	621
96	440
97	70
98	1521
99	150
100	200
101	40
102	30
103	60
105	20
107	1241
108	110
113	4904
114	2152
115	260
116	951
117	30
122	20
124	400
125	1702
126	4924
127	791
128	90
129	30
130	6956
131	1371
132	3583
133	140
139	200
141	70
142	30
143	20
144	210
145	210
152	130
153	90
154	751
155	90
158	80
166	100
167	290
168	140
169	20
173	9999
174	901
175	80
183	120
185	90
186	4304
187	641
188	40
194	20
195	70
196	5125
197	520
198	50
199	20
214	30
255	160
256	140
