Mass Spectrum: Sarcosine, N-(3-cyclopentylpropionyl)-, isobutyl ester
Formula: C15 H27 N O3
Molecular weight: 269
Origin: Zaikin V.G., TIPS RAS, Moscow, Russia
m/z	RELATIVE INTENSITY
27	130
29	360
30	20
39	210
40	40
41	1041
42	460
43	360
44	9999
45	360
53	140
54	110
55	1641
56	80
57	420
58	300
65	20
66	20
67	380
68	80
69	380
71	70
72	70
77	30
79	480
80	100
81	550
82	30
86	661
87	981
88	691
89	230
90	530
91	70
95	180
96	90
97	340
98	190
99	70
100	110
107	791
108	60
113	1191
114	100
116	30
124	60
125	581
126	410
127	100
130	80
131	370
132	1672
133	80
144	1091
145	1541
146	631
147	30
154	20
168	701
169	60
172	20
187	5265
188	540
189	30
195	80
196	991
197	100
200	1031
201	130
226	30
254	40
269	110
270	30
