Mass Spectrum: .beta.-Alanine, N-(4-methylbenzoyl)-, ethyl ester
Formula: C13 H17 N O3
Molecular weight: 235
Origin: Zaikin V.G., TIPS RAS, Moscow, Russia
m/z	RELATIVE INTENSITY
27	60
29	80
30	20
39	110
50	20
51	60
62	20
63	130
64	40
65	701
66	30
70	160
74	80
77	30
88	50
89	280
90	260
91	2322
92	190
93	20
105	20
115	30
116	3253
117	230
118	270
119	9999
120	871
121	50
132	20
135	60
136	20
144	60
146	70
147	140
148	250
149	20
160	100
161	230
162	170
163	60
187	20
188	30
189	30
190	991
191	110
206	260
207	30
218	120
234	70
235	881
236	130
