Mass Spectrum: Sarcosine, N-valeryl-, pentyl ester
Formula: C13 H25 N O3
Molecular weight: 243
Origin: Zaikin V.G., TIPS RAS, Moscow, Russia
m/z	RELATIVE INTENSITY
27	190
28	240
29	621
30	20
39	140
40	20
41	841
42	520
43	771
44	9999
45	280
53	40
54	20
55	360
56	90
57	1581
58	90
60	20
68	20
69	140
70	70
71	190
72	40
82	20
83	110
84	60
85	1231
86	300
87	751
88	470
89	40
90	210
97	60
98	70
99	50
100	20
111	20
112	30
113	380
114	80
116	30
126	50
127	20
128	841
129	70
131	30
132	210
144	20
155	100
156	140
158	330
159	280
160	130
201	721
202	60
214	50
243	60
