Mass Spectrum: Sarcosine, N-(1-naphthoyl)-, butyl ester
Formula: C18 H21 N O3
Molecular weight: 299
Origin: Zaikin V.G., TIPS RAS, Moscow, Russia
m/z	RELATIVE INTENSITY
29	50
41	40
42	40
43	10
44	20
51	20
57	20
74	20
75	50
76	30
77	160
88	30
101	120
102	20
125	20
126	370
127	3013
128	380
129	20
141	40
144	180
154	40
155	9999
156	1081
157	80
184	50
196	50
197	70
198	601
199	100
224	80
225	150
226	160
227	20
242	60
243	20
298	230
299	1872
300	370
301	40
