Mass Spectrum: .beta.-Alanine, N-(2-methylbenzoyl)-, butyl ester
Formula: C15 H21 N O3
Molecular weight: 263
Origin: Zaikin V.G., TIPS RAS, Moscow, Russia
m/z	RELATIVE INTENSITY
26	20
27	110
28	80
29	220
30	60
39	170
40	20
41	250
42	40
43	110
44	60
50	20
51	70
52	20
53	10
55	160
56	50
57	130
62	20
63	120
64	40
65	711
66	40
69	20
70	100
73	50
77	50
83	30
88	380
89	320
90	761
91	3013
92	270
93	20
97	20
98	20
104	40
105	40
106	40
107	20
116	80
117	100
118	9999
119	8327
120	711
121	40
132	40
133	30
134	70
135	60
136	60
144	2392
145	210
146	220
147	250
148	160
160	80
161	160
162	100
163	50
189	741
190	1141
191	140
192	20
206	40
207	40
208	40
248	90
262	10
263	2202
264	370
265	30
