Mass Spectrum: Sarcosine, N-isobutyryl-, butyl ester
Formula: C11 H21 N O3
Molecular weight: 215
Origin: Zaikin V.G., TIPS RAS, Moscow, Russia
m/z	RELATIVE INTENSITY
27	190
28	100
29	250
39	160
40	30
41	771
42	681
43	2953
44	9999
45	260
55	160
56	80
57	320
58	30
60	40
69	100
70	210
71	2762
72	180
73	20
86	20
87	40
88	1191
89	50
90	150
98	30
100	70
112	30
113	30
114	3964
115	340
116	420
126	20
141	260
142	721
143	40
144	1501
145	250
146	991
147	70
187	150
215	3133
216	410
217	30
