Mass Spectrum: Sarcosine, N-(2-chlorobenzoyl)-, hexyl ester
Formula: C16 H22 Cl N O3
Molecular weight: 311
Origin: Zaikin V.G., TIPS RAS, Moscow, Russia
m/z	RELATIVE INTENSITY
29	20
39	20
41	100
42	140
43	250
44	70
50	30
51	30
55	70
56	20
57	20
74	20
75	290
76	70
77	80
85	40
88	90
91	30
104	30
105	80
110	30
111	1041
112	110
113	350
114	20
120	20
133	20
138	30
139	9999
140	811
141	3393
142	250
146	70
147	20
168	40
170	20
172	781
180	30
182	3313
183	420
184	1181
185	140
192	30
209	90
210	140
211	40
212	40
226	70
228	190
230	50
276	110
310	951
311	1561
312	631
313	540
314	100
