Mass Spectrum: Sarcosine, N-valeryl-, undecyl ester
Formula: C19 H37 N O3
Molecular weight: 327
Origin: Zaikin V.G., TIPS RAS, Moscow, Russia
m/z	RELATIVE INTENSITY
27	120
28	190
29	480
39	90
41	871
42	380
43	951
44	9999
45	270
53	30
54	50
55	631
56	180
57	1742
58	90
67	60
68	40
69	200
70	80
71	110
72	20
81	20
82	40
83	130
84	60
85	1241
86	380
87	1301
88	621
89	80
90	911
91	30
97	70
98	90
100	70
103	60
111	10
112	20
113	851
114	330
115	20
116	90
126	110
128	2092
129	250
130	20
131	240
132	2582
133	130
141	40
144	80
145	20
155	370
156	270
158	50
159	180
172	30
173	40
174	200
186	80
187	20
197	70
200	100
201	20
214	80
228	60
242	701
243	330
244	180
256	40
285	1011
286	150
298	150
299	20
327	130
328	20
