Mass Spectrum: .beta.-Alanine, N-capryloyl-, pentadecyl ester
Formula: C26 H51 N O3
Molecular weight: 425
Origin: Zaikin V.G., TIPS RAS, Moscow, Russia
m/z	RELATIVE INTENSITY
26	40
27	240
28	180
29	470
30	921
39	220
40	40
41	1221
42	370
43	2502
44	611
45	70
51	30
53	90
54	200
55	1551
56	480
57	3203
58	120
59	170
60	30
67	330
68	240
69	841
70	430
71	581
72	1281
73	170
74	40
75	50
77	30
79	50
80	30
81	210
82	230
83	591
84	380
85	591
86	100
87	1231
88	1391
89	120
90	2032
91	140
92	50
93	30
95	120
96	130
97	400
98	490
99	90
100	160
101	30
102	20
103	20
105	30
109	130
110	40
111	290
112	120
113	611
114	4494
115	280
116	430
117	40
121	20
123	20
124	20
125	110
126	1992
127	1341
128	210
129	30
130	100
131	250
132	9999
133	591
134	50
135	20
139	220
140	540
141	130
142	70
143	30
144	440
145	60
146	90
154	310
155	50
156	340
157	90
158	160
159	280
160	20
166	20
168	310
169	160
170	120
171	80
172	130
173	100
182	70
183	30
184	20
186	200
187	70
196	120
197	110
198	2793
199	340
200	330
201	100
207	30
210	40
212	20
214	260
215	60
216	2843
217	310
228	230
229	40
242	250
243	120
256	270
257	70
270	290
271	50
284	380
285	120
298	3353
299	681
300	581
301	70
312	320
313	50
326	180
327	30
340	120
341	1992
342	400
354	1722
355	370
356	20
368	230
369	50
382	400
383	120
396	450
397	80
410	20
424	30
425	781
426	210
