Mass Spectrum: Sarcosine, N-valeryl-, decyl ester
Formula: C18 H35 N O3
Molecular weight: 313
Origin: Zaikin V.G., TIPS RAS, Moscow, Russia
m/z	RELATIVE INTENSITY
27	130
29	500
39	110
41	1081
42	460
43	1191
44	9999
45	300
53	50
54	70
55	851
56	300
57	2322
58	110
60	80
61	150
67	90
68	70
69	340
70	180
71	290
72	40
73	80
81	40
82	90
83	290
84	140
85	2022
86	520
87	1782
88	881
89	120
90	1151
91	40
95	20
96	40
97	180
98	160
99	50
100	130
101	30
102	100
103	380
111	90
112	70
113	1271
114	520
115	60
116	150
125	30
126	200
127	40
128	3663
129	470
130	40
131	420
132	4524
133	250
140	70
144	160
145	40
151	20
155	751
156	581
157	40
158	120
159	190
172	70
173	110
174	380
175	20
183	210
184	30
185	40
186	240
187	70
200	290
201	80
214	230
215	50
224	20
228	2322
229	1141
230	691
231	70
242	190
243	20
256	70
271	4504
272	701
273	60
284	701
285	150
298	60
312	20
313	761
314	250
315	20
