Mass Spectrum: .beta.-Alanine, N-(3-trifluoromethylbenzoyl)-, ethyl ester
Formula: C13 H14 F3 N O3
Molecular weight: 289
Origin: Zaikin V.G., TIPS RAS, Moscow, Russia
m/z	RELATIVE INTENSITY
27	170
29	280
30	60
42	50
44	30
45	30
50	60
51	40
55	70
60	20
70	220
73	80
74	180
75	200
76	60
77	30
88	80
95	400
96	20
98	80
99	20
101	90
102	80
103	20
107	20
116	4934
117	290
118	60
119	30
125	260
126	250
127	40
130	210
143	20
144	80
145	2983
146	400
148	30
150	40
152	70
154	80
170	30
172	180
173	9999
174	861
175	30
176	20
181	20
182	230
190	50
196	60
198	60
201	80
202	480
203	30
214	150
215	571
216	150
217	20
220	60
243	30
244	1511
245	180
289	330
290	30
