Mass Spectrum: Sarcosine, N-(4-fluorobenzoyl)-, propyl ester
Formula: C13 H16 F N O3
Molecular weight: 253
Origin: Zaikin V.G., TIPS RAS, Moscow, Russia
m/z	RELATIVE INTENSITY
27	40
39	30
41	70
42	200
43	150
44	40
50	50
51	20
74	40
75	340
76	60
88	50
94	90
95	1491
96	130
109	20
122	40
123	9999
124	731
125	60
130	400
131	30
136	20
146	40
152	20
157	20
164	40
166	2012
167	210
193	50
194	250
195	30
252	1031
253	1071
254	200
