Mass Spectrum: .beta.-Alanine, N-(1-naphthoyl)-, hexyl ester
Formula: C20 H25 N O3
Molecular weight: 327
Origin: Zaikin V.G., TIPS RAS, Moscow, Russia
m/z	RELATIVE INTENSITY
27	70
28	40
29	110
30	10
39	60
41	210
42	60
43	320
44	50
51	40
55	140
56	80
57	40
63	30
69	30
70	90
74	30
75	90
76	40
77	250
78	20
83	10
84	20
85	30
87	30
88	701
89	30
98	20
99	20
101	150
102	30
115	80
116	20
125	30
126	480
127	4204
128	741
129	90
140	20
141	90
142	30
143	60
152	20
153	110
154	200
155	9999
156	1581
157	120
168	20
169	120
170	510
171	270
172	1782
173	190
180	90
181	30
182	430
183	1131
184	550
185	50
196	70
197	400
198	270
199	330
200	30
208	20
224	70
225	110
226	480
227	50
242	200
243	390
244	130
270	20
271	20
285	20
298	40
299	50
310	90
326	140
327	2963
328	661
329	70
