Mass Spectrum: Sarcosine, N-(1-naphthoyl)-, propyl ester
Formula: C17 H19 N O3
Molecular weight: 285
Origin: Zaikin V.G., TIPS RAS, Moscow, Russia
m/z	RELATIVE INTENSITY
27	20
41	30
42	50
43	50
44	20
51	30
63	20
74	20
75	70
76	30
77	190
88	20
99	30
101	150
102	20
125	20
126	430
127	3303
128	430
129	20
130	170
141	40
153	20
154	50
155	9999
156	1141
157	80
168	10
184	40
196	60
197	60
198	641
199	90
224	70
225	130
226	250
227	30
242	40
284	290
285	2322
286	440
287	50
