Mass Spectrum: .beta.-Alanine, N-(4-methylbenzoyl)-, isohexyl ester
Formula: C17 H25 N O3
Molecular weight: 291
Origin: Zaikin V.G., TIPS RAS, Moscow, Russia
m/z	RELATIVE INTENSITY
27	70
29	100
30	20
39	100
41	180
42	40
43	470
44	80
51	20
53	20
56	30
57	20
63	70
64	20
65	340
66	20
69	40
77	20
84	40
85	90
87	20
88	1812
89	230
90	170
91	1501
92	140
93	30
98	100
105	20
118	200
119	9999
120	711
121	50
127	30
135	40
144	30
146	60
147	180
148	260
160	80
161	380
162	310
163	170
164	20
172	2042
173	190
189	40
190	751
191	80
192	20
203	30
206	210
208	971
209	110
291	470
292	80
