Mass Spectrum: .beta.-Alanine, N-(2-furoyl)-, butyl ester
Formula: C12 H17 N O4
Molecular weight: 239
Origin: Zaikin V.G., TIPS RAS, Moscow, Russia
m/z	RELATIVE INTENSITY
26	20
27	210
29	540
30	40
38	100
39	941
40	60
41	380
42	50
46	30
51	30
53	30
55	120
56	30
57	260
66	60
67	100
68	50
70	490
80	20
82	50
88	1221
89	20
94	200
95	9999
96	591
109	530
110	50
111	320
112	120
120	50
124	2192
125	100
136	120
137	1261
138	1581
139	230
144	3863
145	300
164	230
165	190
166	1641
167	140
182	140
184	50
210	20
239	1802
240	300
241	20
