Mass Spectrum: .beta.-Alanine, N-(3-methoxybenzoyl)-, isobutyl ester
Formula: C15 H21 N O4
Molecular weight: 279
Origin: Zaikin V.G., TIPS RAS, Moscow, Russia
m/z	RELATIVE INTENSITY
27	80
29	230
30	30
39	110
41	420
42	50
43	410
45	20
50	30
51	50
53	40
54	20
55	50
56	20
57	651
63	130
64	260
65	50
69	30
70	40
71	220
74	40
75	30
76	170
77	1131
78	160
79	60
85	100
88	1762
89	80
90	20
91	50
92	1051
93	80
94	20
97	921
98	450
99	50
103	50
104	90
105	60
106	50
107	1661
108	240
109	60
110	20
119	40
120	30
121	170
122	20
126	60
133	110
134	180
135	9999
136	1181
137	50
142	220
143	60
144	3703
145	240
146	20
148	20
149	90
150	110
151	200
160	50
161	20
162	140
163	470
164	270
165	20
176	180
177	581
178	410
179	160
193	20
204	30
206	1832
207	190
222	260
223	130
224	200
278	20
279	2022
280	270
281	20
