Mass Spectrum: .beta.-Alanine, N-(2-furoyl)-, isobutyl ester
Formula: C12 H17 N O4
Molecular weight: 239
Origin: Zaikin V.G., TIPS RAS, Moscow, Russia
m/z	RELATIVE INTENSITY
27	200
28	150
29	390
30	100
38	120
39	1011
40	80
41	510
42	100
43	230
44	70
46	20
51	40
52	20
53	20
54	20
55	340
56	80
57	561
65	40
66	70
67	200
68	120
70	410
71	90
74	20
80	30
81	70
82	60
87	20
88	1932
89	70
91	260
92	80
93	30
94	150
95	9999
96	631
98	40
108	20
109	380
110	140
111	380
112	260
113	90
119	20
120	40
124	2642
125	160
126	30
136	270
137	1241
138	1411
139	220
140	20
144	2873
145	230
154	60
157	80
164	150
165	210
166	2442
167	210
182	120
183	70
184	190
239	1862
240	240
