Mass Spectrum: .beta.-Alanine, N-(2-methylbenzoyl)-, isohexyl ester
Formula: C17 H25 N O3
Molecular weight: 291
Origin: Zaikin V.G., TIPS RAS, Moscow, Russia
m/z	RELATIVE INTENSITY
26	20
27	130
28	60
29	160
30	80
39	150
40	20
41	320
42	70
43	761
44	70
45	10
50	20
51	80
52	20
53	40
54	20
55	220
56	80
57	120
62	10
63	90
64	40
65	571
66	30
67	20
68	10
69	120
70	100
71	50
72	40
73	30
76	10
77	180
78	20
79	10
81	10
82	10
83	50
84	60
85	130
88	1181
89	290
90	581
91	2572
92	240
93	30
97	30
98	20
103	10
104	40
105	601
106	70
107	20
111	10
116	70
117	100
118	9999
119	8568
120	731
121	50
125	10
127	50
130	10
131	10
132	40
133	40
134	120
135	80
136	210
137	80
144	20
145	10
146	200
147	400
148	210
149	40
160	80
161	200
162	140
163	90
164	20
165	20
172	1852
173	180
174	10
176	50
177	10
188	10
189	1001
190	871
191	150
192	160
193	10
194	20
206	100
207	601
208	480
209	50
219	20
220	70
221	10
276	40
277	20
291	1672
292	290
293	20
