Mass Spectrum: Sarcosine, N-(4-methoxybenzoyl)-, heptyl ester
Formula: C18 H27 N O4
Molecular weight: 321
Origin: Zaikin V.G., TIPS RAS, Moscow, Russia
m/z	RELATIVE INTENSITY
41	30
42	20
43	40
44	50
55	20
57	30
64	30
76	20
77	260
78	20
88	10
91	20
92	230
104	20
105	30
107	160
133	20
135	9999
136	871
137	60
150	40
164	20
176	30
178	1071
179	150
186	250
187	20
204	110
205	100
206	80
320	801
321	1311
322	270
323	20
