Mass Spectrum: Sarcosine, N-(3-methoxybenzoyl)-, ethyl ester
Formula: C13 H17 N O4
Molecular weight: 251
Origin: Zaikin V.G., TIPS RAS, Moscow, Russia
m/z	RELATIVE INTENSITY
27	50
28	40
29	100
38	30
39	40
42	170
44	80
50	70
51	60
53	20
62	20
63	190
64	380
65	60
75	40
76	170
77	1021
78	110
79	50
88	20
89	30
92	931
93	70
104	40
105	20
106	20
107	1281
108	140
116	430
117	20
119	20
120	40
121	701
122	60
133	30
134	20
135	9999
136	871
137	70
150	10
164	20
176	50
178	691
179	80
205	20
206	200
207	20
250	430
251	1752
252	330
253	30
