Mass Spectrum: Sarcosine, N-(2-furoyl)-, propyl ester
Formula: C11 H15 N O4
Molecular weight: 225
Origin: Zaikin V.G., TIPS RAS, Moscow, Russia
m/z	RELATIVE INTENSITY
27	180
28	10
29	60
38	100
39	691
40	50
41	220
42	500
43	310
44	200
51	30
53	30
55	30
66	40
67	140
68	50
69	20
81	60
82	20
83	20
88	90
95	9999
96	571
97	50
110	60
124	50
130	360
131	20
138	4574
139	400
140	30
165	40
166	220
225	1191
226	160
