Mass Spectrum: Sarcosine, N-(3-methylbenzoyl)-, propyl ester
Formula: C14 H19 N O3
Molecular weight: 249
Origin: Zaikin V.G., TIPS RAS, Moscow, Russia
m/z	RELATIVE INTENSITY
27	40
29	20
39	80
41	100
42	120
43	120
44	50
51	30
55	20
63	70
64	20
65	460
66	20
69	20
70	20
83	20
84	20
88	40
89	170
90	150
91	1712
92	130
95	50
97	20
118	70
119	9999
120	741
121	40
123	200
130	280
131	20
146	30
160	50
162	1231
163	140
189	30
190	230
191	30
248	831
249	1692
250	330
251	30
