Mass Spectrum: Sarcosine, N-(2-furoyl)-, butyl ester
Formula: C12 H17 N O4
Molecular weight: 239
Origin: Zaikin V.G., TIPS RAS, Moscow, Russia
m/z	RELATIVE INTENSITY
27	120
28	110
29	270
38	80
39	641
40	40
41	220
42	430
43	120
44	150
51	30
53	20
57	70
66	40
67	130
68	30
81	60
88	110
95	9999
96	591
97	40
110	50
124	60
137	20
138	5935
139	561
140	40
144	400
145	30
165	60
166	170
239	1221
240	180
