Mass Spectrum: .beta.-Alanine, N-(4-butylbenzoyl)-, isobutyl ester
Formula: C18 H27 N O3
Molecular weight: 305
Origin: Zaikin V.G., TIPS RAS, Moscow, Russia
m/z	RELATIVE INTENSITY
27	60
29	120
39	60
41	230
42	20
43	80
51	30
55	130
56	30
57	190
63	30
65	110
70	90
76	20
77	150
78	50
79	50
83	20
88	1441
89	210
90	540
91	1421
92	140
98	20
102	30
103	160
104	130
105	180
106	70
107	20
113	30
115	80
116	60
117	80
118	731
119	260
127	30
128	20
131	280
132	40
133	120
134	70
135	40
137	20
143	50
144	4374
145	390
146	90
147	20
148	30
159	110
160	120
161	9999
162	1241
163	100
177	60
178	30
186	40
188	30
189	290
190	100
202	80
203	360
204	320
205	150
206	20
218	130
219	20
231	40
232	1301
233	200
234	10
248	400
249	70
250	340
251	30
262	20
304	60
305	911
306	160
