Mass Spectrum: .beta.-Alanine, N-(3-methoxybenzoyl)-, undecyl ester
Formula: C22 H35 N O4
Molecular weight: 377
Origin: Zaikin V.G., TIPS RAS, Moscow, Russia
m/z	RELATIVE INTENSITY
27	70
29	170
30	50
39	70
41	450
42	90
43	601
44	60
50	20
51	20
53	20
54	40
55	260
56	110
57	350
63	60
64	140
65	50
67	60
68	30
69	160
70	280
71	60
72	60
76	80
77	701
78	80
79	60
82	30
83	60
84	20
85	70
87	50
88	1742
89	40
90	20
91	30
92	490
93	50
95	20
97	30
104	50
105	60
107	1241
108	200
109	30
119	20
120	40
121	150
122	10
130	20
133	50
134	130
135	9999
136	1171
137	100
138	90
141	10
148	30
149	80
150	30
151	160
152	90
162	110
163	611
164	300
176	150
177	721
178	631
179	921
180	90
204	40
205	60
206	1902
207	200
208	20
222	410
223	1331
224	2382
225	250
237	20
242	4134
243	601
244	20
251	90
265	40
278	110
279	20
292	210
293	30
306	120
320	50
334	90
348	120
376	40
377	1441
378	320
