Mass Spectrum: .beta.-Alanine, N-acryloyl-, isohexyl ester
Formula: C12 H21 N O3
Molecular weight: 227
Origin: Zaikin V.G., TIPS RAS, Moscow, Russia
m/z	RELATIVE INTENSITY
26	80
27	1311
28	290
29	731
30	480
31	30
39	300
40	50
41	1251
42	460
43	3833
44	851
45	50
53	140
54	310
55	9999
56	611
57	510
58	10
60	40
61	30
67	70
68	80
69	1321
70	1211
71	200
72	911
73	160
74	50
80	30
81	30
82	20
83	871
84	7247
85	951
86	50
87	90
88	6936
89	270
90	140
95	30
96	290
97	2022
98	2973
99	901
100	80
102	60
103	20
108	40
114	20
116	180
124	60
125	1051
126	8137
127	741
128	60
130	30
131	160
142	370
143	1842
144	2392
145	240
146	20
157	60
158	70
159	90
172	4474
173	390
174	20
198	240
199	40
212	40
227	1291
228	200
