Mass Spectrum: Sarcosine, N-(2,3,4-trifluorobenzoyl)-, pentyl ester
Formula: C15 H18 F3 N O3
Molecular weight: 317
Origin: Zaikin V.G., TIPS RAS, Moscow, Russia
m/z	RELATIVE INTENSITY
27	60
29	110
39	40
41	140
42	340
43	350
44	80
55	20
62	20
72	90
81	260
87	30
88	70
123	20
130	40
131	751
132	80
141	20
158	430
159	9999
160	711
161	40
181	20
182	60
184	40
188	30
201	30
202	3553
203	400
204	20
209	40
227	120
228	20
229	90
230	150
248	90
316	150
317	631
318	110
