Mass Spectrum: d-Proline, n-butoxycarbonyl-, pentyl ester
Formula: C15 H27 N O4
Molecular weight: 285
Origin: Zaikin V.G., TIPS RAS, Moscow, Russia
m/z	RELATIVE INTENSITY
27	70
28	120
29	310
39	60
41	500
42	120
43	250
44	50
55	80
56	30
57	911
58	40
68	140
69	140
70	3333
71	170
114	1071
115	70
126	90
141	40
142	20
143	20
170	9999
171	901
172	70
184	150
285	80
