Mass Spectrum: .beta.-Alanine, N-(2-furoyl)-, decyl ester
Formula: C18 H29 N O4
Molecular weight: 323
Origin: Zaikin V.G., TIPS RAS, Moscow, Russia
m/z	RELATIVE INTENSITY
26	20
27	220
28	180
29	460
30	130
38	50
39	681
40	70
41	1091
42	260
43	1301
44	130
46	20
51	30
53	80
54	100
55	1061
56	270
57	691
58	20
65	10
66	50
67	250
68	210
69	330
70	771
71	260
72	30
73	50
77	50
79	20
80	30
81	120
82	170
83	140
84	50
85	200
87	100
88	3483
89	120
90	60
93	30
94	170
95	9999
96	651
97	70
98	80
105	110
108	20
109	601
110	290
111	490
112	540
113	50
116	60
119	20
120	50
122	30
123	20
124	4014
125	350
126	80
130	20
135	80
136	150
137	2672
138	2823
139	1221
140	110
149	100
152	180
153	50
154	120
155	30
164	380
165	540
166	4344
167	510
168	60
182	400
183	340
184	2242
185	230
186	40
197	30
200	40
211	120
224	20
225	60
228	6226
229	941
230	80
238	50
239	40
252	170
253	50
266	110
267	30
280	60
294	100
295	60
323	2762
324	601
325	70
