Mass Spectrum: Sarcosine, N-(4-nitrobenzoyl)-, hexyl ester
Formula: C16 H22 N2 O5
Molecular weight: 322
Origin: Zaikin V.G., TIPS RAS, Moscow, Russia
m/z	RELATIVE INTENSITY
27	30
28	20
29	60
39	30
41	120
42	190
43	300
44	130
50	90
51	20
63	20
64	40
65	20
74	20
75	150
76	540
77	60
88	100
92	360
93	30
103	60
104	1371
105	120
119	30
120	641
121	50
122	20
129	40
134	400
135	40
136	20
145	20
146	20
147	20
150	9999
151	771
152	60
159	10
163	20
172	791
173	80
177	70
179	80
191	40
192	30
193	5755
194	681
195	60
207	20
220	230
221	170
237	90
238	40
239	220
292	50
321	941
322	1151
323	240
324	20
