Mass Spectrum: Sarcosine, N-isobutyryl-, pentadecyl ester
Formula: C22 H43 N O3
Molecular weight: 369
Origin: Zaikin V.G., TIPS RAS, Moscow, Russia
m/z	RELATIVE INTENSITY
27	100
29	190
39	80
40	10
41	731
42	430
43	3103
44	9999
45	260
53	20
54	60
55	691
56	240
57	851
58	40
67	90
68	70
69	380
70	260
71	2162
72	200
73	20
81	40
82	50
83	170
84	70
85	210
86	50
87	110
88	731
89	50
90	811
91	30
95	20
96	20
97	90
98	60
99	30
100	110
111	30
112	50
113	90
114	7967
115	1121
116	520
117	20
126	30
130	20
131	20
132	90
141	801
142	581
143	40
144	90
158	40
159	70
160	1091
161	70
172	20
186	30
187	30
200	30
201	20
214	60
228	80
242	60
256	50
270	60
284	60
298	2242
299	701
300	1481
301	280
302	20
312	20
326	60
341	30
369	1261
370	290
371	30
