Mass Spectrum: .beta.-Alanine, N-(thiophene-2-carbonyl)-, propyl ester
Formula: C11 H15 N O3 S
Molecular weight: 241
Origin: Zaikin V.G., TIPS RAS, Moscow, Russia
m/z	RELATIVE INTENSITY
26	20
27	280
28	50
29	140
30	50
31	20
38	30
39	901
40	40
41	360
42	90
43	490
44	90
45	110
53	40
54	40
55	410
56	80
57	220
58	80
60	20
67	20
69	70
70	280
71	20
73	180
74	20
77	30
81	50
82	100
83	540
84	120
85	50
88	801
89	20
98	60
99	20
109	30
110	170
111	9999
112	681
113	490
114	30
116	20
120	180
122	60
125	60
127	280
128	60
129	20
130	3793
131	270
136	50
139	20
140	811
141	60
142	40
152	100
153	410
154	270
155	100
166	60
180	20
181	70
182	1481
183	150
184	80
196	20
198	60
208	480
209	50
241	1281
242	170
243	60
