Mass Spectrum: Sarcosine, N-(3-methylbenzoyl)-, hexyl ester
Formula: C17 H25 N O3
Molecular weight: 291
Origin: Zaikin V.G., TIPS RAS, Moscow, Russia
m/z	RELATIVE INTENSITY
27	30
28	20
29	50
39	70
41	160
42	140
43	240
44	90
51	30
55	70
56	30
57	30
63	50
64	20
65	380
66	20
69	20
77	20
88	90
89	130
90	140
91	1661
92	150
105	90
117	70
118	80
119	9999
120	831
121	50
132	20
136	20
146	20
148	30
159	40
160	50
161	20
162	1822
163	230
172	380
173	30
189	60
190	90
206	30
208	30
290	500
291	1011
292	200
293	10
