Mass Spectrum: Sarcosine, N-(3-methylbenzoyl)-, heptyl ester
Formula: C18 H27 N O3
Molecular weight: 305
Origin: Zaikin V.G., TIPS RAS, Moscow, Russia
m/z	RELATIVE INTENSITY
27	20
28	20
29	50
39	60
41	170
42	120
43	170
44	90
51	20
55	100
56	40
57	110
63	40
65	290
69	50
70	30
71	20
77	20
83	20
87	40
88	80
89	110
90	130
91	1461
92	130
105	100
118	80
119	9999
120	871
121	60
123	20
124	30
133	40
146	30
148	40
160	60
161	30
162	2262
163	330
164	20
171	20
186	510
187	50
189	80
190	110
206	50
207	20
208	90
276	20
290	20
304	1051
305	1862
306	420
307	50
