Mass Spectrum: .beta.-Alanine, N-(2-chlorobenzoyl)-, propyl ester
Formula: C13 H16 Cl N O3
Molecular weight: 269
Origin: Zaikin V.G., TIPS RAS, Moscow, Russia
m/z	RELATIVE INTENSITY
27	130
28	10
30	30
39	30
41	80
42	30
43	180
44	70
50	80
51	80
55	60
60	20
70	220
73	40
74	50
75	540
76	140
77	140
85	50
88	991
89	40
91	30
98	80
102	40
104	70
105	210
106	30
110	50
111	1491
112	160
113	530
114	40
118	90
119	30
130	5835
131	390
132	80
137	30
138	130
139	9999
140	791
141	3453
142	240
146	230
147	30
148	30
156	80
158	20
164	60
166	40
167	230
168	701
169	130
170	230
174	20
180	140
181	490
182	370
184	90
192	50
209	50
210	1722
211	200
212	581
213	50
226	120
227	100
228	90
229	30
234	100
268	40
269	721
270	140
271	240
272	30
