Mass Spectrum: Sarcosine, N-(4-methoxybenzoyl)-, undecyl ester
Formula: C22 H35 N O4
Molecular weight: 377
Origin: Zaikin V.G., TIPS RAS, Moscow, Russia
m/z	RELATIVE INTENSITY
29	20
41	70
42	50
43	140
44	90
55	60
57	60
64	40
69	20
77	300
78	20
88	20
92	230
104	20
107	160
120	20
121	30
135	9999
136	841
137	60
150	130
173	20
178	1191
179	210
205	140
206	70
207	20
224	30
242	220
376	470
377	681
378	150
