Mass Spectrum: Sarcosine, N-(1-naphthoyl)-, decyl ester
Formula: C24 H33 N O3
Molecular weight: 383
Origin: Zaikin V.G., TIPS RAS, Moscow, Russia
m/z	RELATIVE INTENSITY
28	10
29	20
41	60
42	60
43	100
44	80
55	50
57	50
71	20
77	70
88	30
101	40
126	180
127	1762
128	300
141	30
154	70
155	9999
156	1261
157	60
184	30
196	60
197	90
198	821
199	240
224	100
225	1021
226	360
228	120
242	60
243	180
244	70
383	1261
384	340
