Mass Spectrum: l-Leucine, N-allyloxycarbonyl-N-methyl-, allyl ester
Formula: C14 H23 N O4
Molecular weight: 269
Origin: Zaikin V.G., TIPS RAS, Moscow, Russia
m/z	RELATIVE INTENSITY
27	60
29	40
30	40
39	410
40	40
41	4524
42	1091
43	90
44	110
56	90
57	440
58	120
67	30
82	60
84	340
88	90
96	60
98	691
99	60
100	190
116	30
118	20
126	20
128	160
140	3383
141	360
142	40
144	60
168	110
173	20
183	20
184	9999
185	1121
186	90
212	90
213	20
