Mass Spectrum: .beta.-Alanine, N-(3-methylbenzoyl)-, heptyl ester
Formula: C18 H27 N O3
Molecular weight: 305
Origin: Zaikin V.G., TIPS RAS, Moscow, Russia
m/z	RELATIVE INTENSITY
27	60
28	10
29	40
39	80
41	240
42	40
43	190
44	80
51	20
55	210
56	60
57	250
63	50
65	380
69	60
70	170
71	20
83	30
87	50
88	1241
89	200
90	160
91	1862
92	130
97	20
117	20
118	190
119	9999
120	961
135	160
136	80
144	30
146	20
147	170
148	190
160	60
161	490
162	410
163	450
186	4534
187	460
188	20
189	30
190	891
191	60
206	350
207	160
208	881
209	50
262	30
276	50
304	20
305	1031
306	140
