Mass Spectrum: Sarcosine, N-(4-nitrobenzoyl)-, isobutyl ester
Formula: C14 H18 N2 O5
Molecular weight: 294
Origin: Zaikin V.G., TIPS RAS, Moscow, Russia
m/z	RELATIVE INTENSITY
27	20
28	40
29	100
39	40
41	200
42	210
43	130
44	100
50	110
55	30
56	30
57	220
63	20
64	40
65	50
74	20
75	170
76	641
77	60
88	90
92	390
93	10
103	70
104	1471
105	120
119	30
120	651
121	70
122	20
134	410
135	30
136	20
137	50
144	591
145	60
146	30
147	20
148	30
150	9999
151	891
152	70
167	30
173	80
177	60
178	20
179	70
191	40
192	20
193	5295
194	571
195	40
220	80
221	440
222	30
237	170
238	170
239	40
264	50
293	931
294	1401
295	250
