Mass Spectrum: .beta.-Alanine, N-(4-ethylbenzoyl)-, isobutyl ester
Formula: C16 H23 N O3
Molecular weight: 277
Origin: Zaikin V.G., TIPS RAS, Moscow, Russia
m/z	RELATIVE INTENSITY
29	90
41	140
43	180
53	20
54	20
55	20
56	80
57	200
62	20
68	20
69	50
71	20
76	30
77	500
78	70
79	651
80	20
82	40
83	30
88	1321
90	40
97	30
98	30
102	40
103	430
104	230
105	831
106	80
111	40
116	20
131	150
132	190
133	9999
134	1061
144	3243
145	270
146	30
149	50
150	80
158	20
162	60
174	40
175	310
176	250
177	80
204	1411
205	170
208	20
220	260
221	90
222	360
223	10
276	30
277	981
278	90
