Mass Spectrum: Sarcosine, N-valeryl-, hexadecyl ester
Formula: C24 H47 N O3
Molecular weight: 397
Origin: Zaikin V.G., TIPS RAS, Moscow, Russia
m/z	RELATIVE INTENSITY
27	100
29	390
39	70
41	781
42	340
43	1261
44	9999
45	250
54	50
55	741
56	250
57	1882
58	70
67	80
68	70
69	370
70	140
71	350
72	20
73	10
81	50
82	60
83	240
84	80
85	1161
86	420
87	1111
88	571
89	70
90	1181
91	50
95	20
96	20
97	130
98	90
99	30
100	80
104	30
111	40
112	20
113	1181
114	561
115	20
116	90
126	140
127	10
128	2472
129	360
130	20
131	330
132	2672
133	150
144	90
150	60
155	631
156	430
157	20
158	40
159	70
172	30
173	50
174	520
175	30
186	100
187	20
200	120
201	40
214	120
215	20
228	110
229	20
242	130
243	20
256	140
257	20
267	80
268	20
270	120
271	30
284	140
285	20
298	130
299	20
312	1621
313	961
314	460
315	50
326	80
340	20
355	2993
356	701
357	70
368	500
369	130
382	20
396	30
397	540
398	160
