Mass Spectrum: l-Leucine, N-methyl-n-propoxycarbonyl-, heptadecyl ester
Formula: C28 H55 N O4
Molecular weight: 469
Origin: Zaikin V.G., TIPS RAS, Moscow, Russia
m/z	RELATIVE INTENSITY
29	10
41	100
42	70
43	440
44	60
55	100
56	50
57	250
58	110
69	80
70	40
71	80
83	50
84	40
85	40
88	230
97	20
98	30
100	500
101	20
102	30
115	40
128	30
130	60
142	60
143	20
144	751
145	50
171	30
186	9999
187	1191
188	80
232	20
