Mass Spectrum: Sarcosine, N-(4-methoxybenzoyl)-, ethyl ester
Formula: C13 H17 N O4
Molecular weight: 251
Origin: Zaikin V.G., TIPS RAS, Moscow, Russia
m/z	RELATIVE INTENSITY
28	10
29	30
42	60
43	20
50	20
51	20
63	70
64	150
65	20
76	70
77	561
78	40
79	20
92	520
93	30
104	60
105	20
107	280
108	20
116	110
120	40
121	30
133	20
135	9999
136	811
137	70
150	50
152	70
176	20
178	781
179	80
205	40
206	190
207	20
250	711
251	1231
252	200
253	20
