Mass Spectrum: Sarcosine, N-(2,3,4-trifluorobenzoyl)-, ethyl ester
Formula: C12 H12 F3 N O3
Molecular weight: 275
Origin: Zaikin V.G., TIPS RAS, Moscow, Russia
m/z	RELATIVE INTENSITY
27	70
28	60
29	160
42	500
43	90
44	70
62	40
80	20
81	500
88	20
116	460
117	20
130	50
131	1121
132	110
145	20
158	20
159	9999
160	731
161	40
181	70
182	70
184	20
188	20
201	20
202	2422
203	250
209	40
229	30
230	210
231	20
255	30
274	180
275	701
276	110
