Mass Spectrum: .beta.-Alanine, N-(3-methoxybenzoyl)-, butyl ester
Formula: C15 H21 N O4
Molecular weight: 279
Origin: Zaikin V.G., TIPS RAS, Moscow, Russia
m/z	RELATIVE INTENSITY
27	80
28	80
29	210
30	30
39	70
41	160
42	20
44	40
50	40
51	50
55	80
57	90
63	130
64	280
65	70
70	230
75	30
76	160
77	1021
78	120
79	70
88	971
89	40
91	30
92	861
93	70
103	40
104	70
105	40
106	40
107	1511
108	250
109	40
119	30
120	50
121	130
122	20
123	20
133	80
134	160
135	9999
136	1001
137	80
144	4304
145	340
146	40
148	30
149	90
150	70
151	170
160	80
161	30
162	130
163	460
164	220
176	200
177	581
178	380
179	180
180	20
193	20
204	30
205	30
206	1091
207	140
222	330
223	150
224	90
278	70
279	1942
280	340
281	30
