Mass Spectrum: Sarcosine, N-(2-chlorobenzoyl)-, propyl ester
Formula: C13 H16 Cl N O3
Molecular weight: 269
Origin: Zaikin V.G., TIPS RAS, Moscow, Russia
m/z	RELATIVE INTENSITY
27	70
28	10
29	30
39	40
41	130
42	300
43	260
44	60
50	100
51	80
55	60
56	40
57	30
69	50
70	60
74	50
75	500
76	160
77	150
78	20
82	10
83	50
84	40
85	60
88	60
91	40
95	80
97	40
98	20
104	40
105	120
106	20
110	40
111	1111
112	140
113	380
114	30
118	30
123	460
124	30
125	20
130	510
131	40
133	90
135	30
138	30
139	9999
140	791
141	3713
142	280
146	60
147	20
152	20
153	20
168	40
180	30
182	2262
183	230
184	781
185	70
209	40
210	290
211	40
212	90
226	20
234	100
268	931
269	1531
270	611
271	520
272	90
