Mass Spectrum: Sarcosine, N-(3-bromobenzoyl)-, propyl ester
Formula: C13 H16 Br N O3
Molecular weight: 313
Origin: Zaikin V.G., TIPS RAS, Moscow, Russia
m/z	RELATIVE INTENSITY
27	130
28	20
29	50
38	20
39	60
41	200
42	550
43	520
44	180
50	300
51	80
55	50
56	40
57	60
60	30
65	10
68	20
69	60
70	40
71	30
74	100
75	611
76	981
77	160
78	20
80	20
82	50
83	80
84	30
88	120
91	20
93	110
97	50
103	60
104	440
105	80
111	20
114	10
118	20
119	70
121	40
129	20
130	981
131	80
146	40
147	50
154	20
155	1531
156	140
157	1401
158	90
169	120
171	120
182	20
183	9999
184	691
185	9949
186	691
187	40
212	40
213	40
214	40
224	50
225	30
226	3023
227	340
228	2913
229	300
230	20
234	50
254	240
255	80
256	250
257	20
270	20
272	20
312	1191
313	1732
314	1471
315	1732
316	340
317	30
