Mass Spectrum: Sarcosine, N-(4-ethylbenzoyl)-, butyl ester
Formula: C16 H23 N O3
Molecular weight: 277
Origin: Zaikin V.G., TIPS RAS, Moscow, Russia
m/z	RELATIVE INTENSITY
27	50
28	30
29	90
39	40
41	80
42	80
43	70
44	50
51	40
53	20
55	30
56	20
57	40
63	20
65	30
76	20
77	340
78	80
79	360
80	20
88	50
89	70
90	110
91	50
102	30
103	280
104	140
105	470
106	50
118	40
119	20
131	70
132	60
133	9999
134	1001
135	70
139	20
144	300
145	20
146	10
148	20
157	40
162	20
174	50
176	1171
177	150
203	50
204	150
205	20
276	851
277	1441
278	300
279	40
