Mass Spectrum: Sarcosine, N-(4-methylbenzoyl)-, ethyl ester
Formula: C13 H17 N O3
Molecular weight: 235
Origin: Zaikin V.G., TIPS RAS, Moscow, Russia
m/z	RELATIVE INTENSITY
27	20
29	50
39	70
41	60
42	110
43	80
44	40
51	40
55	20
57	40
63	80
64	20
65	430
66	20
71	20
77	20
89	180
90	160
91	1421
92	120
105	30
116	210
117	20
118	80
119	9999
120	711
121	50
123	50
133	20
134	20
160	40
162	1131
163	130
189	30
190	220
191	20
234	1011
235	1531
236	270
237	30
