Mass Spectrum: Isonipecotic acid, N-allyloxycarbonyl-, pentyl ester
Formula: C15 H25 N O4
Molecular weight: 283
Origin: Zaikin V.G., TIPS RAS, Moscow, Russia
m/z	RELATIVE INTENSITY
27	30
29	90
39	220
41	2262
42	450
43	1001
44	20
53	20
54	50
55	390
63	20
67	100
68	60
69	70
70	60
71	330
73	210
80	50
81	30
82	3743
83	260
84	70
86	100
87	20
96	110
99	20
100	270
105	70
108	30
110	190
111	80
112	100
113	50
114	40
122	260
124	240
125	20
126	1351
128	1171
138	70
140	20
152	70
154	100
156	50
167	40
168	350
169	70
196	1021
197	120
198	9999
199	1241
200	100
212	20
224	50
226	550
227	60
242	1762
243	240
283	130
284	40
