Mass Spectrum: Sarcosine, N-(4-nitrobenzoyl)-, butyl ester
Formula: C14 H18 N2 O5
Molecular weight: 294
Origin: Zaikin V.G., TIPS RAS, Moscow, Russia
m/z	RELATIVE INTENSITY
28	10
29	40
39	10
41	70
42	140
43	30
44	90
50	80
55	30
57	90
64	40
65	20
69	40
70	50
74	20
75	160
76	571
77	60
82	20
88	50
92	370
93	20
98	40
103	70
104	1461
105	120
111	60
112	60
119	20
120	530
121	80
122	30
134	390
135	40
136	20
140	80
144	621
145	70
147	20
150	9999
151	961
152	100
163	10
167	20
168	150
169	130
173	130
177	60
179	80
191	40
192	20
193	5105
194	561
195	40
206	20
216	20
220	90
221	210
237	40
239	30
264	50
277	60
293	1171
294	1451
295	280
296	20
