Mass Spectrum: .beta.-Alanine, N-(4-fluorobenzoyl)-, propyl ester
Formula: C13 H16 F N O3
Molecular weight: 253
Origin: Zaikin V.G., TIPS RAS, Moscow, Russia
m/z	RELATIVE INTENSITY
27	160
28	20
29	50
30	30
31	20
39	50
41	150
42	40
43	230
44	60
50	50
51	40
55	120
60	20
68	30
69	80
70	230
73	40
74	40
75	470
76	50
88	641
89	20
94	150
95	2192
96	190
98	20
121	30
122	180
123	9999
124	741
125	30
130	3353
131	230
137	30
139	70
140	40
148	50
150	30
151	130
152	561
153	40
164	150
165	510
166	270
167	90
193	50
194	1451
195	160
210	140
211	30
212	40
236	30
253	701
254	100
