Mass Spectrum: Sarcosine, N-(4-methoxybenzoyl)-, isohexyl ester
Formula: C17 H25 N O4
Molecular weight: 307
Origin: Zaikin V.G., TIPS RAS, Moscow, Russia
m/z	RELATIVE INTENSITY
39	10
42	50
43	130
44	100
63	30
64	80
65	20
76	40
77	420
78	30
88	80
91	30
92	280
104	40
105	30
107	130
120	20
133	20
135	9999
136	821
137	40
150	50
164	20
172	170
173	20
176	20
178	1021
179	130
205	90
206	70
222	50
224	20
307	460
308	100
