Mass Spectrum: Sarcosine, N-(2-furoyl)-, nonyl ester
Formula: C17 H27 N O4
Molecular weight: 309
Origin: Zaikin V.G., TIPS RAS, Moscow, Russia
m/z	RELATIVE INTENSITY
27	80
28	70
29	170
38	20
39	320
40	30
41	390
42	330
43	470
44	250
53	30
54	20
55	250
56	70
57	140
66	20
67	90
68	40
69	80
70	30
71	60
81	60
82	30
83	20
85	30
88	170
95	7997
96	520
97	60
110	50
124	100
137	30
138	9999
139	1151
140	100
165	160
166	180
184	390
185	30
214	591
215	70
221	30
252	20
281	30
309	1081
310	220
311	20
