Mass Spectrum: Sarcosine, N-(2-methoxybenzoyl)-, butyl ester
Formula: C15 H21 N O4
Molecular weight: 279
Origin: Zaikin V.G., TIPS RAS, Moscow, Russia
m/z	RELATIVE INTENSITY
27	30
29	100
39	30
41	70
42	90
43	30
44	170
50	20
51	70
57	30
63	60
64	110
76	60
77	961
78	80
79	70
88	40
92	430
93	40
105	90
120	80
121	60
133	50
134	30
135	9999
136	771
137	50
144	170
145	250
146	40
150	50
163	50
164	20
176	40
178	571
179	70
206	120
278	440
279	731
280	130
