Mass Spectrum: Sarcosine, N-(2-furoyl)-, pentyl ester
Formula: C13 H19 N O4
Molecular weight: 253
Origin: Zaikin V.G., TIPS RAS, Moscow, Russia
m/z	RELATIVE INTENSITY
27	120
28	70
29	170
38	60
39	561
40	40
41	210
42	430
43	260
44	180
51	30
53	30
66	30
67	110
81	50
88	130
95	9999
96	561
105	50
110	40
124	70
137	20
138	7016
139	711
140	50
158	430
159	20
165	90
166	140
184	50
253	1131
254	170
