Mass Spectrum: Sarcosine, N-(4-methylbenzoyl)-, hexyl ester
Formula: C17 H25 N O3
Molecular weight: 291
Origin: Zaikin V.G., TIPS RAS, Moscow, Russia
m/z	RELATIVE INTENSITY
27	40
28	20
29	50
39	60
41	130
42	120
43	180
44	70
51	20
55	50
56	20
57	20
58	90
63	40
65	290
73	20
83	20
88	70
89	100
90	110
91	1241
92	100
105	20
118	70
119	9999
120	851
121	50
123	40
133	20
134	20
148	20
160	40
162	1952
163	230
172	370
173	30
189	70
190	90
206	20
208	20
290	290
291	460
292	90
