Mass Spectrum: Sarcosine, N-(4-bromobenzoyl)-, nonyl ester
Formula: C19 H28 Br N O3
Molecular weight: 397
Origin: Zaikin V.G., TIPS RAS, Moscow, Russia
m/z	RELATIVE INTENSITY
27	30
28	30
29	90
39	20
41	310
42	310
43	601
44	270
50	50
55	220
56	60
57	160
69	90
70	20
71	80
75	250
76	380
77	90
83	40
85	30
88	160
95	20
103	20
104	520
105	190
119	120
123	90
127	20
147	40
155	711
156	110
157	901
158	30
166	20
183	9999
184	741
185	9809
186	701
212	20
214	1481
215	160
225	30
226	4534
227	591
228	4454
229	550
253	110
254	130
255	130
256	100
270	40
272	410
273	20
274	340
396	981
397	1331
398	1271
399	1371
400	250
