Mass Spectrum: Sarcosine, N-valeryl-, butyl ester
Formula: C12 H23 N O3
Molecular weight: 229
Origin: Zaikin V.G., TIPS RAS, Moscow, Russia
m/z	RELATIVE INTENSITY
27	210
28	290
29	731
30	40
39	130
41	711
42	480
43	210
44	9999
45	260
53	20
55	170
57	1561
58	90
60	30
72	30
85	1281
86	370
87	430
88	550
89	50
90	180
98	70
99	160
100	50
113	440
114	80
116	60
126	70
128	1231
129	90
131	40
132	190
144	721
145	611
146	330
147	20
155	180
156	440
157	30
187	2813
188	270
189	20
200	250
201	40
214	20
229	370
230	100
