Mass Spectrum: Sarcosine, N-(2-furoyl)-, isobutyl ester
Formula: C12 H17 N O4
Molecular weight: 239
Origin: Zaikin V.G., TIPS RAS, Moscow, Russia
m/z	RELATIVE INTENSITY
27	90
28	80
29	220
38	80
39	641
40	50
41	320
42	440
43	190
44	160
51	30
53	30
55	50
56	30
57	170
66	40
67	130
68	50
81	60
82	20
83	20
88	150
95	9999
96	611
97	70
109	20
110	60
124	70
137	20
138	5975
139	561
140	40
144	410
145	70
165	50
166	310
167	20
239	1341
240	180
