Mass Spectrum: .beta.-Alanine, N-caproyl-, heptadecyl ester
Formula: C26 H51 N O3
Molecular weight: 425
Origin: Zaikin V.G., TIPS RAS, Moscow, Russia
m/z	RELATIVE INTENSITY
26	90
27	250
29	430
30	1071
39	160
40	30
41	791
42	420
43	3663
44	881
47	30
50	20
51	100
53	90
54	280
55	1081
56	500
57	1221
58	20
59	90
60	50
67	290
68	270
69	1131
70	490
71	1431
72	1491
73	170
74	20
76	30
79	80
80	30
81	260
82	160
83	410
84	400
85	460
86	90
87	1211
88	1431
89	80
90	2142
91	150
93	20
95	30
96	90
97	350
98	500
99	1561
100	200
101	40
107	20
110	80
111	30
112	50
113	571
114	5045
115	350
116	360
121	50
125	160
126	1742
127	170
128	831
129	30
130	80
131	340
132	9999
133	490
134	20
135	80
140	701
142	40
143	20
144	290
145	50
146	70
147	40
153	20
156	40
158	110
159	140
169	30
170	4184
171	300
172	70
173	50
186	90
187	20
188	3783
189	180
191	30
194	20
200	130
201	50
203	40
207	70
214	170
215	80
242	210
256	270
270	190
271	40
284	180
285	70
298	200
312	170
313	20
326	3904
327	540
328	120
354	50
355	30
369	2002
370	370
382	1381
383	200
396	290
397	40
424	20
425	450
426	20
