Mass Spectrum: .beta.-Alanine, N-cyclohexylcarbonyl-, pentyl ester
Formula: C15 H27 N O3
Molecular weight: 269
Origin: Zaikin V.G., TIPS RAS, Moscow, Russia
m/z	RELATIVE INTENSITY
26	20
27	360
29	701
30	1031
31	30
39	390
40	70
41	2242
42	500
43	2572
44	1541
45	430
46	30
51	20
52	70
53	420
54	540
55	4234
56	350
57	330
58	40
59	260
61	90
65	40
66	140
67	1201
68	400
69	260
70	561
71	1211
72	1822
73	40
74	90
77	90
78	60
79	250
80	80
81	1031
82	921
83	8067
84	991
85	140
87	3393
88	1952
89	711
90	1201
91	170
92	20
97	20
98	2102
99	190
100	440
101	30
107	20
108	100
109	150
110	2212
111	2232
112	470
113	581
114	350
115	801
116	2442
117	180
125	230
126	6186
127	711
128	90
129	50
130	310
132	721
133	60
136	40
138	30
140	811
142	20
143	1131
145	100
152	510
153	1461
154	470
155	540
156	80
157	210
158	9999
159	1231
160	3673
161	300
166	70
172	90
173	130
180	190
181	1942
182	3403
183	380
184	30
186	120
191	80
195	20
198	811
200	701
201	571
202	30
214	4884
215	661
216	50
227	240
228	1091
229	110
240	20
241	110
254	190
255	30
268	40
269	3623
270	711
271	40
