Mass Spectrum: .beta.-Alanine, N-capryloyl-, heptyl ester
Formula: C18 H35 N O3
Molecular weight: 313
Origin: Zaikin V.G., TIPS RAS, Moscow, Russia
m/z	RELATIVE INTENSITY
26	40
27	380
28	330
29	831
30	1441
31	30
39	270
40	50
41	1792
42	480
43	2222
44	661
45	120
46	20
51	20
53	80
54	140
55	1521
56	510
57	3934
58	170
59	150
60	50
67	210
68	130
69	470
70	621
71	240
72	1341
73	210
74	50
79	40
80	20
81	110
82	90
83	240
84	470
85	651
86	90
87	1571
88	1932
89	200
90	1601
91	50
95	30
96	40
97	210
98	761
99	130
100	140
101	160
102	40
103	30
109	100
110	20
111	60
112	120
113	1191
114	4144
115	240
116	470
117	70
124	10
125	60
126	2162
127	1321
128	170
130	90
131	280
132	9999
133	581
134	60
140	661
142	20
144	360
145	90
146	60
154	300
155	10
156	240
158	180
159	430
160	30
168	350
169	180
170	60
171	30
172	90
173	180
174	20
182	40
186	3193
187	480
188	671
189	50
196	60
197	40
198	1611
199	200
200	370
201	50
214	140
216	500
217	40
229	1641
230	210
240	50
242	1261
243	230
253	50
256	200
257	30
270	280
271	60
284	360
285	40
298	20
313	280
314	90
