Mass Spectrum: .beta.-Alanine, N-(2,3,4-trifluorobenzoyl)-, butyl ester
Formula: C14 H16 F3 N O3
Molecular weight: 303
Origin: Zaikin V.G., TIPS RAS, Moscow, Russia
m/z	RELATIVE INTENSITY
27	150
28	130
29	330
30	40
39	70
41	350
42	60
43	60
55	430
56	120
57	240
60	40
61	20
62	30
63	10
70	310
71	40
73	40
81	450
88	1011
89	30
98	20
99	20
111	20
112	70
113	30
129	20
130	60
131	1211
132	120
140	40
141	20
144	3323
145	280
146	40
154	160
157	20
158	160
159	9999
160	741
161	40
168	30
173	220
174	30
175	50
176	150
181	50
182	230
183	20
184	100
187	80
188	1181
189	100
200	190
201	1331
202	490
203	130
215	20
228	50
229	170
230	1511
231	160
246	70
248	110
303	911
304	150
