Mass Spectrum: .beta.-Alanine, N-(2-bromobenzoyl)-, butyl ester
Formula: C14 H18 Br N O3
Molecular weight: 327
Origin: Zaikin V.G., TIPS RAS, Moscow, Russia
m/z	RELATIVE INTENSITY
27	190
28	190
29	470
30	70
39	110
41	460
42	70
43	60
44	60
45	30
46	20
50	320
51	170
52	20
55	180
56	70
57	340
60	40
63	30
64	20
65	30
70	400
71	20
73	60
74	130
75	621
76	971
77	500
78	60
87	20
88	1832
89	70
90	60
91	50
92	20
95	20
98	100
102	80
103	70
104	360
105	540
106	40
107	20
118	110
119	20
120	80
121	40
127	10
128	30
129	10
132	150
133	20
135	90
144	9999
145	841
146	571
147	60
148	60
155	1481
156	130
157	1451
158	100
163	20
173	20
174	30
182	100
183	8007
184	751
185	7697
186	621
187	20
192	50
199	70
200	50
201	60
202	40
208	50
210	70
211	270
212	430
213	280
214	400
215	20
219	20
224	120
225	540
226	490
227	641
228	350
229	70
248	140
253	40
254	1041
255	160
256	1021
257	100
270	130
271	10
272	250
273	30
274	110
326	30
327	871
328	190
329	831
330	140
