Mass Spectrum: Sarcosine, N-(3-methylbut-2-enoyl)-, propyl ester
Formula: C11 H19 N O3
Molecular weight: 213
Origin: Zaikin V.G., TIPS RAS, Moscow, Russia
m/z	RELATIVE INTENSITY
27	270
29	420
39	340
40	40
41	190
42	350
43	220
44	1211
45	30
51	20
53	210
54	110
55	1201
56	50
67	50
82	921
83	9999
84	550
88	180
96	20
110	50
112	30
124	20
125	50
126	1561
127	130
130	330
131	30
132	721
133	50
153	170
154	370
170	30
198	170
213	2042
214	260
