Mass Spectrum: .beta.-Alanine, N-(2-furoyl)-, propyl ester
Formula: C11 H15 N O4
Molecular weight: 225
Origin: Zaikin V.G., TIPS RAS, Moscow, Russia
m/z	RELATIVE INTENSITY
27	270
29	40
30	30
31	20
38	100
39	871
40	60
41	130
42	50
43	330
44	30
46	20
51	30
55	40
60	20
66	80
67	120
68	40
70	340
80	20
82	20
88	651
93	20
94	190
95	9999
96	561
109	420
110	50
111	320
112	90
120	60
124	2182
125	90
130	3803
131	180
136	120
137	901
138	1201
139	140
164	170
165	160
166	2112
167	180
168	20
182	80
196	20
225	2072
226	230
