Mass Spectrum: Isonipecotic acid, N-methoxycarbonyl-, ethyl ester
Formula: C10 H17 N O4
Molecular weight: 215
Origin: Zaikin V.G., TIPS RAS, Moscow, Russia
m/z	RELATIVE INTENSITY
27	360
29	981
30	140
31	30
39	290
40	30
41	280
42	2032
44	160
45	50
53	230
54	400
55	1321
56	971
57	20
59	1311
60	20
67	280
68	130
70	250
73	1261
74	20
80	190
81	110
82	6085
83	180
86	240
87	40
88	360
94	40
96	290
99	20
100	731
101	941
108	30
110	210
114	891
115	2272
126	1842
127	130
128	761
129	30
138	30
140	1792
141	1031
142	2532
143	180
154	260
155	40
156	9999
157	821
170	2002
171	100
184	410
186	490
200	2342
201	170
215	2502
216	180
