Mass Spectrum: S-1-Propenylmethanethiosulfonate
Formula: C4 H8 O2 S2
Molecular weight: 152
Origin: S. Volkovich, Institute of Nutrition, Russia
m/z	RELATIVE INTENSITY
15	210
16	110
29	310
30	110
39	2312
40	310
41	1912
42	310
43	1111
44	310
45	9999
46	1111
47	510
48	210
63	120
71	911
72	4014
73	3113
74	310
79	110
81	90
89	310
90	110
119	410
120	110
137	410
138	110
152	510
153	110
154	110
