Mass Spectrum: Thiopropanal sulfoxide
Formula: C3 H6 O S
Molecular weight: 90
Origin: S. Volkovich, Institute of Nutrition, Russia
m/z	RELATIVE INTENSITY
15	320
16	90
29	540
30	90
39	4714
40	410
41	9999
42	3013
43	1411
44	510
45	2212
46	911
47	210
48	1011
49	310
75	911
76	210
77	90
90	4614
91	911
92	711
93	90
