Mass Spectrum: l-Leucine, N-benzyloxycarbonyl-N-methyl-, ethyl ester
Formula: C17 H25 N O4
Molecular weight: 307
Origin: Zaikin V.G., TIPS RAS, Moscow, Russia
m/z	RELATIVE INTENSITY
27	20
29	80
39	50
41	40
42	200
44	40
51	20
57	140
58	30
63	30
65	310
73	20
77	20
84	20
88	40
89	100
90	70
91	9999
92	681
98	120
100	40
116	60
117	30
146	20
172	50
190	4494
191	591
192	30
206	30
234	2342
235	340
236	20
307	20
