Mass Spectrum: 2,4-Dimethyl-5,6-dithia-2,7-nonadienal, 5-oxide
Formula: C9 H14 O2 S2
Molecular weight: 218
Origin: S.Volkovich,Institute of Nutrition,Russia
m/z	RELATIVE INTENSITY
15	410
16	110
39	1511
40	210
41	4214
42	310
45	2712
46	310
47	510
48	110
59	611
60	210
69	9999
70	611
71	811
73	510
74	110
75	110
145	711
146	110
147	210
149	761
150	110
185	110
203	330
204	90
217	310
218	611
219	110
220	110
