Mass Spectrum: Phthalic acid, di(cycloheptyl) ester
Formula: C22 H30 O4
Molecular weight: 358
Origin: Zaikin V.G., TIPS RAS, Moscow, Russia
m/z	RELATIVE INTENSITY
28	10
29	30
39	50
41	190
42	20
43	70
50	20
53	40
54	160
55	1431
56	80
57	40
65	80
66	30
67	310
68	190
69	140
70	20
76	170
77	60
79	40
81	350
82	20
93	100
95	150
96	250
97	1932
98	150
104	310
105	120
113	270
114	90
121	90
122	190
123	20
132	20
148	20
149	9999
150	1541
151	150
167	5395
168	480
169	50
245	50
263	290
264	40
