Mass Spectrum: S-Propylmethanethiosulfonate
Formula: C4 H10 O2 S2
Molecular weight: 154
Origin: S. Volkovich, Institute of Nutrition, Russia
m/z	RELATIVE INTENSITY
15	911
16	210
29	1111
30	210
39	2512
40	310
41	9999
42	2112
43	4614
44	510
45	3113
46	510
47	4114
48	611
63	1812
64	210
74	6806
75	3313
76	310
79	3113
80	410
81	1511
82	210
111	410
112	210
113	711
114	210
121	190
122	230
125	510
126	210
139	611
140	210
154	1111
155	210
