Mass Spectrum: Isonipecotic acid, N-ethoxycarbonyl-, hexyl ester
Formula: C15 H27 N O4
Molecular weight: 285
Origin: Zaikin V.G., TIPS RAS, Moscow, Russia
m/z	RELATIVE INTENSITY
27	130
29	691
30	50
39	40
41	320
42	310
43	911
44	60
53	20
54	50
55	510
57	70
58	30
67	70
68	70
69	40
70	30
73	160
80	20
82	2552
83	210
84	170
85	140
86	150
87	30
96	50
100	140
101	20
102	30
110	170
111	40
112	100
113	20
114	30
115	40
116	100
126	921
127	170
128	1121
129	350
130	30
138	30
142	90
154	200
155	200
156	420
157	90
170	20
172	60
184	651
185	40
198	20
200	180
210	10
212	9999
213	1391
214	110
240	350
241	40
256	1201
257	170
270	190
271	20
284	20
285	881
286	160
