Mass Spectrum: 2,3-Dimethyl-5,6-dithiabicyclo[2.1.1]hexane, 5,5-dioxide
Formula: C6 H10 O2 S2
Molecular weight: 178
Origin: S. Volkovich, Institute of Nutrition, Russia
m/z	RELATIVE INTENSITY
15	410
16	210
29	210
30	110
39	2112
40	210
41	2012
42	310
45	4414
46	310
47	140
79	2112
80	310
97	1211
98	210
99	5305
100	210
101	310
113	9999
114	1311
115	1411
145	220
163	510
164	110
165	210
178	2212
179	210
180	310
