Mass Spectrum: 2,4-Dimethyl-5,6-dithia-2,7-nonadienal
Formula: C9 H14 O S2
Molecular weight: 202
Origin: S. Volkovich, Institute of Nutrition, Russia
m/z	RELATIVE INTENSITY
15	210
16	110
28	310
29	510
30	110
39	1511
40	210
41	4214
42	210
45	3413
46	210
47	510
48	110
55	611
56	110
59	1511
60	210
67	911
68	210
69	9999
70	510
71	110
73	450
105	540
128	510
129	2212
130	210
131	310
133	1091
134	110
158	220
169	110
187	310
188	110
189	110
201	510
202	911
203	110
204	110
