Mass Spectrum: 3-Ethyl-5-vinyl-1,2,4-trithiolane
Formula: C6 H10 S3
Molecular weight: 178
Origin: S. Volkovich, Institute of Nutrition, Russia
m/z	RELATIVE INTENSITY
15	310
16	90
29	410
30	110
39	4414
40	210
41	8608
42	310
45	9909
46	310
47	410
59	9999
60	310
61	310
71	5005
72	7807
73	310
104	5305
105	210
106	210
114	320
115	90
145	691
146	110
149	310
150	110
163	210
164	110
178	5905
179	210
180	210
