Mass Spectrum: 1-(1-Propenyl)-2-(4-thiohept-5-yl)disulfide
Formula: C9 H18 S3
Molecular weight: 222
Origin: S.Volkovich,Institute of Nutrition,Russia
m/z	RELATIVE INTENSITY
15	310
16	110
29	510
30	110
39	1611
40	310
41	5205
42	410
43	6506
44	310
45	310
47	1912
48	110
49	210
73	2612
74	1511
75	6105
76	611
77	210
105	410
106	110
107	210
117	9999
118	510
158	120
189	110
193	310
194	110
195	210
207	210
208	110
209	110
222	911
223	110
224	210
