Mass Spectrum: 2-Mercapto-3,4-dimethyl-2,3-dihydrothiophene
Formula: C6 H10 S2
Molecular weight: 146
Origin: S. Volkovich, Institute of Nutrition, Russia
m/z	RELATIVE INTENSITY
15	310
16	110
29	410
30	110
39	4714
40	410
41	510
42	110
43	711
44	210
45	6306
46	310
71	1912
72	210
73	210
79	2212
80	210
81	310
97	7206
98	1912
99	110
100	310
111	8808
112	6206
113	9999
114	911
115	1011
131	310
132	110
133	110
146	1812
147	210
148	310
