Mass Spectrum: S-1-Propenylpropanethiosulfonate
Formula: C6 H12 O2 S2
Molecular weight: 180
Origin: S. Volkovich, Institute of Nutrition, Russia
m/z	RELATIVE INTENSITY
15	210
16	80
29	310
30	60
39	4014
40	210
41	9108
42	310
43	9999
44	110
45	7507
46	210
58	711
59	210
72	2813
73	2913
74	6306
75	210
89	611
90	210
137	290
138	80
147	430
148	110
151	410
165	210
166	110
180	611
181	110
182	110
