Mass Spectrum: S-Propylpropanethiosulfonate
Formula: C6 H14 O2 S2
Molecular weight: 182
Origin: S. Volkovich, Institute of Nutrition, Russia
m/z	RELATIVE INTENSITY
15	340
16	80
29	530
30	90
39	4914
40	210
41	9999
42	310
43	3313
44	210
45	5005
46	210
47	1311
48	210
74	6906
75	210
91	781
105	1311
106	210
107	711
149	210
153	190
167	310
168	110
182	911
183	110
184	110
