Mass Spectrum: n-Heptadecan-1,2-diol,bis-(trimethylsilyl)ether
Formula: C23 H52 O2 Si2
Molecular weight: 416
Origin: A.Pleshkova, Moscow,Russia
m/z	RELATIVE INTENSITY
39	240
40	80
41	460
42	100
43	861
44	100
52	180
53	220
54	420
55	2032
56	280
57	3813
58	380
59	500
60	120
67	260
68	360
69	2452
70	480
71	1341
72	240
73	9999
74	1221
75	2092
76	220
79	240
80	100
81	781
82	340
83	3813
84	240
85	1181
86	220
87	120
88	360
89	360
90	100
91	721
92	140
95	540
96	120
97	4094
98	460
99	761
100	120
101	380
102	100
103	3613
104	420
105	280
109	621
110	240
111	1812
112	420
113	901
114	240
115	460
116	280
117	100
123	220
125	821
126	100
127	1041
128	180
129	2012
130	260
131	180
132	100
133	1221
134	180
135	240
136	100
147	6005
148	1021
149	681
150	120
205	420
206	220
207	120
313	7006
314	1621
315	440
316	120
401	1221
402	500
403	180
416	621
417	360
418	120
