Mass Spectrum: 3.4-dimethyl-2,5-dioxo-2,5-dihydrothiophene
Formula: C6 H6 O2 S
Molecular weight: 142
Origin: S. Volkovich, Institute of Nutrition, Russia
m/z	RELATIVE INTENSITY
14	1812
15	2112
17	210
32	210
39	9999
40	310
41	1912
42	210
45	6306
46	210
53	3013
54	6406
55	510
60	611
61	210
71	1511
72	210
109	671
110	90
114	90
119	110
127	911
128	210
142	4314
143	410
144	410
