Mass Spectrum: Isonipecotic acid, N-ethoxycarbonyl-, ethyl ester
Formula: C11 H19 N O4
Molecular weight: 229
Origin: Zaikin V.G., TIPS RAS, Moscow, Russia
m/z	RELATIVE INTENSITY
26	30
27	470
29	2152
30	280
31	30
39	120
41	320
42	1041
43	210
45	90
53	140
54	240
55	1221
56	891
57	571
58	100
67	290
68	230
69	120
70	120
73	561
74	60
80	120
81	60
82	6486
83	530
84	631
85	40
86	140
87	30
96	120
99	40
100	440
101	320
102	70
110	450
111	90
112	160
114	200
115	90
126	1511
127	260
128	921
129	470
130	20
138	50
142	80
154	150
155	210
156	9999
157	961
158	70
182	20
184	2332
185	250
200	2532
201	260
214	150
228	20
229	1641
230	210
