Mass Spectrum: l-Leucine, N-benzyloxycarbonyl-N-methyl-, propyl ester
Formula: C18 H27 N O4
Molecular weight: 321
Origin: Zaikin V.G., TIPS RAS, Moscow, Russia
m/z	RELATIVE INTENSITY
27	30
39	50
41	50
42	190
43	40
44	30
51	20
57	100
63	20
65	300
73	20
77	10
88	60
89	90
90	70
91	9999
92	721
93	20
98	110
108	20
117	30
130	40
144	40
146	20
190	6396
191	871
192	50
220	40
234	3603
235	550
236	50
262	20
265	20
321	60
