Mass Spectrum: 5,7-Diethyl-1,2,3,4,6-pentathiepane
Formula: C6 H12 S5
Molecular weight: 244
Origin: S.Volkovich,Institute of Nutrition,Russia
m/z	RELATIVE INTENSITY
14	110
15	711
16	110
29	911
30	110
39	3213
40	310
41	9999
42	310
45	7307
46	510
47	611
59	1611
60	210
61	210
64	2012
65	110
66	310
73	3013
74	5805
75	210
76	310
106	7106
107	310
108	410
147	691
148	220
149	90
150	90
170	2512
171	210
172	310
179	340
180	2112
181	110
182	210
211	611
212	90
215	410
216	110
217	110
229	310
230	110
231	110
244	911
245	110
246	110
