Mass Spectrum: 4,6-Diethyl-1,2,3,5-tetrathiolane
Formula: C6 H12 S4
Molecular weight: 212
Origin: S.Volkovich,Institute of Nutrition,Russia
m/z	RELATIVE INTENSITY
15	310
16	110
29	410
30	110
39	1912
40	310
41	5905
42	410
45	4614
46	911
47	210
48	210
59	1011
60	210
61	210
69	1011
70	210
71	310
73	9999
74	4814
75	510
76	611
115	1211
116	210
117	210
138	1211
139	210
140	310
147	220
148	290
179	450
183	210
184	110
185	110
197	310
198	110
199	110
212	911
213	110
214	210
