Mass Spectrum: S-Methyl-1-propenethiosulfonate
Formula: C4 H8 O2 S2
Molecular weight: 152
Origin: S. Volkovich, Institute of Nutrition, Russia
m/z	RELATIVE INTENSITY
15	410
16	110
39	7106
40	310
41	9999
42	310
45	2913
46	811
47	1912
48	2112
73	1611
74	410
88	1511
89	210
105	1912
106	310
119	540
137	310
138	110
152	811
153	110
154	110
