Mass Spectrum: Terephthalic acid, heptyl pentyl ester
Formula: C20 H30 O4
Molecular weight: 334
Origin: V.G. Zaikin, R.S.Borisov, TIPS RAS, Moscow, Russia
m/z	RELATIVE INTENSITY
29	110
41	310
42	390
43	781
54	100
55	821
56	1361
57	1001
58	30
68	260
69	831
70	2672
71	380
76	210
98	1161
99	100
103	40
105	100
121	721
122	320
123	180
131	20
132	190
133	30
148	70
149	1641
150	200
151	20
152	80
162	80
167	9999
168	821
169	110
176	30
219	4004
220	571
221	40
237	8187
238	1151
239	110
247	3343
248	520
249	80
265	4024
266	611
277	40
334	70
