Mass Spectrum: Terephthalic acid, nonyl propyl ester
Formula: C20 H30 O4
Molecular weight: 334
Origin: V.G. Zaikin, R.S.Borisov, TIPS RAS, Moscow, Russia
m/z	RELATIVE INTENSITY
27	110
29	190
39	30
41	410
42	210
43	671
54	60
55	530
56	671
57	130
59	30
65	180
67	40
68	150
69	480
70	671
71	90
76	200
77	40
79	50
82	140
83	460
84	460
85	50
93	30
96	50
97	571
98	390
103	110
104	731
105	170
121	530
122	200
123	120
126	480
127	30
131	30
132	130
149	1621
150	170
151	20
162	30
163	30
164	50
165	20
167	5095
168	500
169	50
179	20
191	3443
192	460
193	40
209	9999
210	1311
211	130
275	2742
276	520
277	60
293	420
294	70
305	20
334	80
335	40
