Mass Spectrum: Succinic acid, butyl ethyl ester
Formula: C10 H18 O4
Molecular weight: 202
Origin: V.G. Zaikin, R.S.Borisov, TIPS RAS, Moscow, Russia
m/z	RELATIVE INTENSITY
27	450
28	470
29	1171
31	60
36	80
39	80
41	731
42	170
43	150
44	40
45	160
55	811
56	1011
57	751
63	40
69	20
70	30
73	681
74	410
75	70
83	20
99	30
100	290
101	9999
102	761
103	70
128	220
129	5865
130	410
131	40
147	380
157	380
