Mass Spectrum: Succinic acid, ethyl hexyl ester
Formula: C12 H22 O4
Molecular weight: 230
Origin: V.G. Zaikin, R.S.Borisov, TIPS RAS, Moscow, Russia
m/z	RELATIVE INTENSITY
26	30
27	300
28	260
29	651
30	30
31	40
39	110
40	30
41	581
42	390
43	1421
44	90
45	100
47	30
53	30
54	40
55	530
56	871
57	410
58	20
63	20
67	60
68	20
69	350
70	130
71	230
72	10
73	450
74	300
75	80
82	80
83	120
84	370
85	641
86	30
97	50
98	40
99	110
100	230
101	9999
102	761
103	90
105	20
111	20
112	20
113	190
127	30
128	290
129	7317
130	480
131	260
145	20
146	20
147	1091
148	60
185	200
