Mass Spectrum: Succinic acid, isobutyl pentyl ester
Formula: C13 H24 O4
Molecular weight: 244
Origin: V.G. Zaikin, R.S.Borisov, TIPS RAS, Moscow, Russia
m/z	RELATIVE INTENSITY
27	190
28	210
29	540
30	30
39	140
40	30
41	711
42	290
43	901
44	40
45	60
53	20
55	340
56	571
57	2993
58	120
69	70
70	200
71	621
72	40
73	180
74	210
75	50
84	70
85	30
99	30
100	130
101	9999
102	380
103	80
114	50
117	40
118	20
119	1451
120	60
130	70
141	70
144	20
156	20
157	440
158	30
159	30
169	20
171	721
172	70
175	270
176	20
189	220
190	20
