Mass Spectrum: Succinic acid, butyl isobutyl ester
Formula: C12 H22 O4
Molecular weight: 230
Origin: V.G. Zaikin, R.S.Borisov, TIPS RAS, Moscow, Russia
m/z	RELATIVE INTENSITY
27	270
28	350
29	881
31	40
39	130
40	20
41	1061
42	80
43	180
44	30
45	200
55	490
56	1001
57	3323
58	100
71	40
73	410
74	330
75	50
84	30
100	210
101	9999
102	470
103	60
114	30
119	831
128	80
130	120
157	1792
158	110
175	310
