Mass Spectrum: Carbonic acid, 3-chlorophenyl isobutyl ester
Formula: C11 H13 Cl O3
Molecular weight: 228
Origin: Zaikin V.G., Borisov R.S., TIPS RAS, Moscow, Russia
m/z	RELATIVE INTENSITY
27	160
29	1071
30	30
38	50
39	270
40	30
41	1511
42	80
43	160
44	80
50	70
51	40
55	180
56	170
57	2342
58	100
62	30
63	170
64	130
65	160
73	160
74	50
75	400
76	70
77	50
85	30
92	40
93	50
94	30
99	320
100	70
101	100
102	20
107	50
111	1101
113	360
114	20
127	40
128	9999
129	731
130	3423
131	230
141	110
143	30
155	100
157	30
228	70
230	20
