Mass Spectrum: Carbonic acid, 2,4,6-trichlorophenyl isobutyl ester
Formula: C11 H11 Cl3 O3
Molecular weight: 296
Origin: Zaikin V.G., Borisov R.S., TIPS RAS, Moscow, Russia
m/z	RELATIVE INTENSITY
27	220
29	1371
30	50
36	30
37	20
38	20
39	270
40	30
41	1912
42	100
43	280
44	90
53	20
55	240
56	330
57	3263
58	160
61	60
62	120
72	50
73	80
74	100
75	20
83	90
84	50
85	60
96	50
97	440
98	50
99	140
107	200
108	70
109	240
110	30
111	50
125	20
131	20
132	250
133	130
134	160
135	70
136	20
143	210
144	120
145	120
146	90
148	10
157	20
160	120
161	20
167	380
168	20
169	380
170	20
171	120
173	20
175	50
177	30
179	921
180	70
181	881
182	60
183	270
185	20
192	110
193	40
194	100
195	220
196	9999
197	821
198	9218
199	651
200	2863
201	190
202	320
209	60
211	50
219	20
223	360
224	20
225	340
226	20
227	100
241	20
243	20
