Mass Spectrum: 2-Chlorobenzoic acid, propargyl ester
Formula: C10 H7 Cl O2
Molecular weight: 194
Origin: Zaikin V.G., Borisov R.S., TIPS RAS, Moscow, Russia
m/z	RELATIVE INTENSITY
26	20
36	30
37	50
38	150
39	480
44	50
50	280
51	150
53	40
61	30
63	30
73	30
74	170
75	971
76	250
77	80
84	30
85	120
87	40
102	20
103	50
104	60
110	30
111	1942
112	200
113	681
114	140
115	1551
116	150
131	30
139	9999
140	761
141	3423
142	240
149	180
150	40
151	60
159	350
160	30
194	841
195	90
196	290
197	20
