Mass Spectrum: 2,6-Dinitro-9H-fluoren-9-one
Formula: C13 H6 N2 O5
Molecular weight: 270
Origin: Organic Synthesis Lab, MSU, Moscow.TRC 244
m/z	RELATIVE INTENSITY
40	601
41	80
44	530
50	160
55	140
57	160
62	200
63	230
67	140
69	200
71	110
73	220
74	821
75	520
76	410
77	240
78	140
81	170
82	140
83	160
84	120
85	210
86	340
87	430
88	180
89	100
91	120
95	100
96	210
97	210
98	711
99	530
100	520
109	140
110	230
111	400
112	140
113	90
115	140
121	140
122	260
123	420
124	390
125	160
126	250
127	110
128	110
135	100
136	280
137	821
138	1952
139	450
140	100
141	110
147	120
149	1491
150	6626
152	160
154	310
164	110
165	160
166	961
167	170
168	140
178	1051
179	160
182	100
184	450
185	90
191	110
193	100
194	571
195	140
196	3803
197	490
200	100
201	100
207	571
208	120
209	100
210	90
212	1051
213	190
224	2162
225	330
240	2542
241	470
254	190
270	9999
271	1461
272	270
