Mass Spectrum: Trifluoroacetamide, n-butyl-N-phenyl-
Formula: C12 H14 F3 N O
Molecular weight: 245
Origin: Nat. Inst. for Petroleum and Energy Research, Bartlesville, OK
m/z	RELATIVE INTENSITY
35	10
36	30
37	90
38	250
39	1842
40	210
41	3733
42	240
43	360
44	60
50	601
51	2402
52	390
53	200
54	80
55	681
56	190
57	2542
58	60
61	10
62	40
63	380
64	561
65	641
66	120
68	10
69	2032
70	50
73	10
74	100
75	130
76	280
77	6196
78	921
79	240
80	10
86	10
87	20
88	20
89	70
90	130
91	1231
92	591
93	160
94	330
95	80
96	30
97	90
102	50
103	180
104	3123
105	7287
106	1692
107	170
109	20
110	120
115	50
116	30
117	180
118	250
119	1291
120	3283
121	330
122	80
124	50
125	20
126	60
127	370
128	60
130	120
131	40
132	1722
133	170
134	220
140	20
141	80
142	70
145	40
146	130
147	50
148	110
152	140
154	260
155	40
168	20
170	180
172	210
173	20
174	90
175	60
176	2702
177	270
178	20
182	70
184	60
188	60
189	3984
190	360
191	10
201	60
202	9999
203	1401
204	120
216	170
217	30
226	170
227	10
230	290
231	40
244	20
245	2933
246	400
247	30
