Mass Spectrum: Trifluoroacetamide, N-methyl-N-(3-methylphenyl)-
Formula: C10 H10 F3 N O
Molecular weight: 217
Origin: Nat. Inst. for Petroleum and Energy Research, Bartlesville, OK
m/z	RELATIVE INTENSITY
36	40
37	60
38	190
39	1631
40	200
41	440
42	280
44	150
45	10
50	581
51	1161
52	530
53	310
54	60
55	50
56	90
57	10
58	30
59	10
60	60
61	60
62	250
63	881
64	320
65	3113
66	290
67	20
69	2032
74	140
75	120
76	230
77	1551
78	991
79	410
80	90
86	20
87	50
88	30
89	550
90	370
91	7547
92	1101
93	510
94	30
97	70
102	40
103	150
104	510
105	641
106	60
107	400
108	130
109	40
110	9469
111	290
116	10
117	50
118	781
119	581
120	5525
121	520
122	90
127	10
132	230
133	480
134	40
141	40
146	40
147	40
148	3073
149	280
150	40
170	70
198	190
200	30
202	130
216	611
217	9999
218	1121
219	70
