Mass Spectrum: Trifluoroacetamide, N-methyl-N-(2-methylphenyl)-
Formula: C10 H10 F3 N O
Molecular weight: 217
Origin: Nat. Inst. for Petroleum and Energy Research, Bartlesville, OK
m/z	RELATIVE INTENSITY
37	60
38	180
39	1391
40	140
41	350
42	721
43	10
44	130
45	20
50	611
51	1201
52	550
53	270
54	50
55	20
56	70
58	10
59	10
60	40
61	50
62	200
63	731
64	240
65	2722
66	280
67	20
69	2172
70	10
74	100
75	120
76	200
77	1351
78	861
79	380
80	30
86	20
87	10
88	20
89	460
90	290
91	5565
92	641
93	320
96	10
97	70
101	20
102	50
103	140
104	691
105	460
106	80
107	300
108	50
109	30
110	5385
111	160
116	20
117	260
118	1221
119	350
120	2712
121	200
128	10
130	90
132	180
133	701
141	30
146	50
147	90
148	9999
149	961
150	60
154	30
171	60
174	40
178	10
183	10
198	140
199	10
200	50
202	621
203	50
216	60
217	2632
218	340
