Mass Spectrum: 1,8-Dimethylcarbazole, N-trifluoroacetyl-
Formula: C16 H12 F3 N O
Molecular weight: 291
Origin: Nat. Inst. for Petroleum and Energy Research, Bartlesville, OK
m/z	RELATIVE INTENSITY
69	1521
78	110
90	50
98	150
165	410
166	180
167	230
177	190
178	310
179	891
191	360
192	1321
193	821
194	9999
195	1852
207	230
222	210
291	4554
