Mass Spectrum: Trifluoroacetamide, N-methyl-N-(4-methylphenyl)-
Formula: C10 H10 F3 N O
Molecular weight: 217
Origin: Nat. Inst. for Petroleum and Energy Research, Bartlesville, OK
m/z	RELATIVE INTENSITY
36	40
37	20
38	190
39	1191
40	160
41	350
42	220
43	10
44	100
50	510
51	991
52	490
53	250
54	30
56	50
58	30
59	30
60	60
61	40
62	210
63	631
64	240
65	2332
66	260
67	40
69	1812
70	661
73	20
74	140
75	110
76	160
77	1381
79	380
80	50
86	30
87	20
88	10
89	430
90	340
91	4584
92	1041
93	520
94	40
97	80
102	20
103	120
104	420
105	641
106	40
107	460
108	110
109	50
110	9999
111	310
116	30
117	100
118	961
119	530
120	5965
121	601
122	120
132	300
133	490
134	30
141	40
146	20
148	1661
149	150
150	10
170	80
190	160
199	10
202	120
216	170
217	8528
218	1011
219	70
