Mass Spectrum: 3-Methylindole, N-trifluoroacetyl-
Formula: C11 H8 F3 N O
Molecular weight: 227
Origin: Nat. Inst. for Petroleum and Energy Research, Bartlesville, OK
m/z	RELATIVE INTENSITY
37	50
38	150
39	480
40	30
41	10
44	190
50	771
51	1161
52	350
53	100
61	70
62	200
63	520
64	130
65	110
69	2042
73	10
74	350
75	681
76	741
77	3343
78	340
79	10
86	10
87	60
88	60
89	100
97	100
98	30
100	20
101	370
102	1521
103	2202
104	260
115	80
126	20
127	30
128	781
129	841
130	9999
131	1011
132	50
133	10
148	10
151	20
156	120
157	10
158	681
159	70
178	70
179	20
180	270
181	10
199	200
225	120
226	2142
227	9789
228	1101
229	70
