Mass Spectrum: 2-Aminoadipic acid, N-trifluoroacetyl-, di-n-butyl ester
Formula: C16 H26 F3 N O5
Molecular weight: 369
Origin: K.Leimer ET AL, J.Chrom., 141,121(1977)
m/z	RELATIVE INTENSITY
41	3603
55	2002
56	1201
57	3883
69	1081
70	871
87	1651
139	2192
152	7156
153	751
193	420
194	9999
195	1251
196	350
197	801
212	591
221	681
268	6786
295	420
296	1762
297	190
314	470
