Mass Spectrum: 1,4-Dimethylcarbazole, N-trifluoroacetyl-
Formula: C16 H12 F3 N O
Molecular weight: 291
Origin: Nat. Inst. for Petroleum and Energy Research, Bartlesville, OK
m/z	RELATIVE INTENSITY
36	70
38	60
39	280
41	10
50	270
51	280
62	20
63	300
64	80
65	40
69	1752
74	70
75	220
76	190
77	150
78	10
81	40
83	30
86	60
87	120
88	50
89	180
97	80
99	30
101	110
102	50
113	100
114	40
115	210
116	40
117	20
126	90
127	180
128	70
129	10
138	30
139	340
140	270
141	30
150	80
151	220
152	490
153	80
154	80
163	130
164	110
165	611
166	460
167	641
168	150
176	10
177	240
178	310
179	320
180	50
190	180
191	771
192	981
193	1481
194	9999
195	1391
196	40
207	50
221	10
222	801
223	140
244	160
276	90
277	20
291	4554
292	851
293	50
