Mass Spectrum: 2-Pyrrolidone carboxylic acid, N-trifluoroacetyl-, n-butyl ester
Formula: C11 H14 F3 N O4
Molecular weight: 281
Origin: K.Leimer ET AL, J.Chrom., 141, 121(1977)
m/z	RELATIVE INTENSITY
41	2562
43	921
55	1651
56	1421
57	4284
69	3663
77	961
78	1491
83	981
139	1351
152	5795
180	9999
181	3803
182	180
226	300
