Mass Spectrum: 1,2-Benzenediol, O,O'-di(isobutoxycarbonyl)-
Formula: C16 H22 O6
Molecular weight: 310
Origin: Zaikin V.G., Borisov R.S., TIPS RAS, Moscow, Russia
m/z	RELATIVE INTENSITY
27	70
29	500
30	10
39	90
41	811
42	40
43	60
44	30
50	10
51	10
52	30
53	20
55	110
56	80
57	2592
58	110
59	10
63	50
64	110
65	60
73	10
76	10
77	10
78	10
80	20
81	100
82	10
92	80
93	70
94	10
106	80
109	140
110	9999
111	561
112	40
121	10
123	10
124	10
133	20
136	20
137	330
138	20
155	20
166	50
210	130
211	10
295	20
