Mass Spectrum: 2-Chlorobenzoic acid, 2-chloroethyl ester
Formula: C9 H8 Cl2 O2
Molecular weight: 218
Origin: V.G. Zaikin, R.S.Borisov, TIPS RAS, Moscow, Russia
m/z	RELATIVE INTENSITY
27	170
49	40
50	230
51	120
61	30
62	30
63	100
65	40
73	20
74	140
75	851
76	230
77	70
84	30
85	100
87	30
104	50
105	30
110	40
111	1561
112	140
113	520
114	40
139	9999
140	621
141	3393
142	200
156	5615
157	410
158	1882
159	140
183	30
218	921
219	90
220	591
221	50
222	90
