Mass Spectrum: Carbonic acid, 2-biphenyl isobutyl ester
Formula: C17 H18 O3
Molecular weight: 270
Origin: V.G. Zaikin, R.S.Borisov, TIPS RAS, Moscow, Russia
m/z	RELATIVE INTENSITY
27	70
29	330
31	30
39	110
40	20
41	821
42	110
43	120
44	20
45	30
53	20
55	150
56	320
57	1702
58	70
63	240
73	30
76	60
77	30
82	50
83	110
85	130
86	40
89	30
101	20
102	30
113	20
114	20
115	320
116	30
118	20
119	30
126	20
127	30
139	160
140	30
141	450
142	200
143	20
145	20
150	20
151	100
152	420
153	420
154	60
155	30
165	40
168	180
169	1481
170	9999
171	1151
172	80
183	20
197	180
198	20
270	380
271	70
