Mass Spectrum: Carbonic acid, 2,3-dichlorophenyl isobutyl ester
Formula: C11 H12 Cl2 O3
Molecular weight: 262
Origin: V.G. Zaikin, R.S.Borisov, TIPS RAS, Moscow, Russia
m/z	RELATIVE INTENSITY
27	130
29	931
30	30
39	190
40	20
41	1471
42	70
43	180
44	30
55	170
56	290
57	2963
58	140
61	20
62	50
63	250
72	40
73	120
74	90
75	130
83	20
84	30
85	30
97	40
98	110
99	100
100	30
101	20
107	60
109	350
110	70
111	140
112	30
123	10
126	440
127	40
128	180
133	310
135	190
137	20
141	80
143	20
145	1011
146	80
147	661
148	50
149	110
158	30
160	20
161	60
162	9999
163	691
164	6176
165	420
166	1061
167	60
175	50
176	20
177	20
189	270
190	10
191	170
193	20
