Mass Spectrum: 4-Chlorobenzoic acid, 2-chloroethyl ester
Formula: C9 H8 Cl2 O2
Molecular weight: 218
Origin: V.G. Zaikin, R.S.Borisov, TIPS RAS, Moscow, Russia
m/z	RELATIVE INTENSITY
26	20
27	210
38	20
49	60
50	370
51	150
61	40
62	40
63	120
65	50
73	50
74	250
75	1151
76	310
77	70
84	30
85	130
87	40
103	20
104	90
110	70
111	2372
112	190
113	811
114	50
139	9999
140	711
141	3363
142	230
156	7777
157	561
158	2592
159	190
218	731
219	70
220	490
221	40
222	70
