Mass Spectrum: 17.alpha.-Methyl-5.alpha.-androstane-3.alpha.,17.beta.-diol, 2TMS derivative
Formula: C26 H50 O2 Si2
Molecular weight: 450
Origin: John Halket,Royal Holloway, University of London, UK
m/z	RELATIVE INTENSITY
27	10
29	40
39	20
41	160
43	250
44	40
45	210
46	20
47	100
53	60
54	20
55	300
56	20
57	40
58	30
59	110
60	40
61	150
62	10
63	10
65	40
67	370
68	60
69	140
70	20
71	30
73	3563
74	380
75	2572
76	190
77	230
78	40
79	450
80	70
81	500
82	50
83	70
84	10
85	40
86	10
87	20
88	10
89	50
91	450
92	80
93	500
94	100
95	380
96	60
97	50
98	10
99	40
101	100
102	20
103	50
104	30
105	410
106	150
107	561
108	150
109	210
110	20
111	30
112	10
113	70
115	500
116	80
117	200
118	50
119	250
120	90
121	250
122	60
123	70
124	10
125	20
127	100
128	50
129	681
130	1912
131	951
132	180
133	260
134	90
135	170
136	30
137	20
139	10
141	50
143	9999
144	1912
145	691
146	110
147	290
148	90
149	120
150	20
151	20
152	10
153	10
154	10
155	130
156	50
157	120
158	30
159	190
160	70
161	220
162	210
163	210
164	30
165	20
166	10
167	20
168	10
169	120
170	40
171	50
172	20
173	100
174	40
175	90
176	70
177	40
178	10
179	10
180	10
181	40
182	30
183	70
184	20
185	50
186	20
187	100
188	40
189	50
190	20
191	10
193	10
194	10
195	30
196	40
197	30
198	10
199	80
200	30
201	140
202	40
203	20
209	20
210	30
211	20
213	200
214	50
215	230
216	110
217	90
218	20
221	10
223	10
225	10
227	50
228	170
229	100
230	40
231	30
235	10
236	10
237	10
239	10
241	30
242	10
244	10
253	10
255	811
256	170
257	20
261	10
263	10
269	290
270	400
271	160
272	30
277	20
291	10
292	20
293	10
303	30
304	40
305	30
306	10
307	10
318	370
319	170
320	50
321	10
327	20
331	10
345	410
346	120
347	30
348	10
359	100
360	530
361	160
362	40
363	10
365	10
435	2622
436	1001
437	360
438	80
439	10
450	430
451	160
452	60
453	10
