Mass Spectrum: Fluoxymesterone, 2TMS derivative
Formula: C26 H45 F O3 Si2
Molecular weight: 480
Origin: John Halket,Royal Holloway, University of London, UK
m/z	RELATIVE INTENSITY
29	50
31	20
41	170
43	641
45	671
46	40
47	160
49	20
53	80
54	10
55	270
56	30
58	60
59	210
60	40
61	150
65	60
67	170
69	170
70	30
71	70
73	9999
74	921
75	2422
76	170
77	440
78	60
79	230
80	30
81	120
85	50
86	10
87	30
88	10
89	30
90	10
91	400
93	190
94	30
95	230
97	70
98	10
99	40
101	60
102	30
103	130
104	30
105	260
106	40
107	160
108	30
109	180
110	30
111	60
113	70
114	20
115	420
116	100
117	360
118	90
119	160
120	30
121	120
123	110
124	30
127	130
128	190
129	881
130	180
131	190
132	40
133	100
135	110
137	60
139	40
141	160
142	100
143	1071
144	470
145	200
146	90
147	160
149	90
150	30
151	90
152	50
153	90
155	160
156	60
157	170
158	50
159	110
160	50
161	150
162	50
163	90
164	40
165	190
166	60
167	130
168	70
169	190
170	50
171	100
172	30
173	110
174	30
177	130
178	70
179	190
180	110
181	240
182	100
183	190
185	90
186	30
187	70
189	60
190	20
191	140
192	90
193	661
194	170
195	230
196	140
197	120
198	40
199	70
200	20
201	80
202	40
203	60
204	40
205	100
206	70
207	260
208	571
209	270
210	80
211	80
212	40
213	50
214	50
215	70
216	40
217	90
219	140
220	80
221	120
222	50
223	90
224	50
225	70
226	30
227	50
229	80
230	50
231	90
232	120
233	170
234	100
235	90
236	90
237	170
238	120
239	80
240	60
241	60
243	80
244	40
245	80
246	50
247	130
248	50
250	40
251	270
252	140
253	100
258	50
259	70
260	40
262	40
263	130
264	70
265	100
266	30
267	110
269	50
271	50
272	30
273	70
274	40
275	50
277	50
278	70
282	90
283	80
285	80
286	60
287	60
288	30
289	40
291	40
292	30
295	270
296	100
297	140
298	50
299	140
300	90
301	300
302	110
303	100
304	40
305	40
307	30
311	70
313	50
315	260
316	90
317	140
319	711
320	220
321	130
322	80
324	10
326	60
331	70
332	40
333	90
335	4884
336	1371
337	781
338	190
339	60
347	50
348	430
349	130
350	150
351	40
352	40
355	180
357	360
358	120
359	50
361	40
362	120
363	60
364	30
371	50
372	50
375	1041
376	310
377	80
378	20
389	320
390	3783
391	1241
392	380
393	80
394	20
407	100
408	30
409	30
416	70
417	30
427	30
445	30
447	200
448	80
449	40
460	130
461	50
465	330
466	120
467	60
480	7026
481	2702
482	1031
483	190
484	50
