Mass Spectrum: 2'-Deoxyinosine, tris(trimethylsilyl) derivative
Formula: C19 H36 N4 O4 Si3
Molecular weight: 468
Origin: NIST Mass Spectrometry Data Center
m/z	RELATIVE INTENSITY
29	20
31	10
39	20
41	30
42	10
43	150
44	120
45	701
46	50
47	120
48	10
51	10
52	10
53	50
54	40
55	130
56	30
57	60
58	190
59	561
60	70
61	130
62	10
63	10
64	10
65	20
66	50
67	30
68	40
69	50
70	70
71	70
72	320
73	9999
74	951
75	1291
76	90
77	70
78	10
79	10
80	40
81	641
82	40
83	30
84	260
85	180
86	70
87	80
88	20
89	110
90	10
91	20
92	20
93	30
94	20
95	30
96	30
97	50
98	50
99	180
100	100
101	550
103	7907
104	791
105	350
106	30
107	10
108	10
109	20
110	150
111	260
112	60
113	150
114	30
115	110
116	220
117	1131
118	150
119	160
120	40
121	20
122	20
123	50
124	70
125	80
126	30
127	160
128	50
129	601
130	80
131	240
132	50
133	581
134	130
135	70
137	60
138	250
139	70
140	30
141	90
142	360
143	300
144	60
145	1091
146	160
147	981
148	190
149	160
150	80
151	40
152	40
153	30
154	20
155	651
156	130
157	280
158	60
159	40
160	20
161	20
162	30
163	170
164	60
165	110
166	300
167	80
168	40
169	831
170	1131
171	671
172	130
173	50
174	10
175	40
176	40
177	150
178	60
179	80
180	40
181	70
182	20
183	10
185	10
187	10
189	450
190	90
191	100
192	250
193	5075
194	771
195	240
196	20
197	10
199	10
201	10
202	10
203	50
204	40
205	70
206	90
207	811
208	1221
209	9018
210	1461
211	420
212	40
215	150
216	40
217	1591
218	360
219	1251
220	230
221	120
222	70
223	50
224	10
225	10
229	10
230	10
231	120
232	30
233	60
234	100
235	440
236	100
237	2322
238	651
239	160
240	30
241	10
242	50
243	60
244	30
245	160
246	50
247	100
248	20
249	20
250	90
251	40
252	10
253	10
254	10
259	100
260	100
261	50
262	30
263	40
264	10
265	170
266	40
267	90
268	20
269	10
273	10
275	50
276	10
277	10
279	40
280	80
281	510
282	130
283	80
284	20
287	10
288	120
289	40
290	10
291	10
292	10
293	20
294	10
295	20
297	10
305	10
307	310
308	90
309	60
310	20
311	10
319	10
321	20
322	10
323	50
324	30
325	10
335	110
336	180
337	90
338	30
339	10
347	10
349	50
350	140
351	60
352	160
353	50
354	20
355	10
360	30
361	10
362	10
363	90
364	30
365	150
366	40
367	20
377	10
378	120
379	40
380	20
381	10
423	10
424	10
439	10
440	10
453	290
454	110
455	50
456	10
468	390
469	140
470	70
471	20
