Mass Spectrum: Pyruvic acid ditbdms
Formula: C15 H32 O3 Si2
Molecular weight: 316
Origin: John Halket,Royal Holloway, University of London, UK
m/z	RELATIVE INTENSITY
15	130
27	350
29	1201
30	60
31	140
37	20
39	520
40	140
41	1411
42	801
43	1271
44	420
45	881
46	100
47	120
49	20
51	40
52	80
53	170
54	220
55	320
56	280
57	991
58	661
59	1151
60	120
61	100
62	30
64	20
65	30
66	260
67	190
68	400
69	200
70	360
71	140
73	6376
74	621
75	591
76	50
80	20
81	20
82	140
83	120
84	310
85	140
86	40
87	60
93	20
94	20
95	30
96	80
97	190
98	1992
99	591
100	190
101	80
102	50
103	60
105	30
109	160
110	70
111	30
112	150
113	120
114	20
115	130
117	150
119	60
121	20
123	30
125	150
126	30
129	20
131	741
132	130
133	671
134	100
135	80
136	20
139	9999
140	1361
141	400
142	30
143	40
145	140
147	3713
148	581
149	290
150	30
153	10
154	120
155	10
157	30
159	30
160	10
161	10
173	20
179	10
180	10
181	210
182	30
187	20
189	911
190	190
191	80
192	10
196	120
201	120
202	60
203	20
231	10
242	10
259	3393
260	691
261	290
262	40
301	90
302	30
303	20
