Mass Spectrum: N-Acetyl-L-phenylalanine, TMS derivative
Formula: C14 H21 N O3 Si
Molecular weight: 279
Origin: NIST Mass Spectrometry Data Center
m/z	RELATIVE INTENSITY
14	10
15	100
18	10
26	10
27	60
28	300
29	80
30	40
31	30
37	10
38	30
39	290
40	40
41	160
42	400
43	4884
44	410
45	1531
46	120
47	751
48	40
49	20
50	80
51	300
52	80
53	70
54	40
55	110
56	40
57	150
58	200
59	450
60	200
61	540
62	80
63	240
64	70
65	1071
66	80
67	20
68	50
69	20
70	40
71	40
73	4914
74	771
75	4374
76	400
77	1021
78	260
79	70
80	20
81	10
82	10
83	10
84	20
85	140
86	210
87	190
88	60
89	360
90	200
91	4224
92	611
93	250
94	30
95	10
98	20
99	50
100	120
101	80
102	420
103	1501
104	2943
105	320
106	20
107	10
112	10
113	10
114	40
115	100
116	1151
117	571
118	841
119	901
120	9999
121	961
122	40
123	10
127	10
128	100
129	120
130	1702
131	1211
132	330
133	80
135	901
136	130
137	60
138	10
142	130
143	70
144	320
145	350
146	8117
147	1011
148	621
149	80
150	20
151	10
158	120
159	60
160	110
161	1792
162	1942
163	270
164	20
165	10
172	20
173	60
174	20
175	20
176	230
177	250
178	50
179	20
180	10
181	10
186	10
188	110
189	100
190	40
192	280
193	80
194	540
195	110
196	30
197	10
201	10
202	10
203	20
205	7667
206	1331
207	410
208	60
209	10
217	10
218	80
219	370
220	8358
221	1541
222	651
223	90
224	20
234	60
235	80
236	170
237	40
238	10
246	10
264	2642
265	561
266	150
267	20
279	160
280	30
281	10
