Mass Spectrum: 17.alpha.-Hydroxypregnenolone, 2TMS derivative
Formula: C27 H48 O3 Si2
Molecular weight: 476
Origin: NIST Mass Spectrometry Data Center
m/z	RELATIVE INTENSITY
14	60
28	480
29	140
41	490
43	1732
45	871
46	50
47	200
53	160
54	30
55	871
56	50
57	130
58	60
59	390
60	80
61	280
65	130
66	50
67	691
68	40
69	300
70	40
71	130
73	9999
74	841
75	4384
76	280
77	571
78	130
79	981
80	70
81	1782
82	80
83	400
85	170
89	140
91	1631
92	260
93	1311
94	190
95	941
96	90
97	100
99	110
101	220
102	50
103	190
105	1672
106	290
107	1051
108	90
109	651
110	50
111	40
113	70
114	30
115	430
116	130
117	1011
118	210
119	1231
120	360
121	751
122	120
123	160
124	40
125	80
127	120
128	290
129	1982
130	430
131	1441
132	410
133	1261
134	220
135	370
136	60
137	90
139	30
141	240
142	330
143	3964
144	591
145	2322
146	490
147	981
148	140
149	260
150	50
151	70
153	40
155	651
156	350
157	2582
158	480
159	1481
160	310
161	260
162	30
165	90
166	30
167	180
168	90
169	861
170	280
171	1651
172	681
173	751
174	130
175	90
179	100
180	20
181	250
182	160
183	711
184	230
185	861
186	250
187	410
188	120
189	60
193	60
194	90
195	350
196	180
197	1151
198	320
199	631
200	120
201	70
202	50
205	30
207	210
208	90
209	390
210	170
211	1231
212	250
213	1001
214	220
215	50
216	30
219	30
221	100
222	50
223	150
224	110
225	1241
226	410
227	330
228	200
229	80
231	20
233	20
234	50
235	50
237	90
238	200
239	130
240	40
241	60
244	40
245	40
246	20
247	50
248	30
249	30
251	120
252	80
253	7787
254	1742
255	230
256	50
263	80
264	50
269	50
271	50
275	20
279	170
280	60
281	70
287	20
289	20
300	20
301	240
302	40
304	50
316	50
317	30
318	50
327	20
328	20
329	30
332	30
341	40
343	1471
344	561
345	250
346	70
347	20
359	40
371	110
374	30
415	20
417	30
418	20
424	20
431	60
432	40
433	3583
434	1261
435	601
436	110
437	30
445	30
461	180
462	40
464	30
475	60
476	80
477	40
