Mass Spectrum: 2-Hydroxyiminohexanoic acid, 2TMS derivative
Formula: C12 H27 N O3 Si2
Molecular weight: 289
Origin: John Halket,Royal Holloway, University of London, UK
m/z	RELATIVE INTENSITY
15	50
26	20
27	240
28	110
29	420
30	30
31	90
33	10
38	10
39	140
40	40
41	480
42	150
43	721
44	290
45	2082
46	150
47	430
48	20
49	20
51	20
52	30
53	80
54	140
55	500
56	340
57	220
58	430
59	1601
60	190
61	370
62	20
63	20
66	50
67	40
68	70
69	40
70	130
71	90
73	9999
74	1161
75	2162
76	160
77	100
78	10
80	30
81	30
82	430
83	70
84	320
85	80
86	240
87	70
89	981
90	90
91	70
92	10
94	10
95	10
96	20
97	40
98	110
99	70
100	120
101	40
102	30
103	130
104	20
105	50
106	10
107	10
109	10
110	100
111	20
112	40
113	80
114	160
115	210
116	60
117	150
118	30
119	60
120	10
124	20
126	140
127	40
129	2823
130	1772
131	861
132	180
133	981
134	150
135	100
136	10
137	10
138	10
140	130
141	30
142	210
143	90
144	50
145	20
147	4594
148	761
149	470
150	60
151	20
154	50
156	550
157	180
158	230
159	170
160	30
161	10
163	160
164	30
165	10
166	10
170	110
171	90
172	1551
173	250
174	90
175	20
176	10
184	250
185	40
186	40
187	10
188	30
189	10
190	10
198	10
200	1361
201	280
202	190
203	120
204	360
205	80
206	30
214	10
215	20
216	120
217	30
218	20
228	10
230	70
231	140
232	290
233	60
234	30
244	10
246	1361
247	6676
248	1491
249	621
250	90
251	10
260	50
261	80
262	20
263	10
272	20
274	3403
275	781
276	340
277	50
278	10
288	20
289	20
290	10
