Mass Spectrum: 5.beta.-Cholestan-3.alpha.-ol, methyl ether
Formula: C28 H50 O
Molecular weight: 402
Origin: NIST Mass Spectrometry Data Center
m/z	RELATIVE INTENSITY
26	30
27	200
29	721
30	30
31	30
33	20
38	20
39	270
40	100
41	3954
42	410
43	5545
44	170
45	581
46	30
50	20
51	50
53	801
54	280
55	6516
56	831
57	4564
58	540
59	140
62	10
63	10
64	10
65	280
66	170
67	3543
68	841
69	2682
70	380
71	3253
72	320
73	280
76	20
77	871
78	230
79	3783
80	721
81	5035
82	961
83	1672
84	621
85	420
86	50
87	50
88	20
89	20
90	20
91	2833
92	761
93	4674
94	2072
95	5445
96	801
97	1601
98	170
99	80
101	130
102	40
103	130
104	170
105	3904
106	2222
107	4544
108	1812
109	2813
110	480
111	540
112	70
113	70
115	280
116	70
117	671
118	450
119	2632
120	1752
121	2803
122	1411
123	1471
124	290
125	340
128	110
129	220
130	80
131	941
132	350
133	2262
134	1501
135	2652
136	881
137	390
138	190
139	80
140	10
141	50
142	40
143	190
144	110
145	1812
146	540
147	2823
148	1151
149	2322
150	400
151	220
152	210
153	50
154	20
155	40
156	20
157	130
158	100
159	1361
160	1001
161	3023
162	2232
163	881
164	130
165	70
166	40
167	20
169	10
171	100
172	80
173	1291
174	1011
175	1451
176	1251
177	350
178	60
179	150
180	130
181	100
182	20
183	10
184	10
185	60
186	40
187	751
188	611
189	631
190	180
191	70
192	60
193	120
194	30
197	10
198	10
199	190
200	60
201	1712
202	611
203	480
204	100
205	130
206	110
208	130
209	20
210	10
211	20
213	70
214	50
215	9999
216	6396
217	2803
218	400
219	80
220	60
221	30
222	20
225	10
226	10
227	40
228	10
229	661
230	2072
231	671
232	140
233	130
234	30
241	50
242	20
243	110
244	90
245	140
246	70
247	901
248	561
249	110
250	40
254	20
255	80
256	70
257	1221
258	260
259	120
260	280
261	160
262	260
263	50
269	20
271	20
272	10
273	50
274	621
275	360
276	110
277	30
285	130
286	40
287	120
288	70
289	20
299	50
300	30
301	70
302	40
303	10
312	20
313	90
314	140
315	520
316	1401
317	330
318	60
327	60
328	240
329	210
330	60
341	90
342	220
343	50
344	10
345	140
346	40
347	10
348	20
353	30
355	2512
356	701
357	120
358	30
368	20
370	8067
371	2492
372	330
373	50
387	140
388	40
400	10
402	921
403	290
404	40
