Mass Spectrum: L-2-Aminobutyric acid, N-methyl-, methyl ester
Formula: C6 H13 N O2
Molecular weight: 131
Origin: NIST Mass Spectrometry Data Center
m/z	RELATIVE INTENSITY
15	110
26	20
27	130
28	420
29	150
30	510
31	50
32	40
33	10
36	10
37	10
38	30
39	200
40	60
41	651
42	1591
43	230
44	611
45	100
51	10
52	20
53	10
54	110
55	170
56	591
57	1501
58	90
59	150
60	10
68	60
69	80
70	571
72	9999
73	460
74	90
83	10
84	10
86	10
87	60
88	40
98	10
102	1091
103	50
130	10
131	90
132	10
