Mass Spectrum: L-(-)-Arabitol, pentamethyl ether
Formula: C10 H22 O5
Molecular weight: 222
Origin: NIST Mass Spectrometry Data Center
m/z	RELATIVE INTENSITY
14	10
15	160
26	10
27	150
28	90
29	841
30	40
31	530
32	10
33	100
38	10
39	180
40	40
41	641
42	140
43	791
44	30
45	9999
46	230
47	320
48	10
50	10
51	20
52	10
53	170
54	60
55	320
56	130
57	230
58	901
59	5635
60	180
61	20
65	10
66	10
67	20
68	70
69	140
70	60
71	2542
72	550
73	1111
74	280
75	4174
76	130
77	20
81	40
82	10
83	60
84	30
85	320
86	40
87	160
88	1842
89	5165
90	220
91	20
95	30
96	10
97	30
98	110
99	70
101	8127
102	2082
103	821
104	50
105	230
106	10
111	10
113	130
114	40
115	130
116	60
117	110
118	10
119	40
121	10
127	100
128	20
129	10
131	100
132	530
133	761
134	60
135	10
143	20
145	2392
146	180
147	20
158	90
159	10
163	671
164	50
165	10
177	611
178	50
179	10
190	30
