Mass Spectrum: 2-Ketoglutaric acid, 2TBDMS derivative
Formula: C17 H34 O5 Si2
Molecular weight: 374
Origin: John Halket,Royal Holloway, University of London, UK
m/z	RELATIVE INTENSITY
15	30
27	260
28	310
29	871
30	30
31	90
37	10
39	290
41	1181
42	130
43	480
44	140
45	1051
46	70
47	400
48	20
49	20
50	10
51	30
52	30
53	70
55	691
56	330
57	1281
58	711
59	1151
60	180
61	240
62	20
63	10
66	250
69	30
70	30
73	9999
74	1021
75	2702
76	200
77	140
78	10
79	20
81	30
82	10
83	60
84	20
85	200
86	150
87	60
88	90
89	30
90	10
91	10
94	10
95	20
97	30
99	240
100	70
101	190
102	50
103	120
104	20
105	30
107	10
111	30
113	120
115	470
116	540
117	350
118	70
119	100
120	10
121	10
125	10
127	10
129	260
130	140
131	180
133	1001
134	160
135	130
136	10
137	10
141	20
142	10
143	40
144	40
145	40
147	2833
148	470
149	540
150	80
151	30
153	10
157	8217
158	951
159	420
160	40
161	20
162	10
169	10
171	20
172	10
173	40
174	10
175	40
176	20
177	10
181	10
182	10
183	20
185	1141
186	150
187	60
189	651
190	170
191	60
192	20
199	781
200	130
201	50
203	100
204	50
205	20
209	30
213	50
215	2402
216	430
217	150
218	10
219	10
227	20
231	30
243	20
245	40
246	10
247	10
259	30
260	10
261	10
273	520
274	130
275	50
276	10
289	721
290	180
291	80
292	10
293	10
301	50
302	20
317	2012
318	520
319	240
320	40
321	10
330	10
331	10
359	40
360	10
361	10
