Mass Spectrum: 3-Hydroxyphenylacetic acid, 2TBDMS derivative
Formula: C20 H36 O3 Si2
Molecular weight: 380
Origin: NIST Mass Spectrometry Data Center
m/z	RELATIVE INTENSITY
27	20
29	170
31	10
38	10
39	80
40	20
41	390
42	20
43	120
44	10
45	260
46	20
47	180
48	10
49	10
50	10
51	20
52	10
53	20
55	50
56	190
57	641
58	170
59	440
60	80
61	120
62	10
63	50
64	20
65	30
66	10
67	10
68	10
69	30
70	10
71	20
73	2793
74	330
75	4454
76	340
77	260
78	60
79	50
81	20
82	30
83	50
84	10
85	80
86	10
87	40
88	10
89	400
90	350
91	380
92	30
93	20
95	40
96	10
97	30
98	10
99	230
100	30
101	80
102	50
103	160
104	90
105	430
106	50
107	110
108	10
109	40
110	10
111	10
113	10
115	190
116	40
117	140
118	70
119	160
120	20
121	120
122	20
123	20
125	10
126	30
127	10
128	10
129	20
130	10
131	220
133	1832
135	460
136	60
137	90
138	10
139	10
143	20
144	10
145	90
147	1752
148	340
149	1151
150	170
151	100
152	10
153	10
154	10
157	10
159	30
160	10
161	270
162	60
163	550
164	891
165	310
166	70
167	20
173	30
174	10
175	60
176	20
177	210
179	3243
180	571
181	260
182	30
183	10
187	10
189	50
191	1051
192	210
193	180
194	30
195	280
196	50
197	20
203	20
205	7537
206	1521
207	851
208	150
209	240
210	50
211	30
215	10
217	10
219	80
220	20
221	440
222	100
223	420
224	90
225	90
226	20
227	10
231	10
233	210
234	40
235	80
236	20
237	110
238	30
239	20
247	20
248	10
249	60
250	10
251	40
252	10
253	40
254	10
261	10
263	20
265	270
266	80
267	571
268	130
269	50
270	10
277	10
278	10
279	40
281	2082
282	510
283	210
284	30
285	10
295	10
305	20
306	10
307	70
308	20
309	10
321	20
323	9999
324	3403
325	1341
326	250
327	40
347	10
349	10
365	350
366	110
367	40
368	10
379	10
380	20
381	10
