Mass Spectrum: DL-Glyceraldehyde, dimethyl ether
Formula: C5 H10 O3
Molecular weight: 118
Origin: NIST Mass Spectrometry Data Center
m/z	RELATIVE INTENSITY
15	380
26	60
27	280
28	180
29	1291
30	70
31	921
32	50
33	40
36	10
37	10
38	10
39	30
40	20
41	90
42	250
43	1111
44	240
45	9999
46	230
47	771
48	20
49	10
53	60
54	30
55	661
56	40
57	120
58	1101
59	4024
60	140
61	30
69	40
72	250
73	150
74	100
75	1141
76	30
77	10
84	60
85	500
86	70
87	1001
88	220
89	3643
90	150
91	10
101	20
103	540
104	40
105	20
116	711
117	60
118	1321
119	100
120	20
