Mass Spectrum: 17.alpha.-Hydroxyprogesterone, TMS derivative
Formula: C24 H38 O3 Si
Molecular weight: 402
Origin: NIST Mass Spectrometry Data Center
m/z	RELATIVE INTENSITY
15	50
26	40
29	230
36	50
39	230
41	941
42	180
43	2502
45	1211
46	130
47	250
48	30
51	70
52	60
53	460
54	70
55	1271
56	70
57	150
58	100
59	310
60	30
61	170
63	50
65	240
66	110
67	951
68	90
69	350
71	60
72	130
73	9999
74	981
75	2062
76	130
77	1321
78	260
79	1561
80	230
81	921
82	140
83	220
85	110
87	30
89	80
91	2172
92	330
93	1421
94	240
95	841
96	130
97	561
98	60
99	110
101	170
102	40
103	260
104	100
105	1461
106	240
107	1091
108	240
109	480
110	100
111	240
113	70
114	30
115	490
116	170
117	711
118	120
119	871
120	180
121	741
122	320
123	611
124	210
125	50
127	120
128	220
129	671
130	220
131	1141
132	150
133	941
134	390
135	500
136	220
137	190
138	30
139	30
141	260
142	190
143	3443
144	550
145	7687
146	991
147	1131
148	300
149	360
150	80
151	60
152	40
153	50
154	60
155	460
156	300
157	751
158	200
159	931
160	180
161	1071
162	130
163	230
164	70
165	150
166	100
167	190
168	30
169	721
170	180
171	651
172	250
173	771
174	220
175	561
176	70
177	70
179	90
180	70
181	400
182	120
183	320
184	50
185	300
186	110
187	470
188	260
189	170
193	130
194	110
195	400
196	150
197	170
198	60
199	290
200	100
201	380
202	90
203	40
204	20
209	270
210	130
211	941
212	240
213	470
214	110
215	120
216	100
217	20
218	30
219	30
221	80
222	70
223	100
224	60
225	190
226	130
227	1922
228	350
229	340
230	60
233	20
235	60
236	30
237	40
238	20
239	30
241	230
242	170
243	340
244	270
245	40
247	20
249	30
250	50
251	1461
252	380
253	140
255	50
258	370
259	40
261	20
265	40
267	40
269	6776
270	1361
271	220
279	30
283	50
285	30
286	50
287	20
295	140
296	50
297	40
302	20
312	40
316	50
317	30
320	20
329	40
343	140
344	70
345	30
356	40
357	40
358	50
359	7997
360	2292
361	621
362	150
371	10
373	20
387	70
388	50
