Mass Spectrum: Lanostan-3-yl acetate
Formula: C32 H56 O2
Molecular weight: 472
Origin: John Halket,Royal Holloway, University of London, UK
m/z	RELATIVE INTENSITY
15	80
27	210
29	470
39	200
41	2122
43	9999
44	270
45	100
53	290
55	2752
56	420
57	2252
58	120
59	60
60	40
61	70
65	140
67	1802
68	410
69	3063
70	370
71	1311
72	140
77	410
79	1341
80	350
81	2562
82	2002
83	1872
84	350
85	310
86	30
91	1041
92	230
93	2212
94	691
95	3643
96	921
97	791
98	90
99	80
103	70
105	1241
106	430
107	2452
108	891
109	2242
110	340
111	500
112	80
113	50
115	80
116	40
117	220
118	200
119	1471
120	921
121	2302
122	1001
123	1421
124	260
125	280
126	50
127	90
128	80
129	90
130	50
131	340
132	290
133	1121
134	1211
135	2572
136	1541
137	1141
138	440
139	320
140	50
141	70
142	40
143	80
145	500
146	240
147	1011
148	520
149	1081
150	931
151	320
152	110
153	100
157	60
158	40
159	470
160	250
161	1882
162	561
163	741
164	150
165	120
166	30
167	50
171	60
173	821
174	280
175	1521
176	931
177	520
178	100
179	80
181	30
185	50
186	30
187	380
188	1081
189	981
190	771
191	350
192	80
193	90
195	100
199	50
201	500
202	310
203	320
204	140
205	130
206	200
207	260
208	60
213	40
214	30
215	540
216	470
217	310
218	80
219	100
220	60
221	150
222	180
223	60
224	40
229	1201
230	330
231	260
232	70
233	70
234	30
235	140
236	70
241	50
243	170
244	60
245	50
248	5065
249	951
250	120
255	30
257	2372
258	651
259	711
260	160
261	120
262	130
263	40
272	1231
273	420
274	130
275	140
276	400
277	110
285	50
289	1281
290	420
291	80
297	30
299	190
300	60
301	80
303	70
317	4404
318	1561
319	350
320	40
327	70
328	30
329	50
332	1371
333	360
334	50
341	30
343	50
357	60
369	350
370	110
371	30
397	440
398	170
411	30
412	350
413	170
414	50
457	190
458	60
472	470
473	170
