Mass Spectrum: Dopamine, N,N-dimethyl-, dimethyl ether
Formula: C12 H19 N O2
Molecular weight: 209
Origin: NIST Mass Spectrometry Data Center
m/z	RELATIVE INTENSITY
15	20
27	10
28	20
29	40
30	150
38	10
39	80
40	10
41	30
42	290
43	90
44	30
50	30
51	110
52	50
53	50
54	10
55	20
56	60
57	70
58	9999
59	350
60	10
62	10
63	50
64	20
65	130
66	20
67	10
70	10
71	10
72	10
74	10
75	10
76	10
77	140
78	120
79	80
80	20
81	10
89	40
90	40
91	100
92	20
93	20
94	20
95	10
102	10
103	30
104	10
105	70
106	80
107	130
108	40
109	10
118	20
119	30
120	20
121	40
122	10
131	10
132	10
133	10
134	20
135	40
136	10
148	10
149	30
150	40
151	110
152	10
162	10
163	10
164	30
165	50
166	10
178	10
192	20
193	10
