Mass Spectrum: Dulcitol, hexamethyl ether
Formula: C12 H26 O6
Molecular weight: 266
Origin: NIST Mass Spectrometry Data Center
m/z	RELATIVE INTENSITY
15	110
26	10
27	100
28	60
29	611
30	30
31	390
32	10
33	70
39	120
40	30
41	510
42	110
43	591
45	7657
46	180
47	280
48	10
50	10
51	20
52	10
53	140
54	50
55	260
56	110
57	180
58	350
59	4434
60	150
61	20
65	20
66	10
67	30
68	60
69	130
70	40
71	1692
72	270
73	1151
74	260
75	2472
76	80
77	20
78	10
79	20
80	10
81	60
82	20
83	60
84	60
85	330
86	50
87	130
88	1932
89	7537
90	340
91	40
95	40
96	10
97	40
98	120
99	90
101	9999
102	1281
103	821
104	50
105	10
109	10
110	10
111	30
112	10
113	230
114	120
115	180
116	30
117	40
119	40
125	20
126	10
127	60
128	10
129	30
131	310
132	170
133	2012
134	140
135	20
139	20
141	10
145	5215
146	410
147	50
157	530
158	50
159	10
160	20
163	10
165	70
166	10
171	20
175	10
177	1932
178	170
179	20
189	220
190	20
202	10
207	100
208	10
221	70
222	10
