Mass Spectrum: trans-Dehydroandrosterone, methyl ether
Formula: C20 H30 O2
Molecular weight: 302
Origin: NIST Mass Spectrometry Data Center
m/z	RELATIVE INTENSITY
15	100
16	10
25	10
26	20
27	581
28	330
29	1211
30	60
31	120
33	100
37	10
38	30
39	1311
40	290
41	6816
42	661
43	1722
44	110
45	1792
46	50
50	40
51	460
52	260
53	2692
54	400
55	5765
56	510
57	741
58	741
59	410
60	30
62	10
63	170
64	120
65	1712
66	530
67	3583
68	420
69	971
70	60
71	5765
72	540
73	601
74	50
75	70
76	60
77	4304
78	1171
79	7026
80	911
81	3954
82	440
83	480
84	190
85	1091
86	170
87	270
88	50
89	150
90	90
91	9999
92	2072
93	6706
94	1651
95	3313
96	460
97	6176
98	851
99	200
100	200
101	80
102	160
103	1081
104	811
105	8978
106	2142
107	6376
108	1191
109	1501
110	510
111	691
112	90
113	70
114	100
115	2142
116	921
117	3583
118	1231
119	6336
120	3223
121	6005
122	1181
123	1621
124	530
125	260
126	80
127	430
128	1702
129	2502
130	1061
131	3823
132	1421
133	3163
134	941
135	2452
136	540
137	881
138	250
139	510
140	60
141	1051
142	771
143	3323
144	1031
145	4504
146	1301
147	1571
148	1241
149	1561
150	530
151	280
152	260
153	330
154	240
155	801
156	510
157	2572
158	921
159	4034
160	1031
161	1401
162	400
163	571
164	160
165	230
166	60
167	200
168	150
169	701
170	350
171	2282
172	1111
173	2032
174	1611
175	791
176	1271
177	1371
178	300
179	120
180	70
181	350
182	170
183	631
184	250
185	1481
186	480
187	961
188	380
189	611
190	150
191	80
192	20
193	20
194	20
195	470
196	220
197	611
198	230
199	1511
200	460
201	671
202	420
203	1171
204	210
205	80
206	20
208	40
209	180
210	100
211	711
212	330
213	3964
214	1331
215	470
216	210
217	80
218	30
219	20
220	10
222	40
223	110
224	60
225	60
226	230
227	1051
228	2172
229	1071
230	1191
231	5275
232	961
233	90
234	10
235	30
236	20
237	1321
238	230
239	40
240	20
241	550
242	1261
243	270
244	140
245	90
246	30
247	30
248	20
250	20
251	40
252	180
253	110
255	7507
256	1511
257	190
258	30
259	80
260	170
261	40
266	10
270	8598
271	1822
272	210
273	100
274	250
275	50
276	10
284	20
285	20
286	20
287	821
288	180
289	10
293	10
298	10
300	30
302	5745
303	1291
304	140
305	10
306	10
