Mass Spectrum: D-2-Aminobutyric acid, N-methyl-, methyl ester
Formula: C6 H13 N O2
Molecular weight: 131
Origin: NIST Mass Spectrometry Data Center
m/z	RELATIVE INTENSITY
14	10
15	110
26	20
27	140
28	430
29	160
30	540
31	40
32	50
33	10
36	10
37	10
38	20
39	210
40	50
41	641
42	1591
43	220
44	621
45	100
51	10
52	30
53	20
54	120
55	180
56	581
57	1521
58	100
59	150
60	10
67	10
68	60
69	70
70	561
72	9999
73	490
74	80
84	10
85	10
86	10
87	50
88	40
98	10
101	20
102	1101
103	60
104	10
130	10
131	100
132	10
