Mass Spectrum: Estriol, trimethyl ether
Formula: C21 H30 O3
Molecular weight: 330
Origin: NIST Mass Spectrometry Data Center
m/z	RELATIVE INTENSITY
15	80
27	120
28	50
29	390
30	20
31	100
33	70
38	10
39	310
40	60
41	1481
42	160
43	611
45	1812
46	40
47	90
50	20
51	130
52	70
53	571
54	100
55	1641
56	170
57	190
58	210
59	781
60	20
61	10
62	10
63	90
64	40
65	370
66	90
67	581
68	100
69	250
71	5705
72	370
73	320
74	40
75	220
76	60
77	771
78	290
79	691
80	90
81	520
82	110
83	230
84	70
85	841
86	90
87	40
88	1001
89	400
90	70
91	1591
92	250
93	510
94	130
95	280
96	80
97	951
98	280
99	270
100	40
101	260
102	220
103	520
104	240
105	520
106	130
107	350
108	110
109	661
110	170
111	631
112	180
113	90
115	2082
116	611
117	591
118	130
119	300
120	60
121	971
122	210
123	250
124	691
125	420
126	100
127	681
128	1451
129	1031
130	340
131	561
132	210
133	170
134	250
135	320
136	70
137	90
138	20
139	120
140	70
141	781
142	330
143	430
144	761
145	941
146	500
147	2262
148	290
149	210
150	40
151	110
152	330
153	460
154	230
155	310
156	110
157	240
158	1211
159	1621
160	1341
161	500
162	60
163	40
164	50
165	540
166	240
167	330
168	140
169	210
170	140
171	1912
172	991
173	2272
174	1962
175	270
176	50
177	80
178	190
179	280
180	100
181	230
182	170
183	280
184	360
185	771
186	971
187	561
188	90
189	60
190	100
191	90
192	40
193	120
194	90
195	230
196	230
197	1031
198	651
199	1271
200	330
201	140
202	70
203	110
204	90
205	50
206	20
207	40
208	80
209	260
210	260
211	881
212	951
213	581
214	230
215	70
216	30
217	20
218	10
219	20
220	10
221	30
222	40
223	230
224	150
225	1011
226	450
227	1281
228	360
229	5775
230	1061
231	390
232	60
233	20
234	10
235	100
236	40
237	260
238	190
239	1031
240	330
241	160
242	100
243	120
244	1942
245	330
246	40
247	10
249	10
250	20
251	200
252	70
253	841
254	160
255	90
256	30
257	40
258	20
259	10
263	10
265	160
266	270
267	340
268	90
269	180
270	530
271	1081
272	300
273	60
281	10
283	240
284	60
285	200
286	50
287	10
297	50
298	290
299	80
300	20
302	10
315	20
316	10
328	20
330	9999
331	2302
332	300
333	40
