Mass Spectrum: Epitestosterone, methyl ether
Formula: C20 H30 O2
Molecular weight: 302
Origin: NIST Mass Spectrometry Data Center
m/z	RELATIVE INTENSITY
14	10
15	60
26	20
27	450
28	130
29	1081
30	30
31	130
32	30
33	70
36	10
37	10
38	10
39	1381
40	330
41	4714
42	550
43	1631
44	40
45	1281
46	20
49	10
50	70
51	460
52	360
53	2662
54	440
55	6156
56	360
57	781
58	2142
59	741
60	40
61	10
62	20
63	150
64	100
65	1501
66	581
67	4014
68	741
69	721
71	4904
72	1171
73	140
74	30
75	20
76	20
77	4114
78	1061
79	6246
80	931
81	2622
82	340
83	611
84	100
85	540
86	160
87	310
89	110
91	7687
92	1211
93	4064
94	1311
95	2452
96	520
97	721
98	180
99	250
100	110
101	250
102	130
103	761
104	601
105	5965
106	1471
107	3473
108	1211
109	1782
110	510
111	1922
112	180
113	80
114	50
115	1201
116	470
117	2092
118	721
119	3713
120	1591
121	2913
122	2172
123	2302
124	8067
125	1241
126	100
127	220
128	891
129	1241
130	631
131	3263
132	951
133	2632
134	2292
135	1331
136	971
137	2602
138	671
139	130
140	30
141	480
142	370
143	931
144	811
145	2132
146	3003
147	8798
148	3083
149	1902
150	360
151	180
152	110
153	180
154	120
155	450
156	240
157	891
158	480
159	1702
160	751
161	941
162	881
163	540
164	140
165	651
166	240
167	170
168	80
169	360
170	210
171	751
172	390
173	911
174	1772
175	550
176	330
177	290
178	761
179	1852
180	360
181	270
182	90
183	280
184	250
185	1251
186	470
187	1661
188	430
189	450
190	120
191	50
192	50
193	100
194	30
195	170
196	80
197	310
198	160
199	500
200	530
201	791
202	500
203	230
204	110
205	20
206	20
207	40
208	10
209	170
210	120
211	1301
212	320
213	1341
214	350
215	340
216	150
217	430
218	170
219	30
220	50
221	10
222	10
223	70
224	110
225	110
226	1111
227	791
228	1912
229	1862
230	360
231	320
232	90
233	10
237	370
238	80
239	70
240	20
241	130
242	230
243	110
244	170
245	370
246	90
247	20
249	10
251	40
252	340
253	210
254	60
255	460
256	120
257	40
258	140
259	60
260	1892
261	350
262	50
268	20
269	120
270	1061
271	250
272	30
273	120
274	80
275	10
284	270
285	170
286	30
287	741
288	160
289	20
293	10
295	10
300	20
302	9999
303	2142
304	230
305	30
