Mass Spectrum: 2,5-Dihydroxybenzoic acid, 3TBDMS derivative
Formula: C25 H48 O4 Si3
Molecular weight: 496
Origin: NIST Mass Spectrometry Data Center
m/z	RELATIVE INTENSITY
27	10
29	130
31	10
39	40
41	290
42	10
43	50
45	170
46	10
47	20
53	10
55	30
56	150
57	611
58	100
59	420
60	30
61	30
63	10
65	10
67	10
69	10
71	10
73	6466
74	601
75	450
76	30
77	30
78	10
79	20
81	10
83	50
84	10
85	60
86	10
87	10
89	20
90	10
91	120
92	10
93	30
95	30
97	20
98	10
99	80
100	20
101	10
102	10
103	60
104	30
105	140
106	20
107	30
108	10
109	20
110	10
111	20
112	10
113	10
115	130
116	20
117	50
118	10
119	80
120	20
121	60
122	10
123	20
126	10
127	10
128	10
129	20
130	10
131	60
132	20
133	380
134	70
135	150
136	20
137	50
138	10
139	10
141	160
143	40
144	10
145	40
147	300
148	60
149	260
150	80
151	60
152	10
153	20
154	10
155	20
157	30
158	10
159	20
160	10
161	40
162	10
163	130
164	40
165	60
166	30
167	50
168	10
169	10
171	10
173	10
174	10
175	20
176	10
177	70
178	60
179	100
180	20
181	50
182	10
183	10
185	10
187	10
189	30
190	10
191	140
192	40
193	170
194	40
195	110
196	30
197	20
199	10
201	10
203	20
204	10
205	30
206	10
207	170
208	40
209	140
210	30
211	30
212	10
215	10
216	10
217	30
218	10
219	40
220	10
221	50
222	30
223	550
224	130
225	90
226	20
227	10
231	10
233	60
234	20
235	50
236	20
237	100
238	20
239	90
240	20
241	20
247	20
248	10
249	60
250	20
251	330
252	80
253	130
254	30
255	20
261	10
263	20
264	10
265	110
266	40
267	581
268	170
269	90
270	20
271	10
273	10
275	20
276	10
277	30
278	10
279	60
280	20
281	380
282	100
283	130
284	30
285	20
289	10
291	90
292	30
293	100
294	30
295	30
297	260
298	110
299	50
300	10
305	10
307	150
308	50
309	310
310	90
311	70
312	20
313	10
321	20
323	140
324	60
325	410
326	120
327	50
328	10
333	10
335	10
337	10
339	30
340	10
341	10
349	100
350	30
351	30
352	10
353	10
354	20
355	10
363	30
364	10
365	200
366	60
367	110
368	30
369	20
381	130
382	60
383	160
384	50
385	20
386	10
397	20
398	10
409	10
423	40
424	20
425	20
426	10
437	40
439	9999
440	4894
441	2342
442	591
443	140
444	30
481	390
482	160
483	80
484	20
495	10
496	10
