Mass Spectrum: 17.alpha.-Hydroxypregnenolone, dimethyl ether
Formula: C23 H36 O3
Molecular weight: 360
Origin: NIST Mass Spectrometry Data Center
m/z	RELATIVE INTENSITY
15	60
26	10
27	150
28	70
29	520
30	30
31	110
33	50
39	350
40	70
41	2863
42	300
43	5075
44	130
45	1071
46	30
50	20
51	120
52	60
53	1111
54	160
55	2903
56	270
57	300
58	230
59	891
60	30
61	20
63	30
65	681
66	200
67	1872
68	140
69	430
71	2923
72	270
73	500
74	20
75	30
76	30
77	1822
78	440
79	3103
80	420
81	2833
82	260
83	651
84	110
85	1381
86	150
87	60
88	100
89	100
90	20
91	5115
92	651
93	2833
94	621
95	1882
96	190
97	520
98	130
99	170
100	70
101	581
102	120
103	450
104	320
105	4224
106	611
107	2532
108	490
109	1431
110	230
111	1021
112	140
113	70
114	190
115	801
116	420
117	2052
118	550
119	3333
120	781
121	1661
122	280
123	651
124	190
125	240
126	70
127	200
128	1011
129	1641
130	641
131	2492
132	731
133	2372
134	430
135	961
136	150
137	350
138	100
139	60
140	20
141	651
142	540
143	2442
144	611
145	3793
146	781
147	1641
148	290
149	360
150	50
151	150
152	90
153	220
154	140
155	781
156	340
157	3673
158	861
159	3023
160	520
161	520
162	90
163	130
164	60
165	210
166	100
167	180
168	140
169	671
170	260
171	2622
172	1061
173	1061
174	210
175	130
176	40
177	230
178	60
179	90
180	50
181	240
182	140
183	901
184	270
185	1261
186	310
187	510
188	120
189	280
190	40
191	70
193	60
194	30
195	160
196	120
197	1722
198	420
199	911
200	160
201	100
202	40
203	80
204	20
205	30
206	20
207	50
209	130
210	70
211	1521
212	410
213	1511
214	370
215	110
216	20
217	20
219	10
220	20
221	70
222	10
223	100
224	130
225	1581
226	350
227	340
228	260
229	130
230	40
231	40
232	20
233	20
234	10
235	20
236	20
237	120
238	280
239	150
240	50
241	40
242	10
243	310
244	40
245	150
246	120
247	30
248	20
249	10
251	100
253	9999
254	1992
255	330
256	50
257	40
258	70
259	80
260	70
261	10
263	80
264	20
268	10
269	100
270	30
271	10
272	10
276	10
279	30
281	110
282	20
283	50
285	7337
286	1672
287	190
288	30
295	30
296	40
297	20
298	10
301	60
302	20
303	10
313	50
314	20
315	70
317	8398
318	1792
319	230
320	10
328	30
345	20
356	10
358	10
359	30
360	60
361	10
