Mass Spectrum: DL-5-Hydroxylysine, 4TMS derivative
Formula: C18 H46 N2 O3 Si4
Molecular weight: 450
Origin: NIST Mass Spectrometry Data Center
m/z	RELATIVE INTENSITY
15	20
28	150
29	50
30	220
31	30
41	100
42	60
43	370
44	280
45	1001
46	110
47	200
49	30
53	40
54	60
55	220
56	350
57	260
58	160
59	681
60	120
61	110
65	20
67	30
68	931
69	90
70	210
71	50
72	290
73	9999
74	1231
75	1732
76	140
77	130
80	80
81	50
82	831
83	80
84	70
85	60
86	200
87	100
88	80
89	50
90	50
96	60
97	40
98	90
99	150
100	1852
101	510
102	8928
103	991
104	420
105	50
106	20
108	20
109	80
110	40
111	30
112	120
113	80
114	180
115	1902
116	591
117	320
118	80
119	50
120	10
124	20
126	130
127	110
128	1772
129	490
130	350
131	320
132	280
133	540
134	100
135	60
136	20
138	50
139	30
140	160
141	70
142	711
143	180
144	110
145	50
146	220
147	2482
148	500
149	240
150	50
151	30
152	70
153	50
154	831
155	510
156	621
157	100
158	110
159	80
160	250
161	60
162	60
163	20
164	30
165	20
166	70
167	20
168	60
169	90
170	200
171	260
172	4614
173	701
174	430
175	80
176	100
177	30
178	20
181	60
182	90
183	50
184	70
185	20
186	701
187	130
188	210
189	80
190	70
191	190
192	60
194	20
196	20
198	40
199	110
200	260
201	50
202	160
203	100
204	380
205	90
206	60
207	30
212	10
213	20
214	50
215	50
216	480
217	260
218	561
219	2833
220	581
221	300
222	60
223	20
226	30
227	120
228	160
229	70
230	140
231	100
232	6085
233	1391
234	540
235	90
237	10
238	20
239	10
240	20
241	10
242	100
243	1952
244	1411
245	671
246	200
247	40
248	10
254	20
255	110
256	120
257	40
258	1271
259	581
260	210
261	210
262	50
263	20
267	10
269	10
270	30
271	280
272	170
273	180
274	70
275	20
276	20
277	10
285	10
287	20
288	40
289	20
290	10
291	40
292	30
293	10
301	10
302	10
304	10
305	10
317	200
318	90
319	40
320	10
328	10
330	10
331	20
332	70
333	30
334	20
335	10
343	20
344	10
345	100
346	250
347	90
348	40
349	370
350	120
351	60
352	10
360	540
361	170
362	70
363	40
364	10
378	70
379	40
380	20
381	10
421	10
435	100
436	30
437	20
438	10
450	140
451	70
452	40
453	10
