Mass Spectrum: l-2-Aminobutyric acid, methyl ester
Formula: C5 H11 N O2
Molecular weight: 117
Origin: NIST Mass Spectrometry Data Center
m/z	RELATIVE INTENSITY
15	90
18	40
26	30
27	150
28	621
29	300
30	761
31	40
32	10
33	420
36	10
37	10
38	20
39	160
40	40
41	1641
42	370
43	360
44	50
45	20
46	10
51	10
52	30
53	10
54	100
55	80
56	561
57	200
58	9999
59	480
60	200
61	10
68	10
69	50
70	30
74	30
84	10
88	1041
89	40
90	10
117	20
