Mass Spectrum: (R)-3-Hydroxybutyric acid, 2TMS derivative
Formula: C10 H24 O3 Si2
Molecular weight: 248
Origin: NIST Mass Spectrometry Data Center
m/z	RELATIVE INTENSITY
15	20
27	30
28	20
29	70
30	10
31	30
39	80
40	20
41	270
42	110
43	540
44	260
45	1351
46	100
47	500
48	20
49	20
51	20
52	40
53	30
54	10
55	110
56	20
57	100
58	210
59	611
60	110
61	310
62	20
63	10
66	711
68	30
69	230
70	50
71	70
72	350
73	6586
74	651
75	2142
76	150
77	90
80	10
81	10
83	10
85	60
86	10
87	80
88	1341
91	20
97	10
98	10
99	150
100	20
101	350
102	50
103	80
104	10
105	50
106	10
109	60
113	20
115	581
117	5155
118	571
119	260
120	20
129	40
130	911
131	470
132	100
133	841
134	120
135	70
136	10
142	10
143	170
144	20
145	20
147	9999
148	1651
149	901
150	90
151	20
157	30
158	20
159	10
161	10
162	10
163	20
164	10
173	10
175	20
189	330
191	3113
192	571
193	260
194	30
195	10
203	10
204	280
205	50
206	20
217	70
218	10
219	10
231	20
233	1181
234	240
235	110
236	10
247	20
248	10
