Mass Spectrum: 17.alpha.-Hydroxypregnenolone, TMS derivative
Formula: C24 H40 O3 Si
Molecular weight: 404
Origin: NIST Mass Spectrometry Data Center
m/z	RELATIVE INTENSITY
15	40
26	30
27	140
29	450
30	10
31	70
38	20
39	240
40	50
41	1732
42	160
43	5695
44	400
45	1321
46	70
47	410
48	30
49	30
50	10
51	50
52	20
53	651
54	100
55	2672
56	170
57	921
58	370
59	901
60	120
61	510
62	30
63	30
65	340
66	120
67	1742
68	220
69	741
70	140
71	1101
72	300
73	9999
74	991
75	5375
76	420
77	1281
78	240
79	2482
80	320
81	2552
82	260
83	540
84	80
85	751
86	80
87	731
88	80
89	180
90	40
91	3693
92	591
93	2532
94	460
95	1922
96	210
97	410
98	100
99	250
100	200
101	500
102	70
103	440
104	310
105	3493
106	791
107	2152
108	561
109	931
110	160
111	270
112	30
113	240
114	50
115	781
116	400
117	1521
118	571
119	3163
120	881
121	1371
122	330
123	530
124	150
125	200
126	50
127	230
128	550
129	9348
130	1631
131	2462
132	691
133	1812
134	410
135	781
136	160
137	270
138	50
139	110
140	30
141	480
142	530
143	2362
144	841
145	2973
146	771
147	1231
148	440
149	340
150	60
151	270
152	60
153	180
154	120
155	681
156	380
157	1651
158	1251
159	2752
160	741
161	881
162	230
163	651
164	130
165	220
166	70
167	150
168	210
169	1141
170	310
171	1401
172	661
173	1702
174	450
175	500
176	120
177	210
178	60
179	130
180	70
181	330
182	210
183	701
184	270
185	1641
186	631
187	1111
188	370
189	741
190	140
191	170
192	60
193	120
194	100
195	420
196	200
197	1111
198	350
199	1191
200	530
201	540
202	140
203	170
204	70
205	80
206	50
207	120
208	60
209	280
210	150
211	1351
212	520
213	4544
214	1211
215	901
216	220
217	90
218	20
219	70
220	20
221	190
222	50
223	240
224	120
225	450
226	1591
227	4314
228	3793
229	1732
230	330
231	150
232	50
233	100
234	40
235	110
236	40
237	220
238	190
239	530
240	360
241	430
242	140
243	260
244	80
245	110
246	40
247	70
248	30
249	40
250	40
251	100
253	2883
254	671
255	290
256	370
257	500
258	220
259	140
260	40
261	60
262	20
263	430
264	90
265	50
266	20
267	320
268	360
269	440
270	120
271	2953
272	701
273	420
274	140
275	130
276	30
277	20
278	30
279	80
280	20
281	751
282	150
283	120
284	50
285	220
286	330
287	100
288	40
289	40
290	30
291	10
292	10
293	10
294	10
295	40
296	641
297	210
298	110
299	2522
300	581
301	120
302	40
303	80
304	100
305	50
312	10
314	1121
315	310
316	130
317	200
318	250
319	80
320	20
328	10
329	10
330	130
331	50
332	80
333	20
342	10
343	110
344	20
345	30
346	30
347	20
348	60
349	30
353	10
357	10
358	30
359	40
360	10
361	170
362	50
370	10
371	120
372	30
373	40
374	20
375	30
376	20
377	10
378	10
386	220
387	70
388	90
389	550
390	160
391	30
392	10
400	10
402	40
403	50
404	2993
405	1041
406	320
407	40
