Mass Spectrum: 3,4-Dihydroxyhydrocinnamic acid, 3TBDMS derivative
Formula: C27 H52 O4 Si3
Molecular weight: 524
Origin: NIST Mass Spectrometry Data Center
m/z	RELATIVE INTENSITY
27	10
29	100
31	10
39	40
41	220
42	20
43	50
45	200
46	10
47	50
53	10
55	70
56	60
57	440
58	160
59	601
60	60
61	50
69	10
70	10
71	10
73	9999
74	1001
75	1311
76	80
77	50
78	10
79	10
83	20
85	90
86	20
87	10
88	10
89	20
90	10
91	50
95	10
97	20
98	10
99	140
100	30
101	30
102	10
103	40
104	30
105	60
106	10
107	10
113	30
115	420
116	70
117	80
118	20
119	60
120	10
121	10
123	10
128	10
129	40
130	10
131	70
132	20
133	240
134	40
135	50
136	10
137	10
141	10
143	10
145	20
147	270
148	50
149	250
150	40
151	40
152	10
153	10
157	10
159	10
160	10
161	60
162	40
163	100
164	40
165	60
166	20
167	10
169	20
173	10
175	30
176	10
177	90
179	7547
180	1221
181	390
182	40
183	10
185	10
187	10
189	20
190	10
191	40
192	90
193	140
194	30
195	40
196	10
203	30
204	10
205	130
206	30
207	70
208	20
209	50
210	10
211	10
217	10
218	10
219	70
221	1181
222	230
223	230
224	40
225	20
233	20
234	20
235	160
236	60
237	300
238	70
239	30
240	10
245	10
247	10
249	10
250	10
251	60
252	20
253	20
261	10
263	30
264	10
265	30
266	10
267	10
277	10
278	10
279	30
280	10
281	10
291	10
293	30
294	20
295	240
296	60
297	40
298	10
307	10
309	10
311	10
321	10
325	10
333	10
335	130
336	40
337	110
338	30
339	10
349	170
350	60
351	1331
352	420
353	160
354	30
355	10
363	10
365	80
366	30
367	10
377	90
378	30
379	10
391	10
393	50
394	20
395	10
409	20
410	10
411	10
451	10
465	10
467	7567
468	3273
469	1511
470	390
471	90
472	20
481	10
509	200
510	90
511	40
512	10
524	230
525	110
526	50
527	10
