Mass Spectrum: 3-Aminoisobutyric acid, TMS derivative
Formula: C7 H17 N O2 Si
Molecular weight: 175
Origin: NIST Mass Spectrometry Data Center
m/z	RELATIVE INTENSITY
15	100
26	90
27	340
28	871
29	370
30	7777
31	210
39	250
41	601
42	450
43	1001
44	400
45	2682
46	200
47	1391
48	110
49	80
53	50
54	120
55	811
56	7427
57	2602
58	1181
59	571
60	360
61	1021
62	70
68	60
69	250
70	561
71	60
72	110
73	5375
74	1311
75	9438
76	771
77	270
79	40
83	50
84	190
85	110
86	1661
87	210
88	140
89	70
91	250
92	30
93	40
98	30
99	70
100	80
102	1161
103	70
104	110
112	40
113	60
114	100
115	270
116	60
117	110
118	50
128	40
129	701
130	2262
131	9999
132	1171
133	310
135	30
143	330
144	40
146	5015
147	581
148	240
155	30
158	30
159	30
160	420
161	90
162	20
169	20
170	30
175	180
176	20
