Mass Spectrum: Adonitol, pentamethyl ether
Formula: C10 H22 O5
Molecular weight: 222
Origin: NIST Mass Spectrometry Data Center
m/z	RELATIVE INTENSITY
15	190
26	10
27	160
28	110
29	911
30	50
31	561
32	10
33	100
38	10
39	190
40	50
41	691
42	190
43	901
45	9999
46	230
47	350
48	10
50	10
51	20
52	10
53	200
54	70
55	370
56	150
57	260
58	901
59	6686
60	220
61	30
65	20
66	10
67	20
68	80
69	160
70	80
71	2953
72	651
73	1331
74	320
75	4214
76	140
77	20
81	60
82	10
83	70
84	30
85	380
86	50
87	190
88	2162
89	7006
90	310
91	30
95	30
96	10
97	30
98	150
99	90
101	9459
102	2652
103	881
104	50
105	190
106	10
111	20
113	200
114	50
115	140
116	50
117	100
118	10
119	50
121	10
126	10
127	150
128	20
129	20
130	10
131	110
132	440
133	721
134	50
135	10
143	40
145	3723
146	290
147	30
157	10
158	190
159	20
163	571
164	40
165	10
177	961
178	90
179	10
190	100
191	10
