Mass Spectrum: 3-Hydroxymandelic acid, dimethyl ether, methyl ester
Formula: C11 H14 O4
Molecular weight: 210
Origin: NIST Mass Spectrometry Data Center
m/z	RELATIVE INTENSITY
15	90
27	20
28	10
29	70
30	10
31	20
37	10
38	60
39	240
40	10
41	20
43	20
44	10
45	50
47	10
49	10
50	170
51	450
52	70
53	60
54	10
55	30
59	120
60	10
61	20
62	70
63	240
64	190
65	370
66	50
67	20
69	10
74	40
75	60
76	100
77	721
78	290
79	180
80	50
81	10
86	10
87	10
88	10
89	140
90	70
91	761
92	340
93	100
94	20
95	10
103	10
104	20
105	130
106	40
107	510
108	1241
109	110
110	10
118	10
119	60
120	70
121	170
122	40
123	80
124	10
132	10
133	10
135	1361
136	1241
137	110
138	10
139	10
147	10
148	80
149	50
151	9999
152	1001
153	90
154	10
163	10
167	10
179	20
210	510
211	60
212	10
