Mass Spectrum: 3-Methyl-2-oxovaleric acid, TMS derivative
Formula: C9 H18 O3 Si
Molecular weight: 202
Origin: NIST Mass Spectrometry Data Center
m/z	RELATIVE INTENSITY
15	20
26	30
27	230
28	150
29	621
30	20
31	30
38	10
39	230
40	30
41	751
42	90
43	360
44	190
45	1181
46	80
47	280
48	10
49	10
50	10
51	20
52	10
53	70
54	20
55	220
56	150
57	2082
58	430
59	270
60	70
61	190
62	10
63	10
67	10
68	10
69	100
70	30
71	30
73	9999
74	931
75	2562
76	180
77	90
83	20
84	60
85	260
86	30
87	10
89	10
97	10
99	40
101	731
102	80
103	70
104	10
113	20
115	90
116	20
117	180
118	20
119	10
127	20
129	20
130	160
131	40
132	10
143	801
144	110
145	70
146	10
158	290
159	60
160	20
187	30
188	10
