Mass Spectrum: 1-Butanol, TBDMS derivative
Formula: C10 H24 O Si
Molecular weight: 188
Origin: NIST Mass Spectrometry Data Center
m/z	RELATIVE INTENSITY
15	10
26	10
27	170
28	40
29	380
30	10
31	30
39	220
40	30
41	601
42	60
43	400
44	50
45	641
46	50
47	470
48	20
49	10
50	10
51	10
53	50
54	10
55	190
56	80
57	350
58	490
59	951
60	180
61	360
62	20
63	10
67	10
69	20
70	10
71	70
72	80
73	1561
74	70
75	7977
76	741
77	380
78	10
81	10
83	20
85	160
86	30
87	240
88	380
89	2222
90	200
91	80
95	10
97	20
98	10
99	140
100	50
101	180
102	80
103	30
111	10
113	20
115	320
116	40
117	40
129	50
131	9999
132	1962
133	691
134	40
145	30
157	10
159	10
173	170
174	30
175	10
187	10
188	160
189	30
190	10
