Mass Spectrum: D-2-Aminobutyric acid, 2TBDMS derivative
Formula: C16 H37 N O2 Si2
Molecular weight: 331
Origin: NIST Mass Spectrometry Data Center
m/z	RELATIVE INTENSITY
15	10
27	40
28	30
29	230
30	20
31	40
39	90
40	20
41	550
42	50
43	190
44	70
45	420
46	40
47	110
48	10
52	10
53	20
54	40
55	130
56	230
57	981
58	520
59	1291
60	180
61	120
62	10
66	80
67	20
68	30
69	40
70	40
71	40
73	6646
74	721
75	1001
76	70
77	40
79	20
81	80
82	30
83	40
84	50
85	160
86	260
87	90
88	40
89	20
93	30
94	120
96	20
97	30
98	200
99	160
100	320
101	230
102	90
103	681
104	70
105	50
108	90
110	10
111	10
112	30
113	40
114	611
115	721
116	400
117	340
118	110
119	170
120	20
121	10
126	20
127	10
128	150
129	160
130	90
131	180
132	641
133	1241
134	220
135	110
136	10
140	10
142	380
143	110
144	70
145	150
146	90
147	4384
148	781
149	420
150	50
151	10
155	10
156	110
157	40
158	60
159	80
160	450
161	80
162	40
163	10
170	40
172	9999
173	1932
174	641
175	90
176	20
184	40
185	10
186	10
187	10
188	50
189	220
190	60
191	20
200	20
201	10
202	120
203	20
204	10
216	80
217	30
218	30
219	10
230	10
231	10
232	10
244	20
246	5335
247	1301
248	530
249	80
250	10
256	10
258	20
259	10
260	10
272	10
274	4634
275	1131
276	460
277	70
278	10
288	220
289	60
290	20
302	240
303	70
304	20
316	280
317	90
318	30
319	10
330	10
