Mass Spectrum: 11-Octadecenoic acid, (Z)-, TMS derivative
Formula: C21 H42 O2 Si
Molecular weight: 354
Origin: NIST Mass Spectrometry Data Center
m/z	RELATIVE INTENSITY
15	10
26	10
27	220
28	50
29	591
30	10
31	10
39	410
40	70
41	2762
42	701
43	2142
44	150
45	591
46	40
47	290
48	10
49	10
50	10
51	30
52	30
53	400
54	1021
55	5145
56	1071
57	781
58	190
59	220
60	90
61	500
62	40
63	20
65	130
66	120
67	1942
68	821
69	2452
70	530
71	260
72	400
73	8307
74	951
75	7887
76	591
77	490
78	60
79	581
80	290
81	1842
82	1161
83	1541
84	1351
85	310
86	110
87	80
88	70
89	300
90	40
91	250
92	90
93	430
94	290
95	1762
96	2122
97	1431
98	1351
99	360
100	40
101	120
102	20
103	50
104	10
105	240
106	70
107	270
108	210
109	1001
110	951
111	631
112	320
113	90
114	20
115	80
116	891
117	6796
118	711
119	480
120	90
121	330
122	130
123	711
124	470
125	260
126	90
127	60
129	6696
130	901
131	1271
132	1802
133	741
134	270
135	260
136	90
137	450
138	350
139	150
140	40
141	60
142	60
143	410
144	80
145	3083
146	410
147	280
148	130
149	130
150	70
151	320
152	350
153	90
154	30
155	240
156	80
157	210
158	80
159	250
160	50
161	110
162	50
163	60
164	60
165	190
166	260
167	90
168	60
169	200
170	90
171	490
172	170
173	210
174	70
175	100
176	30
177	30
178	30
179	130
180	641
181	140
182	30
183	240
184	60
185	871
186	220
187	240
188	130
189	60
190	20
191	20
192	10
193	110
194	100
195	40
196	10
197	60
198	20
199	891
200	180
201	290
202	50
203	40
204	10
205	10
206	10
207	130
208	80
209	40
210	10
211	70
212	10
213	240
214	50
215	90
216	20
217	20
218	10
220	190
221	250
222	1081
223	210
224	20
225	50
226	10
227	230
228	50
229	90
230	30
231	10
233	10
235	170
236	200
237	40
238	10
239	50
240	10
241	210
242	50
243	90
244	30
245	20
246	70
247	20
249	30
250	10
253	50
254	10
255	210
256	50
257	160
258	70
259	20
263	10
264	1051
265	230
266	30
267	80
268	20
269	140
270	30
271	100
272	110
273	20
274	10
281	80
282	20
283	80
284	20
285	30
286	70
287	20
295	210
296	50
297	60
298	20
299	60
300	10
309	70
310	30
311	160
312	40
313	30
314	10
321	10
323	60
324	20
325	40
326	10
336	10
337	30
339	9999
340	2863
341	791
342	130
343	10
354	1071
355	360
356	100
357	20
