Mass Spectrum: Geraniol, (E)-, TBDMS derivative
Formula: C16 H32 O Si
Molecular weight: 268
Origin: NIST Mass Spectrometry Data Center
m/z	RELATIVE INTENSITY
15	10
27	170
28	30
29	300
30	10
31	20
39	430
40	150
41	2672
42	160
43	340
44	40
45	440
46	30
47	460
48	20
49	10
50	20
51	70
52	50
53	540
54	70
55	310
56	110
57	561
58	150
59	540
60	120
61	260
62	20
63	20
64	10
65	120
66	60
67	691
68	350
69	2722
70	170
71	40
73	3143
75	9999
76	1461
77	951
78	60
79	260
80	230
81	500
82	50
83	90
84	20
85	150
86	20
87	70
88	20
89	220
90	20
91	260
92	190
93	1201
94	180
95	230
96	30
97	80
98	20
99	190
100	40
101	260
102	40
103	100
104	20
105	90
106	20
107	390
108	80
109	220
110	40
111	100
112	30
113	210
114	30
115	380
116	50
117	280
118	30
119	60
120	20
121	420
122	110
123	410
124	50
125	150
126	20
127	941
128	130
129	280
130	40
131	30
132	50
133	30
135	2562
136	1351
137	430
138	40
139	30
140	20
141	350
142	70
143	200
144	30
145	10
149	20
151	70
152	10
153	110
154	20
155	310
156	50
157	20
163	10
165	60
166	10
167	30
168	10
169	60
170	10
171	20
173	160
174	20
175	10
177	10
179	10
181	30
182	10
183	80
184	10
185	140
186	150
187	30
188	10
191	60
192	10
193	400
194	70
195	40
196	10
197	20
198	160
199	80
200	20
211	1812
212	340
213	100
214	10
225	90
226	20
227	10
253	90
254	20
255	10
268	601
269	140
270	40
271	10
