Mass Spectrum: 1-Pentanol, TBDMS derivative
Formula: C11 H26 O Si
Molecular weight: 202
Origin: NIST Mass Spectrometry Data Center
m/z	RELATIVE INTENSITY
15	10
26	10
27	210
28	50
29	591
30	20
31	30
39	260
40	50
41	851
42	110
43	510
44	60
45	611
46	40
47	470
48	20
49	10
50	10
51	10
52	10
53	60
54	20
55	160
56	70
57	400
58	470
59	1001
60	180
61	410
62	30
63	10
65	10
67	30
69	1161
70	90
71	100
72	80
73	1772
75	8207
76	781
77	410
78	10
81	10
83	30
84	10
85	190
86	40
87	200
88	350
89	2692
90	240
91	100
95	10
97	30
99	390
100	80
101	951
102	160
103	80
104	10
111	10
113	30
114	10
115	240
116	50
117	50
118	10
127	10
129	160
130	30
131	20
132	10
133	10
143	40
145	9999
146	2392
147	791
148	60
149	10
159	10
171	10
187	200
188	30
189	10
201	20
202	100
203	20
204	10
