Mass Spectrum: Androsterone, (E)-, TBDMS derivative
Formula: C25 H44 O2 Si
Molecular weight: 404
Origin: NIST Mass Spectrometry Data Center
m/z	RELATIVE INTENSITY
27	40
28	10
29	180
31	10
39	120
40	40
41	831
42	70
43	260
45	200
46	10
47	220
48	10
49	10
50	10
51	20
52	10
53	260
54	70
55	1371
56	140
57	470
58	100
59	550
60	100
61	180
62	10
63	10
65	120
66	50
67	1001
68	130
69	260
70	20
71	30
72	30
73	1541
74	270
75	9999
76	751
77	761
78	100
79	1061
80	160
81	1501
82	130
83	240
84	20
85	80
86	20
87	50
88	10
89	50
91	1211
92	200
93	1311
94	220
95	981
96	100
97	370
98	40
99	110
100	30
101	220
102	50
103	80
104	70
105	1191
106	310
107	1171
108	250
109	581
110	120
111	80
112	10
113	80
114	20
115	190
116	60
117	370
118	120
119	621
120	170
121	550
122	120
123	190
124	90
125	60
126	10
127	60
128	70
129	190
130	70
131	450
132	90
133	530
134	110
135	340
136	60
137	130
138	380
139	30
140	10
141	50
142	30
143	150
144	130
145	811
146	150
147	721
148	110
149	210
150	40
151	150
153	20
154	10
155	40
156	20
157	150
158	40
159	440
160	80
161	821
162	140
163	110
164	20
165	50
166	20
167	30
168	10
169	40
170	10
171	150
172	40
173	240
174	80
175	180
176	30
177	40
178	10
179	10
180	10
181	30
182	10
183	40
184	20
185	110
186	30
187	120
188	20
189	110
190	30
191	20
193	10
195	10
196	10
197	50
198	20
199	130
200	40
201	140
202	30
203	30
204	10
205	20
209	10
211	30
212	10
213	120
214	30
215	80
216	30
217	60
218	20
221	10
223	10
225	10
226	10
227	50
228	30
229	50
230	20
231	30
232	10
235	10
236	10
237	10
239	60
240	10
241	10
243	20
244	40
245	10
251	10
253	190
254	70
255	290
256	70
257	90
258	10
270	20
271	380
272	100
273	20
288	10
290	10
291	20
292	10
311	10
317	10
319	10
329	20
330	10
331	20
332	10
345	20
347	9449
348	2612
349	691
350	110
351	10
389	130
390	40
391	10
403	20
404	20
405	10
