Mass Spectrum: 2-Pentanol, TBDMS derivative
Formula: C11 H26 O Si
Molecular weight: 202
Origin: NIST Mass Spectrometry Data Center
m/z	RELATIVE INTENSITY
15	10
27	150
28	20
29	250
30	10
31	30
39	190
40	30
41	581
42	80
43	490
44	60
45	611
46	40
47	470
48	20
49	10
51	20
53	50
54	10
55	150
56	40
57	310
58	370
59	831
60	180
61	380
62	30
63	10
67	20
68	10
69	40
70	40
71	60
72	90
73	2813
74	420
75	9999
76	931
77	460
78	10
81	10
83	30
84	10
85	150
86	20
87	290
88	30
89	40
97	20
98	10
99	120
100	50
101	280
102	250
103	450
104	50
105	20
111	10
113	20
115	490
116	70
117	60
118	10
127	10
129	100
130	20
131	80
132	10
143	20
145	8137
146	1191
147	380
148	30
159	1171
160	160
161	50
187	270
188	40
189	10
201	30
202	50
203	10
