Mass Spectrum: Propargyl alcohol, TBDMS derivative
Formula: C9 H18 O Si
Molecular weight: 170
Origin: NIST Mass Spectrometry Data Center
m/z	RELATIVE INTENSITY
15	20
26	10
27	120
28	30
29	280
30	10
31	40
37	30
38	90
39	701
40	60
41	561
42	90
43	520
44	60
45	731
46	50
47	280
48	10
49	10
50	20
51	40
52	30
53	200
54	70
55	330
56	130
57	490
58	220
59	711
60	140
61	230
62	20
63	10
65	10
66	40
67	210
68	60
69	230
70	50
71	50
72	30
73	691
74	90
75	1081
76	80
77	50
79	20
80	10
81	50
83	9358
84	1281
85	641
86	40
87	20
88	20
89	10
93	10
95	30
96	10
97	180
98	220
99	310
100	40
101	80
102	10
107	10
109	30
110	10
111	130
113	9999
114	1812
115	741
116	50
117	10
123	20
125	100
126	10
127	20
129	10
137	30
139	20
140	10
153	10
155	230
156	30
157	10
170	160
171	20
172	10
