Mass Spectrum: 3-Ethylphenol, TMS derivative
Formula: C11 H18 O Si
Molecular weight: 194
Origin: NIST Mass Spectrometry Data Center
m/z	RELATIVE INTENSITY
15	20
26	10
27	110
28	20
29	70
31	20
38	20
39	160
40	20
41	60
42	30
43	270
44	80
45	550
46	40
47	110
48	10
50	70
51	220
52	70
53	140
54	20
55	90
56	10
57	50
58	80
59	400
60	50
61	120
62	50
63	180
64	60
65	210
66	40
67	130
68	260
69	80
70	20
71	30
73	1341
74	230
75	811
76	120
77	861
78	260
79	330
80	40
81	100
82	1151
84	10
85	60
86	10
87	20
89	340
90	210
91	781
92	80
93	90
94	10
95	190
96	30
97	40
98	10
99	20
101	20
102	80
103	370
104	130
105	641
106	70
107	60
108	10
109	90
110	10
111	20
115	120
116	30
117	100
118	20
119	240
120	40
121	230
122	30
123	160
124	20
125	10
129	10
130	10
131	60
132	10
133	110
134	30
135	761
136	100
137	140
138	20
139	10
143	20
145	90
146	20
147	140
148	80
149	851
150	180
151	1021
152	140
153	40
159	20
161	440
162	80
163	1311
164	250
165	120
166	20
175	30
177	350
179	9999
180	2362
181	671
182	70
194	5085
195	931
196	260
197	30
