Mass Spectrum: DL-Ornithine, 3TBDMS derivative
Formula: C23 H54 N2 O2 Si3
Molecular weight: 474
Origin: NIST Mass Spectrometry Data Center
m/z	RELATIVE INTENSITY
27	20
29	90
30	30
31	10
39	50
40	10
41	250
42	20
43	100
44	40
45	210
46	30
47	30
53	20
54	20
55	70
56	140
57	420
58	240
59	1041
60	160
61	60
66	10
67	10
68	140
69	30
70	1181
71	90
73	9929
74	1982
75	991
76	100
77	30
80	50
81	10
82	40
83	40
84	60
85	140
86	200
87	130
88	390
89	60
90	20
95	20
96	30
97	350
98	310
99	280
100	901
101	350
102	160
103	350
104	290
105	50
106	10
109	10
110	80
111	20
112	120
113	90
114	270
115	410
116	280
117	200
118	90
119	100
120	20
121	10
124	30
125	20
126	180
127	100
128	330
129	160
130	621
131	340
132	641
133	1061
134	210
135	100
136	20
137	10
138	10
139	20
140	30
141	150
142	300
143	190
144	1682
145	280
146	410
147	2272
148	1501
149	540
150	140
151	30
152	20
153	1571
154	711
155	160
156	150
157	160
158	130
159	150
160	180
161	50
162	40
163	10
166	10
167	10
168	70
169	40
170	1511
171	340
172	260
173	170
174	160
175	70
176	110
177	20
178	10
180	10
181	10
182	60
184	9999
185	1692
186	550
187	80
188	130
189	120
190	100
191	30
192	10
194	50
195	80
196	50
197	20
198	40
199	50
200	90
201	60
202	70
203	30
204	50
205	30
206	40
207	20
208	10
209	10
210	20
211	260
212	210
213	60
214	40
215	30
216	70
217	30
218	50
219	10
220	10
221	30
222	10
226	10
227	30
228	90
229	40
230	150
231	40
232	130
233	30
234	20
240	10
242	651
243	160
244	90
245	260
246	80
247	30
248	10
255	10
256	130
257	200
258	2132
259	550
260	270
261	50
262	20
263	10
267	10
268	20
269	70
270	40
271	20
272	20
273	20
274	120
275	80
276	20
277	10
283	10
285	1531
286	9058
287	2332
288	941
289	170
290	40
291	10
297	50
298	20
299	20
300	150
301	100
302	260
303	100
304	40
305	10
313	10
314	140
315	500
316	200
317	100
318	30
319	10
320	30
321	10
325	500
326	200
327	370
328	440
329	130
330	50
331	20
332	10
341	20
342	140
343	200
344	70
345	20
346	10
359	20
360	10
361	10
372	30
373	10
374	10
399	30
400	40
401	20
402	10
415	10
416	50
417	751
418	290
419	130
420	30
421	10
431	10
457	30
458	20
459	80
460	30
461	10
474	1892
475	791
476	350
477	90
478	20
