Mass Spectrum: Citronellic acid, 4,4-dimethyloxazoline (dmox) derivative
Formula: C14 H25 N O
Molecular weight: 223
Origin: NIST Mass Spectrometry Data Center
m/z	RELATIVE INTENSITY
15	10
26	10
27	220
28	80
29	350
30	40
31	20
38	10
39	641
40	180
41	2712
42	781
43	420
44	80
45	30
46	10
50	20
51	70
52	60
53	520
54	350
55	1742
56	340
57	310
58	140
59	20
60	10
63	10
64	10
65	130
66	100
67	701
68	831
69	1631
70	340
71	130
72	751
73	180
74	10
77	150
78	30
79	210
80	80
81	350
82	540
83	240
84	240
85	20
86	160
87	10
91	130
92	30
93	170
94	300
95	390
96	260
97	550
98	1641
99	100
100	90
103	10
104	20
105	40
106	20
107	100
108	270
109	591
110	270
111	90
112	160
113	3723
114	370
115	20
117	10
118	10
119	40
120	20
121	60
122	100
123	70
124	170
126	9649
127	1001
128	60
133	10
134	40
135	30
136	220
137	100
138	90
140	9999
141	3663
142	310
143	20
148	40
149	10
150	150
151	60
152	230
153	200
154	651
155	80
156	10
162	10
163	10
164	50
165	10
166	350
167	190
168	100
169	10
176	10
178	210
179	30
180	470
181	270
182	40
190	10
192	50
193	10
194	210
195	40
206	10
208	931
209	140
210	10
222	80
223	871
224	180
225	20
