Mass Spectrum: 3-Nitrophenol, TBDMS derivative
Formula: C12 H19 N O3 Si
Molecular weight: 253
Origin: NIST Mass Spectrometry Data Center
m/z	RELATIVE INTENSITY
15	10
26	10
27	70
28	30
29	310
30	220
31	40
37	10
38	30
39	230
40	30
41	601
42	90
43	440
44	70
45	420
46	40
47	110
48	10
50	200
51	80
52	30
53	150
54	30
55	170
56	130
57	731
58	190
59	450
60	70
61	120
62	40
63	200
64	220
65	150
66	50
67	150
68	40
69	120
70	20
71	30
73	1081
74	200
75	1051
76	460
77	230
78	70
79	100
80	30
81	150
82	40
83	130
84	40
85	130
86	20
87	10
88	10
89	110
90	120
91	701
92	380
93	220
94	50
95	350
96	100
97	50
98	30
99	100
100	30
101	20
102	10
103	80
104	901
105	270
106	160
107	200
108	100
109	80
110	60
111	50
112	10
113	10
115	40
116	10
117	20
119	180
120	180
121	460
122	420
123	150
124	40
125	20
126	10
127	10
128	10
129	10
131	10
132	20
133	50
135	1912
136	360
137	180
138	140
139	50
140	10
145	10
146	10
147	60
148	300
149	5705
150	1361
151	811
152	260
153	50
154	50
155	10
161	20
162	10
163	10
164	20
165	110
166	1802
167	300
168	120
169	10
175	10
176	10
177	10
178	30
180	430
181	70
182	90
183	10
192	30
193	10
196	9999
197	2302
198	641
199	80
200	10
207	10
208	10
222	10
223	70
224	10
237	20
238	70
239	10
253	721
254	140
255	40
256	10
