Mass Spectrum: Olivetol, TBDMS derivative
Formula: C17 H30 O2 Si
Molecular weight: 294
Origin: NIST Mass Spectrometry Data Center
m/z	RELATIVE INTENSITY
26	10
27	100
28	20
29	320
30	10
31	10
38	10
39	150
40	20
41	581
42	40
43	581
44	30
45	200
46	10
47	100
50	10
51	70
52	30
53	80
54	10
55	200
56	60
57	410
58	80
59	300
60	50
61	250
62	30
63	60
64	10
65	100
66	50
67	100
68	10
69	120
70	10
71	40
73	981
74	110
75	2072
76	180
77	490
78	160
79	120
80	20
81	50
82	30
83	70
84	10
85	100
86	10
87	30
88	10
89	50
91	330
92	50
93	60
94	30
95	110
96	30
97	80
98	20
99	230
100	30
101	50
102	20
103	90
104	50
105	310
106	110
107	440
108	60
109	80
110	20
111	60
112	10
113	30
114	10
115	80
116	30
117	40
118	20
119	90
120	40
121	150
122	30
123	130
124	100
125	60
126	10
127	30
128	20
129	20
130	10
131	60
132	10
133	70
134	20
135	110
136	30
137	260
138	50
139	40
140	10
141	20
143	10
144	10
145	30
146	10
147	90
148	30
149	270
150	50
151	280
152	60
153	70
154	10
159	10
161	100
162	40
163	210
164	60
165	420
166	140
167	851
168	130
169	40
170	10
173	10
175	20
176	10
177	110
178	30
179	410
180	691
181	671
182	821
183	140
184	40
185	10
189	10
191	40
192	10
193	200
194	70
195	100
196	160
197	30
198	10
203	10
205	20
206	10
207	80
208	20
209	20
210	10
211	20
217	10
219	20
220	10
221	30
222	10
223	30
224	10
225	10
233	20
235	80
237	9999
238	2742
239	701
240	110
241	10
251	40
252	80
253	20
254	10
263	10
265	20
266	10
279	180
280	40
281	10
293	40
294	1651
295	400
296	100
297	20
