Mass Spectrum: (Trimethylsilyl)methyl stearate
Formula: C22 H46 O2 Si
Molecular weight: 370
Origin: NIST Mass Spectrometry Data Center
m/z	RELATIVE INTENSITY
27	80
28	30
29	290
30	10
31	40
39	110
41	1231
42	320
43	2282
44	170
45	330
46	20
47	30
51	10
53	90
54	150
55	2873
56	550
57	1892
58	330
59	1421
60	130
61	561
62	30
63	20
65	20
66	10
67	350
68	150
69	1341
70	290
71	741
72	260
73	4194
74	450
75	961
76	70
77	60
78	10
79	110
80	30
81	420
82	110
83	791
84	350
85	480
86	110
87	480
88	170
89	581
90	50
91	60
92	10
93	90
94	30
95	540
96	90
97	741
98	440
99	130
100	30
101	140
103	1171
104	420
105	821
106	90
107	130
108	20
109	310
110	50
111	340
112	140
113	70
114	30
115	100
116	470
117	200
118	30
119	10
121	100
122	20
123	180
124	30
125	100
126	30
127	30
129	450
130	731
131	2032
132	250
133	100
134	10
135	70
136	10
137	80
138	20
139	30
140	10
141	20
143	1651
144	240
146	5545
147	751
148	260
149	50
150	10
151	30
152	10
153	20
154	10
155	20
156	10
157	150
159	9999
160	1621
161	460
162	40
163	10
165	10
167	10
168	10
169	20
170	10
171	60
173	941
174	150
175	50
179	10
181	10
183	10
185	100
186	20
187	50
188	40
189	10
193	10
199	110
200	20
201	170
202	50
203	10
209	10
210	10
213	60
214	10
215	280
216	60
217	20
223	20
227	70
228	20
229	90
230	20
231	10
237	10
241	80
242	20
243	60
244	10
249	20
255	70
256	20
257	60
258	20
265	10
267	1051
268	220
269	70
270	10
271	70
272	20
273	10
283	30
284	10
285	50
286	10
297	30
298	10
299	40
300	10
311	50
312	10
313	70
314	20
325	40
326	10
327	150
328	40
329	10
339	270
340	80
341	80
342	20
343	10
353	70
355	4554
356	1301
357	350
358	60
359	10
369	20
370	50
371	10
