Mass Spectrum: 5,8,11,14-Eicosatetraynoic acid, methyl ester
Formula: C21 H26 O2
Molecular weight: 310
Origin: NIST Mass Spectrometry Data Center
m/z	RELATIVE INTENSITY
15	150
26	40
27	641
28	60
29	1301
30	40
31	100
33	10
37	10
38	50
39	1161
40	160
41	2953
42	370
43	2322
44	160
45	330
46	10
49	20
50	460
51	1291
52	510
53	1161
54	120
55	4024
56	300
57	550
58	40
59	1742
60	60
61	60
62	360
63	1832
64	390
65	1772
66	270
67	1491
68	130
69	340
70	70
71	210
72	20
73	20
74	1742
75	941
76	841
77	2813
78	891
79	1782
80	250
81	681
82	350
83	240
84	40
85	110
86	230
87	851
88	350
89	1351
90	290
91	3473
92	440
93	651
94	120
95	1021
96	140
97	200
98	200
99	220
100	140
101	420
102	971
103	1381
104	470
105	1371
106	220
107	260
108	110
109	310
110	200
111	190
112	60
113	420
114	250
115	5815
116	1331
117	1742
118	300
119	440
120	130
121	300
122	90
123	100
124	50
125	160
126	681
127	1832
128	4424
129	3563
130	711
131	791
132	160
133	420
134	100
135	150
136	20
137	160
138	140
139	1702
140	581
141	4054
142	1361
143	1101
144	320
145	400
146	120
147	190
148	40
149	120
150	410
151	1311
152	5575
153	5175
154	2072
155	2172
156	550
157	480
158	180
159	350
160	50
161	100
162	140
163	871
164	901
165	9999
166	4204
167	5615
168	1471
169	911
170	250
171	430
172	110
173	110
174	60
175	120
176	841
177	781
178	6426
179	6606
180	2412
181	2512
182	641
183	530
184	160
185	200
186	50
187	90
188	60
189	761
190	510
191	1441
192	1141
193	2572
194	901
195	931
196	250
197	380
198	110
199	100
200	40
201	110
202	320
203	280
204	130
205	400
206	280
207	881
208	310
209	480
210	130
211	290
212	70
213	80
214	10
215	60
216	40
217	70
218	30
219	140
220	90
221	430
222	160
223	450
224	130
225	180
226	40
227	30
228	10
229	20
230	10
231	30
232	10
233	40
234	30
235	220
236	80
237	150
238	30
239	160
240	30
241	20
245	10
247	10
248	10
249	70
250	10
251	60
252	30
253	190
254	40
255	10
256	10
261	10
263	20
264	10
265	10
266	10
267	130
268	40
277	10
278	30
279	410
280	100
281	20
282	10
293	10
295	190
296	40
303	10
309	30
310	20
