Mass Spectrum: 4-Amino-1-butanol, 2TBDMS derivative
Formula: C16 H39 N O Si2
Molecular weight: 317
Origin: NIST Mass Spectrometry Data Center
m/z	RELATIVE INTENSITY
15	10
27	40
28	40
29	200
30	40
31	30
39	90
40	20
41	470
42	50
43	230
44	100
45	350
46	40
47	140
48	10
53	30
54	10
55	160
56	200
57	651
58	370
59	1712
60	200
61	170
62	10
66	40
67	10
68	50
70	2662
71	220
72	220
73	5615
74	781
75	1291
76	110
77	40
80	510
83	40
84	60
85	180
86	470
87	220
88	470
89	110
90	20
91	10
93	10
95	10
96	20
97	60
98	100
99	460
100	350
101	1091
103	130
104	40
105	30
106	10
110	30
111	10
112	60
113	50
114	170
115	310
116	90
117	240
118	110
119	190
120	30
121	10
122	10
126	50
127	20
128	591
129	110
130	1511
131	520
132	811
133	1381
134	260
135	110
136	10
142	90
143	30
144	1441
145	210
147	9999
148	1962
149	981
150	100
151	20
156	10
157	30
158	30
159	30
160	120
161	20
162	90
163	10
164	10
170	100
171	40
172	50
173	90
174	60
175	40
176	10
184	210
185	40
186	130
187	30
188	50
189	440
190	80
191	30
200	10
202	70
203	20
204	30
205	10
218	3383
219	711
220	300
221	40
222	10
231	10
244	70
245	20
246	10
260	5885
261	1471
262	601
263	90
264	20
274	10
302	380
303	110
304	40
305	10
316	10
317	20
318	10
