Mass Spectrum: (Trimethylsilyl)methyl butyrate
Formula: C8 H18 O2 Si
Molecular weight: 174
Origin: NIST Mass Spectrometry Data Center
m/z	RELATIVE INTENSITY
15	40
26	30
27	390
28	130
29	280
30	30
31	160
32	10
33	10
37	10
38	20
39	350
40	60
41	991
42	550
43	3413
44	490
45	1161
46	90
47	160
48	10
49	10
50	10
51	10
52	10
53	110
55	2612
56	210
57	310
58	631
59	1672
60	220
61	2432
62	170
63	100
64	10
65	10
66	10
67	20
68	20
69	240
70	1561
71	1822
72	530
73	9999
74	2122
75	1051
76	70
77	40
83	40
84	60
85	80
86	30
87	581
88	220
89	1762
90	160
91	80
95	10
97	20
99	20
101	530
102	60
103	751
104	200
105	651
106	70
107	30
111	10
112	40
113	210
114	20
115	80
116	150
117	80
118	10
129	100
130	70
131	210
132	50
133	10
143	100
144	30
145	20
146	460
147	60
148	20
157	20
159	6746
160	931
161	300
162	20
173	20
174	10
