Mass Spectrum: 3-Methylpiperazine-2,5-dione, (R)-, 2TMS derivative
Formula: C11 H24 N2 O2 Si2
Molecular weight: 272
Origin: NIST Mass Spectrometry Data Center
m/z	RELATIVE INTENSITY
14	10
26	30
27	60
28	160
29	220
31	100
39	90
40	40
41	440
42	400
43	781
44	550
45	2572
46	210
47	240
51	60
52	60
53	20
54	140
55	450
56	641
57	280
58	500
59	2292
60	170
61	240
65	30
66	90
67	180
68	601
69	80
70	360
71	130
72	781
73	9999
74	1551
75	1802
76	150
77	40
80	20
81	50
82	30
83	70
84	270
85	180
86	1692
87	240
88	90
89	130
92	40
95	50
97	20
98	180
99	140
100	2192
101	1712
102	450
103	410
104	50
106	50
110	60
111	20
112	60
113	450
114	991
115	781
116	1261
117	360
118	110
119	30
120	180
121	1872
124	50
125	20
126	60
127	80
128	500
129	6396
130	1281
131	571
132	130
133	210
135	20
138	20
140	100
141	130
142	4184
143	601
144	220
145	50
153	100
155	50
156	2152
157	2172
158	500
159	100
160	40
166	20
167	180
168	20
169	120
170	30
171	120
172	60
173	20
174	30
181	50
182	50
183	250
184	70
185	210
186	60
187	30
188	240
189	60
190	40
196	20
197	50
198	110
199	40
200	100
201	10
202	30
203	20
213	120
214	20
216	10
218	20
227	60
228	20
229	180
230	30
236	10
239	50
241	1301
242	340
243	170
244	40
245	10
246	10
255	1031
256	280
257	6055
258	1261
259	490
260	90
261	20
265	10
269	50
270	160
271	350
272	5165
273	1171
274	420
275	70
276	20
