Mass Spectrum: Dehydroepiandrosterone, (E)-, TBDMS derivative
Formula: C25 H42 O2 Si
Molecular weight: 402
Origin: NIST Mass Spectrometry Data Center
m/z	RELATIVE INTENSITY
27	60
28	10
29	280
30	10
31	20
38	10
39	160
40	30
41	1071
42	80
43	370
44	20
45	300
46	20
47	280
48	20
49	10
50	10
51	40
52	20
53	320
54	50
55	1241
56	150
57	681
58	160
59	781
60	100
61	200
62	10
63	20
65	190
66	60
67	901
68	90
69	290
70	20
71	40
72	20
73	3003
74	350
75	9999
76	731
77	991
78	160
79	1321
80	160
81	1231
82	90
83	190
84	20
85	130
86	30
87	40
88	10
89	120
91	1812
92	290
93	1481
94	250
95	851
96	80
97	430
98	50
99	220
100	40
101	240
102	50
103	220
104	130
105	1822
106	330
107	1001
108	200
109	721
110	110
111	60
112	10
113	70
114	50
115	641
116	510
117	831
118	250
119	1121
120	210
121	661
122	140
123	200
124	40
125	40
126	10
127	140
128	350
129	671
130	300
131	1001
132	180
133	651
134	100
135	270
136	50
137	120
138	20
139	30
140	10
141	320
142	220
143	911
144	240
145	1301
146	200
147	581
148	90
149	250
151	300
152	40
153	70
154	60
155	340
156	140
157	1001
158	210
159	1061
160	190
161	490
162	70
163	100
164	30
165	80
166	30
167	100
168	50
169	270
170	80
171	901
172	200
173	410
174	70
175	120
176	20
177	60
178	20
179	40
180	20
181	180
182	60
183	320
184	90
185	360
186	80
187	130
188	30
189	80
190	10
191	20
192	10
193	20
194	20
195	110
196	50
197	561
198	140
199	240
200	50
201	80
202	20
203	50
204	10
205	20
206	10
207	10
208	10
209	60
210	30
211	420
212	110
213	470
214	100
215	80
216	20
217	20
219	20
220	10
221	20
222	10
223	40
224	30
225	130
226	70
227	220
228	40
229	60
230	30
231	50
232	20
233	30
234	10
235	20
236	10
237	70
238	90
239	30
240	10
241	20
242	40
243	30
244	10
245	10
247	10
249	10
250	10
251	190
252	60
253	1091
254	230
255	60
256	10
257	10
263	10
268	10
269	671
270	170
271	230
272	50
273	10
275	10
285	10
286	10
287	10
288	10
289	20
301	10
303	20
304	10
307	10
309	20
315	10
317	10
325	10
327	340
328	90
329	50
330	20
331	10
338	10
343	10
345	9759
346	2712
347	681
348	110
349	20
387	240
388	70
389	20
400	10
401	20
402	10
