Mass Spectrum: 3-Methyl-2-butanol, TBDMS derivative
Formula: C11 H26 O Si
Molecular weight: 202
Origin: NIST Mass Spectrometry Data Center
m/z	RELATIVE INTENSITY
15	10
27	140
28	20
29	230
30	10
31	50
38	10
39	180
40	30
41	550
42	70
43	721
44	70
45	651
46	40
47	440
48	20
49	10
50	10
51	20
52	10
53	60
54	10
55	170
56	50
57	230
58	450
59	901
60	160
61	330
62	20
63	10
67	20
69	40
70	40
71	100
72	90
73	3843
74	470
75	9999
76	761
77	370
78	10
81	10
83	20
85	150
86	20
87	340
88	30
89	20
97	10
99	80
100	50
101	220
102	250
103	681
104	70
105	20
111	10
113	20
115	651
116	80
117	40
127	10
129	50
130	10
131	60
132	10
143	10
145	5775
146	761
147	240
148	20
159	1682
160	230
161	70
162	10
187	270
188	40
189	10
201	30
202	40
203	10
