Mass Spectrum: 17.beta.-Estradiol, TBDMS derivative
Formula: C24 H38 O2 Si
Molecular weight: 386
Origin: NIST Mass Spectrometry Data Center
m/z	RELATIVE INTENSITY
27	50
28	10
29	260
30	20
31	50
39	120
40	40
41	821
42	60
43	500
44	160
45	250
46	20
47	50
50	10
51	30
52	10
53	230
54	40
55	891
56	170
57	1101
58	170
59	731
60	60
61	180
62	10
63	30
64	10
65	100
66	20
67	581
68	100
69	240
70	20
71	70
73	2352
74	220
75	1151
76	90
77	350
78	60
79	480
80	60
81	771
82	100
83	130
84	10
85	80
86	20
87	20
88	10
89	60
90	20
91	711
92	90
93	571
94	150
95	741
96	60
97	100
98	10
99	90
101	210
102	70
103	120
104	50
105	400
106	60
107	1091
108	250
109	380
110	40
111	70
112	20
113	50
114	180
115	1001
116	220
117	220
118	40
119	180
120	150
121	310
123	40
124	10
125	20
126	60
127	420
128	801
129	540
130	110
131	190
132	50
133	320
134	220
135	470
136	60
137	70
138	10
139	50
140	30
141	530
142	250
143	190
144	80
145	340
146	60
147	240
148	100
149	230
150	40
151	200
152	140
153	170
154	90
155	180
156	70
157	120
158	40
159	270
160	50
161	460
162	110
163	2082
164	390
165	470
166	130
167	120
168	40
169	80
170	30
171	120
172	40
173	130
174	30
175	160
176	90
177	330
178	150
179	150
180	40
181	440
182	90
183	130
184	50
185	280
186	70
187	280
188	120
189	721
190	190
191	791
192	150
193	80
194	20
195	60
196	20
197	70
198	40
199	200
200	90
201	510
202	170
203	550
204	220
205	270
206	50
207	280
208	50
209	30
210	10
211	50
212	20
213	130
214	80
215	831
216	270
217	691
218	180
219	240
220	50
221	90
222	30
223	30
224	20
225	40
226	20
227	90
228	50
229	210
230	180
231	310
232	70
233	410
234	100
235	70
236	20
237	30
238	10
239	50
240	20
241	120
242	40
243	170
244	110
245	60
246	40
247	240
248	50
249	20
251	20
252	10
253	70
254	30
255	100
256	40
257	100
258	30
259	80
260	40
261	40
262	10
265	10
267	30
268	10
269	60
270	30
271	270
272	140
273	310
274	80
275	30
276	10
281	10
282	10
283	30
284	20
285	70
286	50
287	60
288	20
289	20
295	10
297	20
298	10
299	70
300	30
301	40
302	30
303	10
309	20
310	10
311	80
312	30
313	40
314	10
315	10
323	10
325	20
326	10
327	170
329	9999
330	3553
331	921
332	170
333	20
339	10
340	10
341	10
342	10
353	20
354	10
355	10
356	10
358	10
367	40
368	40
369	20
370	10
371	180
372	50
373	10
384	60
386	4564
387	1381
388	380
389	70
390	10
