Mass Spectrum: 7-Methylguanine, bis(trimethylsilyl) derivative
Formula: C12 H23 N5 O Si2
Molecular weight: 309
Origin: NIST Mass Spectrometry Data Center
m/z	RELATIVE INTENSITY
15	10
27	10
28	10
29	30
30	10
31	10
40	10
41	20
42	170
43	240
44	130
45	821
46	60
47	70
52	10
53	50
54	70
55	70
56	100
57	100
58	170
59	190
60	40
61	140
62	10
63	10
64	10
65	10
66	40
67	200
68	90
69	200
70	160
71	130
72	160
73	3573
74	370
75	490
76	30
77	20
78	20
79	30
80	20
81	30
82	20
83	50
84	971
85	210
86	140
87	40
88	20
89	30
90	10
91	10
92	10
93	30
94	30
95	90
96	40
97	30
98	140
99	841
100	370
101	90
102	30
103	20
104	10
105	20
106	10
107	20
108	20
109	30
110	150
111	150
112	40
113	60
114	40
115	50
116	30
117	40
118	10
119	20
120	30
121	20
122	20
123	40
124	80
125	631
126	110
127	60
128	20
129	10
130	90
131	170
132	70
133	70
134	20
135	20
136	40
137	30
138	30
139	410
141	90
142	30
143	20
144	10
145	10
146	10
147	390
148	100
149	70
150	120
151	110
152	60
153	30
154	30
155	70
156	30
157	70
158	70
159	20
160	10
162	10
163	30
164	30
165	20
166	60
167	30
168	40
169	40
170	10
171	591
172	110
173	60
174	20
177	20
178	30
179	220
180	1641
181	260
182	150
183	40
184	10
187	10
189	10
190	20
191	10
192	20
193	30
194	40
195	20
196	20
197	10
198	20
199	10
202	10
204	130
205	30
206	110
207	30
208	40
209	20
210	10
211	10
218	30
219	10
220	360
221	190
222	180
223	40
224	20
234	30
235	20
236	150
237	80
238	30
239	10
251	20
252	20
253	10
262	10
264	40
265	20
266	10
267	10
278	150
279	50
280	20
281	10
282	10
290	10
291	10
292	200
294	9999
295	2482
296	961
297	170
298	30
306	10
307	10
308	240
309	1722
310	450
311	170
312	30
