Mass Spectrum: 1,3-Propanediol, TBDMS derivative
Formula: C9 H22 O2 Si
Molecular weight: 190
Origin: NIST Mass Spectrometry Data Center
m/z	RELATIVE INTENSITY
15	10
26	10
27	90
28	40
29	250
30	10
31	380
39	180
40	30
41	470
42	60
43	280
44	50
45	741
46	50
47	500
48	20
49	20
51	10
53	40
54	10
55	90
56	60
57	380
58	300
59	791
60	210
61	420
62	30
63	30
66	10
67	10
69	20
70	10
71	50
72	130
73	1231
74	370
75	9999
76	1071
77	761
78	30
79	10
83	20
85	140
86	20
87	510
88	100
89	300
90	80
91	500
92	40
93	20
97	10
98	10
99	150
100	30
101	260
102	180
103	60
105	6446
106	591
107	280
108	10
113	10
115	450
116	50
117	300
118	30
119	30
129	10
131	20
133	2602
134	290
135	110
136	10
145	10
147	10
175	10
