Mass Spectrum: 2,2,2-Trichloroethanol, methyl ether
Formula: C3 H5 Cl3 O
Molecular weight: 162
Origin: NIST Mass Spectrometry Data Center
m/z	RELATIVE INTENSITY
14	50
15	340
16	10
17	10
24	10
25	80
26	350
27	100
28	50
29	1181
30	150
31	100
35	210
36	60
37	80
38	20
40	10
41	30
42	100
43	30
45	9999
46	290
47	520
48	330
49	1982
50	130
51	641
52	10
53	10
57	70
59	40
60	621
61	1521
62	280
63	691
64	130
65	40
70	10
72	10
75	10
76	150
77	1631
78	90
79	571
80	10
82	500
83	530
84	340
85	340
86	70
87	60
91	10
92	60
94	40
95	871
96	781
97	601
98	500
99	140
100	80
101	20
110	20
111	160
112	20
113	110
114	10
115	20
117	490
119	470
120	10
121	150
123	20
126	90
127	1211
128	100
129	781
130	80
131	450
132	60
133	310
134	20
135	100
137	10
161	10
162	30
163	10
164	30
166	10
