Mass Spectrum: 1-Hexanol, TBDMS derivative
Formula: C12 H28 O Si
Molecular weight: 216
Origin: NIST Mass Spectrometry Data Center
m/z	RELATIVE INTENSITY
15	10
26	10
27	200
28	50
29	530
30	10
31	30
39	230
40	40
41	851
42	100
43	641
44	50
45	500
46	40
47	400
48	20
49	10
50	10
51	10
52	10
53	60
55	931
56	140
57	410
58	360
59	901
60	150
61	390
62	30
63	10
65	10
67	50
68	10
69	50
70	20
71	80
72	80
73	1682
74	110
75	7477
76	671
77	410
78	10
79	10
81	20
83	1541
84	120
85	240
86	40
87	420
88	250
89	2432
90	220
91	100
95	10
97	40
99	340
100	70
101	921
102	110
103	70
104	10
111	20
113	80
114	10
115	711
116	100
117	70
118	10
127	20
129	90
130	10
131	40
132	10
133	10
143	110
144	20
145	30
157	50
159	9999
160	2282
161	691
162	60
185	10
201	170
202	30
203	10
215	10
216	50
217	10
