Mass Spectrum: 3-Nonen-1-ol, (Z)-, TMS derivative
Formula: C12 H26 O Si
Molecular weight: 214
Origin: NIST Mass Spectrometry Data Center
m/z	RELATIVE INTENSITY
15	10
26	10
27	180
28	50
29	380
30	10
31	20
39	290
40	60
41	821
42	140
43	310
44	110
45	530
46	40
47	230
48	10
49	10
50	10
51	30
52	20
53	210
54	270
55	420
56	50
57	170
58	300
59	470
60	70
61	260
62	20
63	20
64	10
65	80
66	80
67	571
68	661
69	110
70	70
71	90
73	7597
74	761
75	2002
76	140
77	130
78	30
79	130
80	40
81	550
82	781
83	110
84	10
85	120
86	10
87	90
88	230
89	230
90	30
91	30
93	20
94	20
95	440
96	250
97	300
98	50
99	360
100	60
101	751
103	9999
104	1131
105	450
106	20
107	10
109	100
110	40
111	100
112	60
113	180
114	40
115	170
116	70
117	20
123	90
124	2292
125	260
126	20
127	240
128	30
129	350
130	40
131	10
139	10
141	70
142	20
143	130
144	20
145	10
155	20
157	20
169	100
170	20
171	60
172	10
181	10
183	10
185	10
186	10
199	711
200	120
213	10
214	20
