Mass Spectrum: 10-Heptadecenoic acid, (Z)-, TBDMS derivative
Formula: C23 H46 O2 Si
Molecular weight: 382
Origin: NIST Mass Spectrometry Data Center
m/z	RELATIVE INTENSITY
27	80
28	20
29	260
30	10
39	160
41	1021
42	290
43	801
44	30
45	130
46	10
47	130
48	10
51	10
52	10
53	120
54	250
55	1371
56	390
57	400
58	100
59	190
60	50
61	120
62	10
63	10
65	40
66	20
67	540
68	110
69	601
70	130
71	50
72	100
73	1672
74	260
75	5365
76	420
77	300
78	20
79	190
80	40
81	440
82	90
83	270
84	50
85	90
86	60
87	40
88	30
89	20
91	60
92	30
93	160
94	30
95	390
96	80
97	140
98	40
99	160
100	30
101	100
102	30
103	30
105	170
106	40
107	110
108	20
109	150
110	40
111	50
112	10
113	30
114	40
115	310
116	450
117	280
118	50
119	50
120	10
121	110
122	20
123	50
124	20
125	20
127	20
129	2082
130	280
131	1051
132	110
133	80
134	10
135	70
136	10
137	30
138	10
139	10
141	20
142	10
143	110
144	20
145	30
147	20
148	10
149	30
151	20
152	10
153	10
155	40
156	10
157	90
158	30
159	30
161	20
163	10
165	10
167	10
169	20
171	240
172	40
173	20
175	10
179	10
181	10
183	10
185	110
186	20
187	20
197	10
199	70
200	10
201	10
211	10
213	50
214	10
215	10
225	20
226	10
227	50
228	10
229	10
231	10
233	10
239	20
241	100
242	20
243	10
249	10
250	10
251	10
253	20
254	10
255	80
256	20
257	10
267	20
269	40
270	10
281	20
283	20
295	10
297	20
307	10
309	50
310	10
311	10
323	50
325	9999
326	5195
327	1441
328	220
329	20
365	10
367	340
368	100
369	30
381	10
382	10
383	10
