Mass Spectrum: (.+/-.)-3-Hydroxybutyric acid, 2TMS derivative
Formula: C10 H24 O3 Si2
Molecular weight: 248
Origin: NIST Mass Spectrometry Data Center
m/z	RELATIVE INTENSITY
15	20
27	30
28	20
29	70
30	10
31	30
39	80
40	20
41	240
42	100
43	540
44	210
45	1231
46	90
47	500
48	20
49	20
51	20
52	30
53	30
54	10
55	100
56	20
57	100
58	220
59	621
60	120
61	330
62	20
63	10
66	661
68	30
69	270
70	60
71	80
72	390
73	6536
74	721
75	2642
76	190
77	120
80	10
81	10
83	10
85	70
86	10
87	100
88	1401
91	20
97	10
98	10
99	220
100	30
101	460
102	70
103	110
104	20
105	60
106	10
107	10
109	70
113	20
115	751
116	190
117	6035
118	721
119	330
120	20
121	10
129	60
130	1211
131	621
132	130
133	1151
134	160
135	90
136	10
142	20
143	220
144	30
145	30
147	9999
148	2112
149	1151
150	120
151	30
157	40
158	30
159	20
161	10
162	20
163	40
164	10
173	10
175	30
189	470
190	120
191	4344
192	811
193	380
194	50
195	10
203	20
204	430
205	90
206	40
207	10
217	100
218	20
219	10
231	40
233	1972
234	400
235	180
236	20
247	30
248	10
249	10
