Mass Spectrum: 10,12-Tricosadiynoic acid, 4,4-dimethyloxazoline (dmox) derivative
Formula: C27 H45 N O
Molecular weight: 399
Origin: NIST Mass Spectrometry Data Center
m/z	RELATIVE INTENSITY
15	10
26	20
27	340
28	100
29	1021
30	100
31	20
37	10
38	20
39	520
40	130
41	3103
42	981
43	2352
44	250
45	50
46	10
50	70
51	220
52	80
53	420
54	611
55	4194
56	701
57	1191
58	781
59	60
60	30
62	20
63	150
64	70
65	550
66	150
67	1802
68	951
69	1191
70	540
71	350
72	1892
73	330
74	30
75	50
76	200
77	1191
78	611
79	1882
80	390
81	1401
82	841
83	831
84	440
85	90
86	100
87	20
88	10
89	200
90	80
91	3193
92	571
93	1121
94	350
95	881
96	701
97	621
98	1772
99	150
100	240
101	30
102	70
103	430
104	260
105	1752
106	400
107	561
108	290
109	340
110	841
111	190
112	330
113	9999
114	1141
115	591
116	240
117	1101
118	330
119	1001
120	450
121	410
122	260
123	150
124	270
126	9589
127	1631
128	350
129	390
130	200
131	831
132	370
133	561
134	400
135	250
136	210
137	80
138	180
139	260
140	2052
141	290
142	90
143	190
144	140
145	631
146	340
147	300
148	310
149	170
150	230
151	90
152	370
153	140
154	941
155	160
156	50
157	110
158	120
159	320
160	310
161	220
162	230
163	120
164	200
165	80
166	240
167	50
168	390
169	70
170	40
171	90
172	100
173	190
174	280
175	150
176	270
177	190
178	140
179	50
180	110
181	30
182	230
183	100
184	50
185	60
186	90
187	90
188	250
189	190
190	550
191	220
192	140
193	30
194	190
195	30
196	771
197	120
198	30
199	30
200	80
201	70
202	320
203	120
204	320
205	80
206	50
207	10
208	30
209	10
210	40
211	10
212	10
213	20
214	50
215	40
216	350
217	140
218	340
219	80
220	330
221	60
222	60
223	10
224	20
225	10
226	10
227	10
228	100
229	40
230	500
231	150
232	250
233	50
234	80
235	20
236	30
237	10
238	10
240	10
241	10
242	70
243	40
244	530
245	140
246	230
247	60
248	50
249	10
250	20
256	70
257	30
258	1281
259	280
260	150
261	40
262	50
263	10
264	20
265	10
266	10
270	40
271	10
272	1591
273	811
274	250
275	50
276	40
277	10
278	20
284	40
286	2572
287	561
288	160
289	30
290	70
291	10
292	10
298	30
299	30
300	420
301	100
302	140
303	40
304	50
305	10
312	20
314	420
315	120
316	1091
317	270
318	50
319	10
326	40
327	10
328	791
329	210
330	140
331	30
332	10
340	10
342	641
343	200
344	480
345	120
346	10
354	30
356	691
357	180
358	190
359	50
360	10
368	20
369	10
370	370
371	100
372	20
384	651
385	170
386	30
398	561
399	1061
400	280
401	40
402	10
