Mass Spectrum: L-Proline, TMS derivative
Formula: C8 H17 N O2 Si
Molecular weight: 187
Origin: NIST Mass Spectrometry Data Center
m/z	RELATIVE INTENSITY
15	20
26	10
27	70
28	420
29	60
30	60
31	20
38	10
39	140
40	40
41	601
42	200
43	691
44	110
45	480
46	40
47	250
48	10
49	10
53	50
54	20
55	100
56	30
57	40
58	120
59	150
60	40
61	130
62	10
63	10
67	40
68	530
69	270
70	9999
71	530
72	100
73	621
74	90
75	1241
76	100
77	60
82	10
83	10
84	10
86	40
87	20
88	10
89	60
90	10
91	10
96	20
97	10
98	10
99	30
100	20
101	40
102	20
103	791
104	70
105	40
111	10
113	10
114	10
115	20
116	10
117	20
124	10
126	30
127	10
128	10
129	30
130	20
131	10
141	10
142	20
143	10
144	140
145	20
146	10
154	10
156	10
157	10
159	10
170	30
171	10
172	450
173	60
174	20
187	300
188	50
189	10
