Mass Spectrum: .beta.-Citronellol, methyl ether
Formula: C11 H22 O
Molecular weight: 170
Origin: NIST Mass Spectrometry Data Center
m/z	RELATIVE INTENSITY
15	120
26	30
27	671
28	180
29	1011
30	30
31	110
33	60
37	10
38	50
39	1631
40	390
41	6546
42	681
43	1001
45	6826
46	150
47	20
50	80
51	270
52	150
53	1501
54	540
55	4204
56	1281
57	841
58	550
59	290
60	20
62	20
63	70
64	20
65	400
66	210
67	8077
68	2202
69	6886
70	1071
71	520
72	50
73	40
74	10
75	10
77	360
78	70
79	671
80	981
81	9999
82	6416
83	1221
85	8358
86	490
87	60
89	20
91	240
92	30
93	340
94	561
95	8688
96	1591
97	170
98	40
99	130
100	30
101	60
102	10
103	10
105	40
106	10
107	110
108	50
109	3123
110	711
111	80
112	10
113	50
114	10
115	10
117	10
119	10
121	70
123	6536
124	661
125	40
127	30
128	10
134	10
138	3303
139	360
140	20
155	20
170	300
171	40
