Mass Spectrum: 3,4-Dimethoxyphenol, TMS derivative
Formula: C11 H18 O3 Si
Molecular weight: 226
Origin: NIST Mass Spectrometry Data Center
m/z	RELATIVE INTENSITY
14	10
15	120
26	10
27	30
28	20
29	110
30	10
31	40
37	10
38	30
39	150
40	10
41	50
42	50
43	390
44	150
45	1011
46	70
47	100
48	10
50	110
51	450
52	140
53	250
54	80
55	170
56	30
57	80
58	110
59	390
60	60
61	170
62	80
63	200
64	90
65	210
66	110
67	90
68	40
69	380
70	80
71	70
73	9999
74	961
75	1271
76	170
77	340
78	120
79	801
80	90
81	70
82	90
83	360
84	220
85	150
86	10
87	20
89	280
90	80
91	290
92	150
93	140
94	80
95	390
96	60
97	270
98	160
99	330
100	30
101	30
103	20
104	10
105	851
107	320
108	90
109	330
110	220
111	100
112	20
113	50
115	10
118	10
119	30
120	20
121	260
122	90
123	170
124	50
125	260
126	30
127	20
129	10
131	10
133	20
134	10
135	260
136	80
137	290
138	60
139	130
140	20
141	10
147	20
148	10
149	140
150	60
151	450
152	90
153	811
154	100
155	50
156	10
161	10
163	40
164	20
165	320
166	90
167	591
168	90
169	30
177	20
178	10
179	270
180	460
181	470
182	90
183	741
184	110
185	30
191	10
193	50
194	120
195	110
196	120
197	30
198	10
209	40
211	7287
212	1241
213	390
214	40
223	10
226	6996
227	1261
228	380
229	40
