Mass Spectrum: .beta.-Citronellol, TBDMS derivative
Formula: C16 H34 O Si
Molecular weight: 270
Origin: NIST Mass Spectrometry Data Center
m/z	RELATIVE INTENSITY
15	10
27	190
28	50
29	460
30	10
31	30
39	490
40	70
41	3223
42	240
43	561
44	50
45	520
46	40
47	480
48	20
49	10
50	10
51	50
52	30
53	460
54	120
55	1401
56	340
57	1101
58	450
59	1471
60	200
61	460
62	30
63	20
64	10
65	100
66	50
67	1411
68	270
69	5045
70	350
71	220
72	170
73	2963
74	310
75	9999
76	801
77	550
78	90
79	250
81	9499
82	1311
83	510
84	50
85	370
86	60
87	811
88	270
89	2803
90	240
91	200
92	20
93	210
94	190
95	5725
96	601
97	260
98	40
99	741
100	130
101	1802
102	230
103	641
104	60
105	60
107	110
108	30
109	1181
110	160
111	200
112	30
113	561
114	100
115	601
116	70
117	190
118	20
119	20
121	200
122	40
123	1401
124	140
125	80
126	20
127	550
128	100
129	1481
130	170
131	110
132	110
133	20
134	10
135	40
137	3803
138	2262
139	260
140	20
141	250
142	50
143	611
144	80
145	130
146	10
147	10
151	10
153	30
154	10
155	60
157	1672
158	230
159	80
160	10
167	10
169	100
170	20
171	90
172	10
181	20
183	210
184	40
185	981
186	160
187	50
188	10
195	40
196	10
197	70
198	10
199	20
211	10
213	6446
214	1201
215	330
216	40
255	160
256	30
257	10
270	10
