Mass Spectrum: 2-Ethylphenol, TMS derivative
Formula: C11 H18 O Si
Molecular weight: 194
Origin: NIST Mass Spectrometry Data Center
m/z	RELATIVE INTENSITY
15	30
26	10
27	160
28	30
29	100
30	10
31	50
38	30
39	240
40	30
41	70
42	50
43	450
44	140
45	1071
46	70
47	150
48	10
50	100
51	360
52	110
53	190
54	30
55	120
56	20
57	90
58	110
59	831
60	80
61	150
62	60
63	230
64	60
65	320
66	70
67	140
68	150
69	70
70	30
71	40
73	3273
74	550
75	1561
76	190
77	1331
78	420
79	300
80	40
81	190
82	1071
84	10
85	60
86	10
87	20
88	10
89	370
90	210
91	1151
92	130
93	140
94	20
95	140
96	20
97	30
98	10
99	10
101	40
102	150
103	520
104	190
105	1001
106	120
107	70
108	10
109	80
110	10
111	10
115	130
116	30
117	70
118	20
119	220
120	120
121	350
122	40
123	100
124	10
125	10
129	10
130	10
131	70
132	10
133	210
134	60
135	1531
136	200
137	400
138	50
139	10
143	20
145	80
146	20
147	360
148	170
149	961
150	150
151	1501
152	200
153	60
154	10
159	10
161	921
163	6186
164	1001
165	320
166	30
175	50
177	1621
178	160
179	9999
180	1882
181	530
182	50
191	10
194	7206
195	1341
196	380
197	40
