Mass Spectrum: 4-Chloro-3-methylphenol, TMS derivative
Formula: C10 H15 Cl O Si
Molecular weight: 214
Origin: NIST Mass Spectrometry Data Center
m/z	RELATIVE INTENSITY
15	30
26	10
27	60
28	20
29	70
30	10
31	20
37	10
38	30
39	160
40	10
41	20
42	50
43	420
44	130
45	711
46	50
47	140
48	10
49	10
50	130
51	440
52	100
53	140
54	30
55	100
56	20
57	60
58	120
59	170
60	40
61	100
62	120
63	530
64	70
65	210
66	50
67	160
68	180
69	60
70	20
71	40
72	70
73	1872
74	390
75	641
76	90
77	901
78	260
79	430
80	50
81	270
82	821
84	50
85	120
86	60
87	80
88	30
89	821
90	200
91	370
92	110
93	1461
94	110
95	611
96	60
97	100
98	20
99	500
101	190
102	90
103	400
104	120
105	601
106	60
107	100
108	10
109	70
110	10
111	30
112	30
113	160
114	20
115	120
116	20
117	170
118	20
119	150
120	30
121	100
122	10
123	60
124	50
125	841
126	80
127	280
128	30
129	60
130	10
131	80
132	10
133	100
134	30
135	480
136	70
137	60
138	20
139	300
140	30
141	230
142	30
143	180
144	20
145	130
146	20
147	130
148	140
149	500
150	80
151	30
153	10
155	50
156	10
157	20
159	10
161	140
162	60
163	981
164	320
165	90
166	10
167	20
168	20
169	330
170	50
171	290
172	40
173	70
174	10
175	10
177	30
178	30
179	20
180	10
181	30
182	20
183	220
184	90
185	100
186	30
187	10
195	20
196	10
197	100
199	9999
200	1752
201	4104
202	591
203	160
204	10
212	10
214	5235
215	881
216	1932
217	300
218	80
219	10
