Mass Spectrum: 11-Eicosenoic acid, (Z)-, TMS derivative
Formula: C23 H46 O2 Si
Molecular weight: 382
Origin: NIST Mass Spectrometry Data Center
m/z	RELATIVE INTENSITY
15	10
26	10
27	170
28	40
29	490
30	10
31	10
39	300
41	2392
42	530
43	2102
44	130
45	460
46	30
47	220
48	10
49	10
50	10
51	20
52	20
53	320
54	921
55	4614
56	1071
57	1431
58	190
59	190
60	80
61	400
62	30
63	20
65	110
66	110
67	1892
68	781
69	2412
70	651
71	360
72	360
73	7937
74	881
75	7166
76	540
77	440
78	60
79	561
80	290
81	1832
82	1131
83	1772
84	1361
85	330
86	100
87	70
88	60
89	300
90	40
91	230
92	80
93	420
94	280
95	1732
96	2092
97	1591
98	1271
99	320
100	30
101	100
102	20
103	50
104	10
105	210
106	60
107	270
108	200
109	1001
110	921
111	671
112	300
113	90
114	20
115	80
116	841
117	6356
118	651
119	430
120	90
121	350
122	130
123	711
124	470
125	280
126	90
127	60
129	6396
130	841
131	1131
132	1732
133	751
134	260
135	280
136	90
137	450
138	360
139	160
140	40
141	60
142	50
143	400
144	80
145	3103
146	410
147	260
148	120
149	140
150	50
151	300
152	350
153	100
154	30
155	190
156	80
157	190
158	80
159	240
160	40
161	110
162	40
163	60
164	30
165	180
166	180
167	70
168	50
169	120
170	80
171	460
172	170
173	200
174	70
175	90
176	30
177	30
178	30
179	110
180	120
181	50
182	20
183	180
184	50
185	881
186	220
187	250
188	130
189	60
190	20
191	20
192	30
193	100
194	210
195	70
196	20
197	130
198	30
199	931
200	180
201	320
202	60
203	30
204	10
205	20
206	20
207	110
208	611
209	130
210	30
211	120
212	30
213	230
214	50
215	90
216	20
217	20
218	10
219	20
220	10
221	140
222	110
223	30
224	10
225	50
226	10
227	230
228	50
229	80
230	20
231	20
232	10
233	10
234	10
235	170
236	90
237	40
238	10
239	40
240	10
241	180
242	40
243	90
244	20
245	20
246	10
248	150
249	270
250	971
251	210
252	20
253	50
254	10
255	210
256	50
257	90
258	20
259	10
263	170
264	190
265	40
267	70
268	20
269	210
270	50
271	70
272	20
273	20
274	70
275	20
277	30
278	10
281	70
282	20
283	130
284	40
285	150
286	70
287	20
291	20
292	1391
293	340
294	40
295	60
296	10
297	80
298	20
299	100
300	110
301	30
302	10
309	50
310	10
311	50
312	10
313	30
314	70
315	20
323	180
324	50
325	50
326	10
327	50
328	10
337	50
338	20
339	160
340	40
341	30
342	10
349	10
351	60
352	20
353	50
354	10
364	10
365	20
367	9999
368	3063
369	821
370	140
371	10
382	1041
383	360
384	100
385	20
