Mass Spectrum: [(2-Ethyl-5-methylfuran-3,4-diyl)bis(oxy)]bis(trimethylsilane)
Formula: C13 H26 O3 Si2
Molecular weight: 286
Origin: NIST Mass Spectrometry Data Center
m/z	RELATIVE INTENSITY
15	10
27	10
28	10
31	10
39	30
41	20
42	20
43	350
44	140
45	1251
46	90
47	70
51	20
52	10
53	100
54	10
55	80
56	10
58	100
59	340
60	30
61	70
62	10
63	10
64	10
65	50
66	30
67	90
68	10
69	70
70	30
71	60
73	6085
74	581
75	581
76	40
77	120
78	20
79	70
80	10
81	110
82	10
83	130
84	30
85	120
86	20
87	40
88	10
89	20
91	40
92	10
93	40
94	10
95	80
96	20
97	120
98	30
99	130
100	20
103	50
104	10
105	40
106	10
107	20
108	10
109	50
111	120
112	20
113	80
114	10
115	50
116	10
117	30
118	10
119	50
120	20
121	20
122	10
123	40
124	10
125	40
126	10
127	80
128	10
131	150
132	20
133	340
134	50
135	50
136	10
137	20
140	10
141	40
142	10
143	30
144	60
147	1161
148	180
149	170
150	20
151	60
152	20
153	130
154	60
155	120
156	20
157	60
158	10
163	10
165	40
166	60
167	130
168	40
169	110
170	20
179	30
180	40
181	230
182	70
183	2232
184	330
185	130
186	10
193	10
195	120
196	40
197	711
198	170
199	50
200	10
209	10
211	30
212	20
213	60
214	10
225	10
227	20
228	10
229	50
239	20
240	10
241	60
242	40
243	90
244	20
245	10
254	10
255	160
256	60
257	180
258	90
259	30
260	10
269	90
271	9999
272	3123
273	1311
274	210
275	40
284	10
285	380
286	5455
287	1441
288	591
289	100
290	20
