Mass Spectrum: Pyroglutamic acid, TMS derivative
Formula: C8 H15 N O3 Si
Molecular weight: 201
Origin: NIST Mass Spectrometry Data Center
m/z	RELATIVE INTENSITY
15	20
26	30
27	130
28	721
29	150
30	80
31	30
38	10
39	100
40	30
41	991
42	150
43	380
44	170
45	1021
46	80
47	460
48	20
49	20
52	20
53	50
54	170
55	400
56	651
57	110
58	280
59	290
60	120
61	330
62	30
63	10
66	30
67	30
68	110
69	30
70	30
71	30
72	90
73	2642
74	400
75	2793
76	210
77	110
80	10
82	30
83	300
84	9999
85	591
86	90
87	40
88	20
89	30
91	10
93	20
94	10
96	10
97	20
98	60
99	40
100	150
101	40
102	30
103	280
104	30
105	10
110	10
111	10
112	50
113	30
114	130
115	60
116	390
117	80
118	20
124	40
125	10
126	10
127	10
128	50
129	90
130	290
131	70
132	10
140	370
141	60
142	140
143	20
144	10
146	10
156	220
157	1171
158	1341
159	200
160	50
168	10
169	10
186	721
187	90
188	40
201	30
202	10
