Mass Spectrum: cis-9, cis-12-Octadecadienoic acid, 4,4-dimethyloxazoline (dmox) derivative
Formula: C22 H39 N O
Molecular weight: 333
Origin: NIST Mass Spectrometry Data Center
m/z	RELATIVE INTENSITY
15	10
26	10
27	170
28	60
29	540
30	50
31	20
38	10
39	350
40	90
41	2092
42	631
43	741
44	120
45	30
50	10
51	40
52	40
53	420
54	901
55	2993
56	440
57	470
58	601
59	30
60	20
63	10
65	240
66	150
67	2062
68	751
69	831
70	300
71	180
72	941
73	180
74	10
77	420
78	100
79	1051
80	340
81	1261
82	621
83	470
84	250
85	50
86	50
88	10
89	10
91	410
92	60
93	370
94	170
95	681
96	540
97	380
98	881
99	70
100	90
101	10
103	30
104	10
105	120
106	30
107	140
108	110
109	210
110	721
111	130
112	190
113	6786
114	611
115	50
117	80
118	10
119	50
120	70
121	100
122	90
123	80
124	220
126	9999
127	1551
128	130
129	10
131	30
132	10
133	40
134	90
135	60
136	80
137	40
138	150
139	70
140	1331
141	160
142	20
145	20
146	10
147	20
148	80
149	40
150	70
151	30
152	320
153	180
154	330
155	70
156	10
159	10
160	10
161	10
162	40
163	20
164	50
165	20
166	290
167	80
168	641
169	110
170	10
175	10
176	20
177	10
178	60
179	20
180	150
181	40
182	1471
183	220
184	20
190	20
191	10
192	60
193	20
194	100
195	20
196	390
197	60
198	10
204	20
205	10
206	60
207	20
208	170
209	50
210	90
211	10
218	20
219	10
220	50
222	2232
223	440
224	90
225	10
232	20
234	60
235	20
236	791
237	160
238	20
246	20
248	270
249	80
250	120
251	20
252	10
260	20
261	30
262	480
263	120
264	30
266	10
274	10
276	1712
277	380
278	120
279	20
288	20
290	741
291	170
292	120
293	20
302	10
304	170
305	50
306	10
318	490
319	120
320	20
332	150
333	781
334	190
335	20
