Mass Spectrum: cis-13-Octadecenoic acid, methyl ester
Formula: C19 H36 O2
Molecular weight: 296
Origin: NIST Mass Spectrometry Data Center
m/z	RELATIVE INTENSITY
15	70
26	20
27	350
28	110
29	681
30	20
31	40
33	10
39	691
41	4364
42	951
43	2772
44	120
45	170
50	10
51	50
52	50
53	671
54	1571
55	9999
56	1992
57	1561
58	110
59	1802
60	60
61	20
62	10
63	10
65	220
66	160
67	2512
68	1371
69	5475
70	1311
71	701
72	70
73	430
74	4804
75	681
76	50
77	190
78	70
79	631
80	300
81	2312
82	1661
83	4334
84	3033
85	781
87	3723
88	350
89	30
90	10
91	170
92	50
93	400
94	400
95	2032
96	3463
97	4224
98	2873
99	400
100	90
101	651
102	70
103	10
104	10
105	90
106	50
107	360
108	320
109	1301
110	1932
111	2032
112	741
113	280
114	370
115	621
116	110
117	20
118	20
119	270
120	110
121	480
122	220
123	1351
124	1121
125	1111
126	240
127	300
128	450
129	490
130	140
131	20
132	10
133	280
134	280
135	460
136	160
137	841
138	861
139	661
140	120
141	611
142	130
143	500
144	70
145	10
147	210
148	240
149	370
150	140
151	571
152	741
153	410
154	70
155	150
156	30
157	160
158	30
159	10
161	170
162	80
163	200
164	130
165	370
166	571
167	260
168	50
169	210
170	30
171	100
172	30
173	10
175	120
176	40
177	90
178	60
179	210
180	941
181	250
182	50
183	140
184	20
185	70
186	30
187	10
189	80
190	30
191	40
192	20
193	170
194	180
195	80
196	20
197	40
198	10
199	90
200	50
201	10
203	50
204	20
205	20
206	20
207	190
208	140
209	70
210	20
211	20
213	80
214	50
215	10
217	30
218	10
220	340
221	350
222	1111
223	250
224	30
225	10
227	30
228	30
229	10
233	10
235	250
236	140
237	20
239	20
241	10
245	10
246	130
247	40
248	10
249	40
250	10
253	80
254	10
255	10
264	1982
265	1481
266	260
267	40
268	10
278	30
279	10
296	400
297	100
298	10
