Mass Spectrum: 9-Decenoic acid, picolinyl ester
Formula: C16 H23 N O2
Molecular weight: 261
Origin: NIST Mass Spectrometry Data Center
m/z	RELATIVE INTENSITY
26	30
27	290
28	130
29	440
30	10
31	10
37	10
38	90
39	1631
40	180
41	2442
42	490
43	470
44	20
45	30
49	10
50	90
51	320
52	210
53	581
54	450
55	2913
56	360
57	220
59	30
60	30
61	10
62	40
63	330
64	430
65	2873
66	270
67	781
68	180
69	841
70	110
71	200
72	10
73	30
75	10
76	10
77	70
78	330
79	370
80	500
81	601
82	80
83	340
84	120
85	180
86	10
87	10
90	30
91	741
92	9999
93	5255
94	510
95	150
96	20
97	100
98	110
99	30
101	10
103	10
104	20
105	100
106	290
107	340
108	4254
109	1812
110	591
111	60
112	30
113	40
115	10
117	50
118	160
119	130
120	150
121	110
122	140
123	90
124	10
125	10
126	10
127	30
130	50
131	180
132	210
133	1601
134	771
135	220
136	210
137	70
138	10
144	20
145	10
146	270
147	881
148	3063
149	520
150	110
151	781
152	90
153	30
158	10
159	10
160	100
161	100
162	240
164	3603
165	440
166	40
172	10
173	10
174	80
175	40
176	270
177	851
178	631
179	170
180	20
187	20
188	130
189	70
190	821
191	460
192	270
193	60
194	10
200	10
201	10
202	80
204	3163
205	540
206	510
207	110
208	10
216	30
218	1471
219	280
220	991
221	140
222	10
232	771
233	320
234	50
242	10
246	140
247	20
260	1111
261	490
262	90
263	10
