Mass Spectrum: 5,8,11-Eicosatriynoic acid, TMS derivative
Formula: C23 H36 O2 Si
Molecular weight: 372
Origin: NIST Mass Spectrometry Data Center
m/z	RELATIVE INTENSITY
15	10
26	10
27	250
28	40
29	510
30	10
31	10
38	10
39	330
40	40
41	1341
42	170
43	1331
44	130
45	751
46	60
47	330
48	20
49	10
50	80
51	200
52	110
53	250
54	80
55	2152
56	220
57	601
58	120
59	340
60	90
61	390
62	60
63	250
64	60
65	350
66	90
67	651
68	70
69	350
70	70
71	80
72	280
73	9999
74	991
75	5525
76	500
77	921
78	290
79	691
80	190
81	520
82	130
83	160
84	20
85	110
86	50
87	80
88	70
89	340
90	110
91	1371
92	210
93	360
94	60
95	330
96	70
97	90
98	40
99	90
100	30
101	140
102	240
103	440
104	280
105	621
106	100
107	180
108	40
109	110
110	30
111	60
112	20
113	60
114	50
115	1601
116	781
117	4224
118	601
119	460
120	70
121	110
122	30
123	140
124	50
125	60
126	110
127	601
128	1782
129	3633
130	791
131	721
132	200
133	250
134	50
135	120
136	30
137	70
138	20
139	230
140	80
141	2032
142	1351
143	1381
144	330
145	380
146	80
147	120
148	30
149	80
150	30
151	140
152	380
153	661
154	470
155	2092
156	1521
157	921
158	210
159	200
160	40
161	90
162	20
163	60
164	30
165	330
166	210
167	450
168	240
169	1091
170	360
171	410
172	100
173	120
174	30
175	120
176	30
177	70
178	80
179	270
180	140
181	330
182	160
183	741
184	310
185	430
186	90
187	100
188	30
189	90
190	20
191	80
192	80
193	180
194	80
195	150
196	50
197	410
198	120
199	140
200	40
201	100
202	30
203	150
204	60
205	220
206	80
207	120
208	50
209	80
210	30
211	160
212	50
213	130
214	30
215	80
216	40
217	380
218	310
219	240
220	80
221	250
222	120
223	60
224	20
225	110
226	40
227	100
228	20
229	70
230	60
231	390
232	180
233	140
234	50
235	50
236	40
237	20
238	10
239	70
240	60
241	110
242	30
243	80
244	40
245	380
246	220
247	130
248	40
249	40
250	10
251	10
253	30
254	20
255	80
256	30
257	70
258	40
259	350
260	130
261	60
262	20
263	10
265	20
267	10
268	10
269	20
270	10
271	40
272	40
273	400
274	180
275	70
276	20
277	10
281	20
282	10
283	60
284	10
285	20
286	20
287	180
288	50
289	30
290	10
297	10
299	10
300	10
301	80
302	20
303	10
313	10
315	170
316	70
317	90
318	20
319	10
320	10
327	10
329	90
330	30
331	10
339	10
343	90
344	30
345	10
355	10
356	10
357	110
358	30
359	10
371	90
372	70
373	20
374	10
