Mass Spectrum: Cholecalciferol, TBDMS derivative
Formula: C33 H58 O Si
Molecular weight: 498
Origin: NIST Mass Spectrometry Data Center
m/z	RELATIVE INTENSITY
27	180
29	601
38	30
39	230
41	2532
42	230
43	4454
45	300
46	60
47	240
51	30
53	250
54	40
55	3924
56	601
57	5055
58	340
59	1071
60	140
61	180
65	100
66	50
67	1291
68	130
69	2302
70	260
71	1601
72	70
73	7677
74	731
75	6456
76	510
77	440
78	60
79	821
80	120
81	2793
82	300
83	1501
84	130
85	520
86	50
87	40
89	130
91	1321
92	200
93	1021
94	290
95	3373
96	240
97	971
98	80
99	260
101	220
102	50
103	300
104	130
105	1832
106	240
107	921
108	150
109	1561
110	200
111	671
112	60
113	90
115	2132
116	420
117	1251
118	571
119	6896
120	761
121	510
122	110
123	641
124	40
125	310
126	120
127	290
128	1251
129	2342
130	731
131	1822
132	550
133	1201
134	180
135	270
136	80
137	190
138	40
139	160
140	30
141	1371
142	861
143	4584
144	1131
145	3863
146	711
147	470
148	110
149	150
150	50
151	110
152	100
153	330
154	270
155	1171
156	671
157	4034
158	1912
159	2863
160	540
161	260
162	40
163	170
164	220
165	310
166	120
167	420
168	260
169	1301
170	480
171	2552
172	741
173	1171
174	170
175	180
176	70
178	50
179	250
180	120
181	440
182	310
183	1041
184	400
185	1371
186	540
187	360
188	60
189	120
191	80
192	40
193	280
194	100
195	430
196	230
197	1051
198	571
199	1161
200	270
201	120
202	60
203	60
205	50
206	140
207	230
209	160
210	270
211	2222
212	721
213	450
214	100
215	200
216	50
217	80
218	20
219	140
221	140
222	40
223	140
224	430
225	490
226	520
227	240
228	90
229	50
231	80
233	130
234	60
235	90
236	80
237	230
238	120
239	240
240	80
241	70
243	30
245	70
247	30
251	200
252	110
253	671
254	140
255	60
257	30
259	60
261	20
265	40
267	110
269	60
271	90
272	30
273	40
274	30
281	140
283	50
295	60
299	50
301	30
303	20
309	120
310	50
311	270
312	280
313	60
314	260
315	60
316	20
323	120
324	130
325	8948
326	2602
327	861
328	170
329	60
331	30
337	30
338	90
339	30
340	50
342	40
343	30
349	100
351	9999
352	2843
353	410
354	40
356	30
364	50
365	1361
366	1511
367	480
368	130
383	40
386	30
425	70
426	40
441	1001
442	360
443	90
483	60
485	20
496	40
498	1972
499	801
500	220
