Mass Spectrum: 2-Adamantylamine, TMS derivative
Formula: C13 H25 N Si
Molecular weight: 223
Origin: NIST Mass Spectrometry Data Center
m/z	RELATIVE INTENSITY
27	60
28	50
29	100
30	70
31	40
39	200
40	40
41	470
42	70
43	280
44	180
45	701
46	90
47	30
50	10
51	50
52	30
53	250
54	130
55	350
56	230
57	100
58	200
59	811
60	180
61	40
62	10
63	20
64	10
65	170
66	100
67	510
68	90
69	100
70	90
71	60
72	170
73	4604
74	811
75	200
76	40
77	450
78	170
79	871
80	300
81	320
82	130
83	90
84	90
85	80
86	150
87	70
88	140
89	30
90	90
91	851
92	721
93	460
94	130
95	160
96	100
97	80
98	330
99	110
100	791
101	110
102	3803
103	410
104	190
105	280
106	160
107	90
108	50
109	50
110	120
111	50
112	220
113	90
114	110
115	230
116	40
117	50
118	20
119	230
120	60
121	50
122	20
123	40
124	80
125	30
126	240
127	40
128	1001
129	160
130	50
131	30
132	20
133	60
134	450
135	140
136	40
137	30
138	70
139	30
140	50
141	60
142	390
143	60
144	20
145	10
146	10
147	10
148	40
150	2943
151	350
152	90
153	20
154	100
155	30
156	10
162	10
163	10
164	70
165	30
166	120
167	40
168	30
169	10
177	10
178	60
179	30
180	731
181	140
182	100
183	10
192	40
193	10
194	30
195	10
206	80
208	9999
209	1982
210	520
211	60
220	10
222	2552
223	2262
224	480
225	100
226	10
