Mass Spectrum: 4-Decen-1-ol, (Z)-, TBDMS derivative
Formula: C16 H34 O Si
Molecular weight: 270
Origin: NIST Mass Spectrometry Data Center
m/z	RELATIVE INTENSITY
15	10
26	10
27	270
28	80
29	861
30	20
31	30
39	450
40	90
41	2172
42	330
43	480
44	50
45	450
46	30
47	440
48	20
49	20
50	10
51	40
52	30
53	340
54	380
55	1271
56	280
57	961
58	370
59	1692
60	200
61	480
62	30
63	30
64	20
65	120
66	90
67	1301
68	641
69	641
70	110
71	140
72	120
73	2572
74	380
75	9388
76	821
77	561
78	60
79	490
80	100
81	1882
82	350
83	330
84	50
85	370
86	60
87	470
88	170
89	3373
90	290
91	200
92	20
93	100
95	1551
96	360
97	360
98	70
99	1101
100	170
101	4834
102	550
103	260
104	20
105	10
107	40
108	10
109	300
110	140
111	250
112	70
113	851
114	220
115	1431
116	150
117	90
118	10
121	20
123	120
124	20
125	80
126	20
127	581
128	200
129	2913
130	330
131	150
132	20
133	10
135	20
136	10
137	500
138	360
139	80
140	10
141	320
142	20
143	2432
144	300
145	110
146	10
151	10
153	30
154	10
155	340
156	60
157	430
158	60
159	20
167	20
168	10
169	80
170	10
171	140
172	20
173	10
179	10
181	20
183	781
184	130
185	300
186	50
187	10
195	60
196	10
197	30
198	10
199	60
200	10
211	20
213	9999
214	2122
215	591
216	60
255	260
256	60
257	10
269	10
