Mass Spectrum: (S)-(-)-Citronellic acid, picolinyl ester
Formula: C16 H23 N O2
Molecular weight: 261
Origin: NIST Mass Spectrometry Data Center
m/z	RELATIVE INTENSITY
15	10
26	20
27	270
28	70
29	250
30	10
31	10
37	20
38	110
39	1641
40	240
41	3873
42	430
43	641
44	20
45	80
46	10
49	10
50	130
51	420
52	260
53	921
54	190
55	1611
56	370
57	150
58	10
59	100
60	10
61	10
62	50
63	370
64	370
65	3003
66	320
67	1611
68	400
69	8628
70	591
71	981
72	50
73	30
75	10
76	10
77	190
78	410
79	440
80	440
81	671
82	410
83	240
84	30
85	240
86	10
87	10
89	10
90	30
91	591
92	7247
93	9999
94	901
95	480
96	50
97	80
98	20
99	60
100	10
101	90
102	10
103	10
104	20
105	50
106	240
107	390
108	6736
109	7977
110	1241
111	140
112	10
113	1001
114	70
115	50
116	10
117	30
118	30
119	30
120	40
121	60
122	20
123	480
124	50
125	30
127	110
128	10
130	20
131	20
132	30
133	70
134	30
135	30
136	10
137	30
139	10
144	20
145	10
146	40
148	20
149	10
151	2873
152	310
153	70
154	10
158	10
160	20
161	10
164	90
165	10
169	120
170	20
172	10
174	10
176	10
178	2923
179	420
180	40
186	10
190	20
192	1201
193	200
194	20
200	30
202	10
204	80
205	30
206	40
207	10
218	40
219	20
220	10
228	10
246	300
247	50
248	10
260	70
261	1141
262	300
263	40
