Mass Spectrum: 3-Methyl-3-buten-1-ol, TBDMS derivative
Formula: C11 H24 O Si
Molecular weight: 200
Origin: NIST Mass Spectrometry Data Center
m/z	RELATIVE INTENSITY
15	10
26	10
27	160
28	40
29	350
30	10
31	40
38	10
39	490
40	100
41	1101
42	140
43	370
44	70
45	651
46	50
47	480
48	30
49	10
50	20
51	40
52	20
53	200
54	40
55	240
56	110
57	530
58	721
59	2042
60	250
61	320
62	20
63	20
64	50
65	30
66	20
67	160
68	40
69	200
70	40
71	200
72	150
73	3263
74	360
75	3213
76	240
77	120
79	10
81	30
82	10
83	130
84	40
85	1912
86	200
87	250
88	350
89	1581
90	150
91	60
95	50
96	20
97	260
98	60
99	350
101	9999
102	1291
103	520
104	20
109	110
110	20
111	190
113	4824
114	621
115	1061
116	110
117	40
123	10
125	230
126	30
127	290
128	50
129	400
130	50
131	20
141	20
143	9408
144	1481
145	540
146	40
147	10
155	20
157	10
185	130
186	20
187	10
199	10
