Mass Spectrum: (S)-(-)-Citronellic acid, TBDMS derivative
Formula: C16 H32 O2 Si
Molecular weight: 284
Origin: NIST Mass Spectrometry Data Center
m/z	RELATIVE INTENSITY
15	20
27	270
28	80
29	550
30	20
31	30
37	10
39	731
40	90
41	3713
42	340
43	621
44	70
45	611
46	50
47	631
48	30
49	20
50	20
51	80
52	50
53	500
54	140
55	1151
56	320
57	921
58	310
59	661
60	170
61	300
62	30
63	30
65	120
66	40
67	1031
68	280
69	3123
70	290
71	80
72	651
73	3453
74	260
75	7867
76	781
77	601
78	50
79	380
80	70
81	661
82	520
83	240
84	30
85	210
86	90
87	70
88	180
89	50
90	10
91	190
92	80
93	2082
94	490
95	611
96	100
97	140
98	50
99	561
100	100
101	520
102	110
103	210
104	30
105	370
106	110
107	1641
108	190
109	4084
110	751
111	160
112	30
113	280
114	220
115	1641
116	2162
117	1341
118	230
119	380
120	60
121	60
122	10
123	120
124	30
125	80
126	20
127	180
129	1001
130	130
131	180
132	30
133	240
134	70
135	1692
136	190
137	130
138	10
139	20
141	90
143	1341
144	260
145	2352
146	280
147	160
148	10
149	20
151	60
152	681
153	210
154	20
155	150
156	70
157	220
158	70
159	140
160	20
161	10
163	10
165	50
166	10
167	90
169	9048
170	1802
171	1431
172	180
173	50
174	10
175	10
179	10
181	20
183	170
184	120
185	571
186	100
187	60
188	10
191	20
193	10
195	10
197	30
198	30
199	60
200	10
201	70
202	20
209	1561
210	290
211	230
212	40
213	40
214	10
215	50
216	10
227	9999
228	3093
229	911
230	100
231	10
241	20
251	10
253	20
269	581
270	120
271	30
284	250
285	100
286	20
287	10
