Mass Spectrum: L-Tryptophan, 2TBDMS derivative
Formula: C23 H40 N2 O2 Si2
Molecular weight: 432
Origin: NIST Mass Spectrometry Data Center
m/z	RELATIVE INTENSITY
27	30
29	130
30	10
31	20
38	10
39	80
40	20
41	290
42	30
43	120
44	40
45	410
46	40
47	100
49	10
50	20
51	40
52	10
53	20
54	10
55	70
56	110
57	450
58	260
59	941
60	110
61	80
62	10
63	20
65	10
66	10
67	10
69	20
70	20
71	20
73	9999
74	1011
75	1101
76	100
77	340
78	30
79	10
81	10
82	10
83	20
84	40
85	100
86	110
87	200
88	190
89	50
90	30
91	20
93	10
95	10
96	10
97	20
98	20
99	130
100	120
101	70
102	200
103	520
104	70
105	40
108	10
110	10
111	10
112	20
113	30
114	40
115	1001
116	180
117	290
118	220
119	100
120	20
121	10
126	10
127	20
128	250
129	220
130	7277
131	1091
132	1772
133	841
134	200
135	70
136	10
137	10
140	20
141	20
142	340
143	150
144	110
145	90
146	300
147	1852
148	480
149	200
150	30
151	10
154	20
155	30
156	90
157	60
158	100
159	100
160	701
161	140
162	100
163	20
164	10
168	10
169	80
170	110
171	70
172	80
173	80
174	220
175	70
176	30
177	10
182	10
183	10
184	90
185	40
186	80
187	60
188	160
189	150
190	40
191	10
198	10
199	80
200	40
201	100
202	110
203	30
204	20
213	10
214	90
215	200
216	150
217	40
218	270
219	50
220	20
229	10
230	20
231	10
232	20
233	10
234	60
235	10
241	10
242	20
243	60
244	90
245	460
246	350
247	90
248	40
249	10
256	10
257	20
258	20
259	10
260	10
261	10
262	10
271	20
272	70
273	841
274	190
275	50
276	10
285	10
286	50
287	110
288	80
289	20
290	10
298	10
299	10
300	10
302	9038
303	3073
304	1101
305	240
306	40
307	10
317	10
347	681
348	270
349	90
350	20
357	10
373	10
375	3173
376	991
377	370
378	80
379	10
389	70
390	20
391	10
417	150
418	50
419	20
431	10
