Mass Spectrum: Alprenolol, N-methyl-, methyl ether
Formula: C17 H27 N O2
Molecular weight: 277
Origin: NIST Mass Spectrometry Data Center
m/z	RELATIVE INTENSITY
15	10
18	10
27	80
28	50
29	40
30	30
31	10
38	10
39	130
40	20
41	370
42	390
43	470
44	2712
45	180
50	30
51	90
52	50
53	40
54	20
55	80
56	330
57	90
58	410
59	60
62	10
63	60
64	20
65	100
66	20
67	10
68	30
69	10
70	280
71	200
72	200
73	20
74	10
75	10
76	20
77	300
78	150
79	180
80	10
81	10
82	30
83	10
84	100
86	9999
87	941
88	60
89	80
90	40
91	380
92	30
93	10
94	10
95	10
96	40
97	10
98	170
99	20
100	30
101	10
102	50
103	170
104	50
105	220
106	20
107	110
108	10
110	10
112	60
113	10
114	110
115	330
116	80
117	50
118	70
119	90
120	10
121	10
127	10
128	90
129	30
130	30
131	280
132	100
133	60
134	20
141	10
142	20
143	10
144	40
145	40
146	10
147	20
158	10
159	10
161	10
171	10
173	20
174	10
204	10
219	30
220	10
234	10
246	30
247	10
262	140
263	20
276	20
277	220
278	40
