Mass Spectrum: 1,2-Dimethoxy-4-(methoxymethyl)benzene
Formula: C10 H14 O3
Molecular weight: 182
Origin: NIST Mass Spectrometry Data Center
m/z	RELATIVE INTENSITY
14	10
15	190
26	20
27	70
28	20
29	190
30	30
31	30
37	20
38	100
39	591
40	60
41	150
42	30
43	70
44	10
45	500
46	10
47	10
49	20
50	280
51	751
52	280
53	490
54	40
55	110
56	10
57	10
59	70
61	40
62	140
63	400
64	230
65	941
66	230
67	130
68	40
69	70
70	10
71	50
73	10
74	70
75	130
76	110
77	921
78	671
79	711
80	240
81	290
82	30
83	10
85	10
86	10
87	10
89	420
90	370
91	591
92	230
93	140
94	200
95	310
96	220
97	20
103	10
105	641
106	641
107	1441
108	911
109	480
110	40
111	10
118	110
119	110
120	70
121	380
122	120
123	110
124	490
125	40
133	20
135	550
136	290
137	350
138	100
139	761
140	60
141	10
149	40
151	9999
152	1381
153	120
154	10
165	280
166	470
167	490
168	50
181	1041
182	4374
183	490
184	50
