Mass Spectrum: 4-Methyl-2-pentanol, methyl ether
Formula: C7 H16 O
Molecular weight: 116
Origin: NIST Mass Spectrometry Data Center
m/z	RELATIVE INTENSITY
15	50
26	10
27	260
28	60
29	510
30	20
31	460
33	100
37	10
38	20
39	410
40	70
41	811
42	230
43	520
44	30
45	500
46	10
50	20
51	30
52	10
53	80
54	10
55	180
56	80
59	9999
60	330
61	30
63	10
65	10
67	20
69	791
70	60
71	80
72	20
73	50
83	10
84	280
85	70
86	10
99	10
101	410
102	30
115	10
