Mass Spectrum: Acetoin, TBDMS derivative
Formula: C10 H22 O2 Si
Molecular weight: 202
Origin: NIST Mass Spectrometry Data Center
m/z	RELATIVE INTENSITY
15	50
26	10
27	100
28	50
29	240
30	10
31	70
38	10
39	170
40	20
41	390
42	100
43	1371
44	120
45	871
46	60
47	390
48	20
49	20
50	10
51	20
52	10
53	80
54	10
55	130
56	60
57	270
58	631
59	1331
60	160
61	310
62	20
63	20
67	20
68	10
69	50
70	20
71	120
72	110
73	5945
74	530
75	4964
76	350
77	520
78	30
79	20
81	10
83	40
84	10
85	200
86	30
87	380
88	30
89	20
95	10
97	20
99	180
100	60
101	390
102	160
103	691
104	60
105	20
111	30
112	20
113	40
114	10
115	1061
116	140
117	160
118	10
119	10
127	20
129	591
130	1181
131	370
132	60
133	10
143	100
145	9999
146	1171
147	430
148	30
159	1381
160	190
161	60
171	10
172	10
187	180
188	20
189	10
