Mass Spectrum: 10-Undecynoic acid, picolinyl ester
Formula: C17 H23 N O2
Molecular weight: 273
Origin: NIST Mass Spectrometry Data Center
m/z	RELATIVE INTENSITY
15	10
26	30
27	420
28	160
29	480
30	20
31	10
37	30
38	150
39	2102
40	290
41	2522
42	490
43	631
44	70
45	70
46	10
48	10
49	10
50	120
51	480
52	330
53	1261
54	550
55	2622
56	230
57	240
58	60
59	30
60	30
61	10
62	60
63	390
64	520
65	3423
66	420
67	1531
68	260
69	270
70	80
71	130
72	10
73	30
74	10
75	10
76	20
77	410
78	400
79	1261
80	741
81	1521
82	230
83	180
84	90
85	120
86	10
87	30
89	20
90	30
91	1001
92	9999
93	5635
94	581
95	510
96	70
97	130
98	50
99	20
100	10
101	20
102	20
103	20
104	30
105	140
106	310
107	320
108	4674
109	1421
110	611
111	80
112	20
113	20
115	30
116	20
117	170
118	320
119	250
120	110
121	671
122	200
123	120
124	10
125	20
127	10
128	10
130	1131
131	2302
132	961
133	380
134	200
135	290
136	90
137	20
139	10
140	10
141	10
142	10
143	60
144	1481
145	931
146	1131
147	260
148	851
149	120
151	1041
152	190
153	20
154	20
155	10
156	10
157	20
158	190
159	80
160	931
161	180
162	320
163	330
164	2522
165	480
166	70
167	20
168	10
169	10
170	10
171	20
172	130
173	120
174	240
175	40
176	30
177	70
178	671
179	110
180	20
181	70
182	40
183	10
184	10
186	100
187	170
188	340
189	70
190	160
191	240
192	581
193	80
194	20
198	10
199	10
200	90
201	100
202	1301
203	260
204	470
205	70
206	230
207	30
208	10
213	20
214	140
215	30
216	1621
217	270
218	180
219	40
220	60
221	30
222	10
225	10
226	10
227	20
228	40
229	10
230	1001
231	200
232	250
233	30
234	621
235	90
236	10
244	490
245	160
246	30
254	10
258	110
259	20
260	10
270	10
272	1231
273	280
274	20
276	10
280	10
