Mass Spectrum: 11-Octadecenoic acid, (E)-, TMS derivative
Formula: C21 H42 O2 Si
Molecular weight: 354
Origin: NIST Mass Spectrometry Data Center
m/z	RELATIVE INTENSITY
15	10
26	10
27	190
28	30
29	520
30	10
31	10
39	370
41	2672
42	671
43	2152
44	140
45	591
46	40
47	290
48	10
49	10
50	10
51	30
52	30
53	420
54	1151
55	5805
56	1131
57	891
58	200
59	260
60	110
61	581
62	40
63	30
65	150
66	130
67	2342
68	1001
69	3013
70	631
71	310
72	440
73	9999
74	1091
75	9469
76	711
77	581
78	70
79	661
80	340
81	2282
82	1471
83	1962
84	1702
85	370
86	130
87	100
88	80
89	370
90	50
91	290
92	110
93	500
94	360
95	2212
96	2702
97	1802
98	1732
99	440
100	40
101	140
102	30
103	60
104	10
105	280
106	90
107	320
108	260
109	1261
110	1181
111	781
112	410
113	120
114	30
115	100
116	1051
117	8388
118	861
119	601
120	110
121	400
122	160
123	861
124	561
125	320
126	110
127	70
129	8107
130	1031
131	1441
132	2152
133	891
134	310
135	290
136	100
137	530
138	420
139	170
140	50
141	70
142	60
143	470
144	70
145	3633
146	490
147	320
148	150
149	140
150	70
151	380
152	400
153	100
154	30
155	280
156	100
157	230
158	90
159	280
160	50
161	130
162	60
163	60
164	70
165	220
166	290
167	100
168	60
169	230
170	110
171	540
172	190
173	230
174	80
175	110
176	30
177	40
178	30
179	140
180	711
181	160
182	30
183	270
184	60
185	951
186	230
187	260
188	130
189	60
190	20
191	30
192	20
193	130
194	110
195	40
196	10
197	60
199	901
200	180
201	300
202	60
203	30
204	10
205	10
206	10
207	140
208	80
209	40
210	10
211	70
212	10
213	240
214	50
215	90
216	20
217	20
218	10
220	190
221	250
222	1071
223	210
224	20
225	50
226	10
227	230
228	50
229	80
230	20
231	10
233	10
235	160
236	190
237	30
239	50
240	10
241	200
242	40
243	80
244	20
245	20
246	60
247	20
249	30
250	10
253	40
254	10
255	190
256	40
257	140
258	60
259	10
263	20
264	921
265	180
266	20
267	70
268	20
269	120
270	30
271	90
272	100
273	20
281	70
282	20
283	70
284	20
285	20
286	60
287	10
295	170
296	40
297	50
298	10
299	50
300	10
309	60
310	20
311	130
312	30
313	30
314	10
323	40
324	10
325	30
326	10
336	10
337	20
339	8007
340	2262
341	611
342	90
343	10
354	811
355	250
356	70
357	10
