Mass Spectrum: Isobutanol, TBDMS derivative
Formula: C10 H24 O Si
Molecular weight: 188
Origin: NIST Mass Spectrometry Data Center
m/z	RELATIVE INTENSITY
15	20
27	170
28	30
29	300
30	10
31	50
39	280
40	40
41	761
42	90
43	701
44	80
45	661
46	50
47	460
48	20
49	10
50	10
51	10
53	60
54	10
55	150
56	90
57	480
58	801
59	1001
60	190
61	370
62	30
63	10
66	10
67	20
69	30
70	10
71	40
72	40
73	2412
75	9999
76	1111
77	561
78	10
81	10
83	30
84	10
85	210
86	30
87	60
88	601
89	791
90	90
91	30
95	10
97	20
98	10
99	140
100	70
101	130
102	20
103	10
111	10
113	30
114	10
115	320
116	40
117	100
118	10
129	60
131	9959
132	1712
133	601
134	40
145	30
157	10
173	220
174	30
175	10
187	20
188	190
189	30
190	10
