Mass Spectrum: cis-4,7,10,13,16,19-Docosahexaenoic acid, 4,4-dimethyloxazoline (dmox) derivative
Formula: C26 H39 N O
Molecular weight: 381
Origin: NIST Mass Spectrometry Data Center
m/z	RELATIVE INTENSITY
26	10
27	140
28	40
29	300
30	40
31	20
39	390
40	80
41	1872
42	430
43	260
44	70
45	30
46	10
50	20
51	100
52	70
53	601
54	300
55	1912
56	380
57	230
58	150
59	20
60	40
62	10
63	30
64	10
65	550
66	360
67	2042
68	370
69	350
70	230
71	80
72	741
73	160
74	10
75	10
77	1501
78	510
79	2452
80	601
81	581
82	490
83	160
84	1121
85	60
86	20
89	20
91	2582
92	410
93	901
94	260
95	360
96	170
97	200
98	2853
99	190
100	40
101	10
102	20
103	210
104	150
105	871
106	240
107	250
108	220
109	90
110	380
111	70
113	9999
114	1141
115	360
116	140
117	661
118	160
119	370
120	160
121	110
122	300
123	60
124	170
125	50
126	901
127	240
128	180
129	240
130	100
131	280
132	120
133	140
134	110
135	50
136	100
137	50
138	661
139	1001
140	140
141	70
142	40
143	100
144	50
145	130
146	60
147	50
148	60
149	30
150	400
152	4854
153	1802
154	210
155	50
156	20
157	50
158	30
159	60
160	40
161	30
162	60
163	30
164	230
165	150
166	450
167	140
168	30
169	20
170	10
171	30
172	30
173	30
174	20
175	10
176	80
177	30
178	360
179	140
180	120
181	30
182	10
183	10
184	10
185	20
186	10
187	10
188	20
189	10
190	100
191	40
192	821
193	280
194	70
195	10
197	10
198	10
199	20
200	10
201	10
202	20
203	10
204	100
205	50
206	320
207	70
208	30
209	10
213	10
214	10
215	10
216	30
217	10
218	250
219	70
220	70
221	20
222	10
228	10
230	30
231	20
232	370
233	460
234	130
235	20
242	10
244	40
245	20
246	240
247	50
248	30
256	10
258	200
259	50
260	40
261	10
262	10
270	20
271	10
272	310
273	110
274	40
275	10
282	10
284	20
285	10
286	140
287	30
288	30
289	10
296	10
298	90
299	30
300	30
301	40
302	30
303	10
310	10
312	270
313	70
314	40
315	10
324	10
326	50
327	30
328	10
338	30
339	10
340	20
352	80
353	30
366	110
367	30
380	130
381	80
382	20
