Mass Spectrum: 10-Undecenoic acid, TBDMS derivative
Formula: C17 H34 O2 Si
Molecular weight: 298
Origin: NIST Mass Spectrometry Data Center
m/z	RELATIVE INTENSITY
26	10
27	110
28	50
29	270
30	10
31	10
39	320
40	70
41	1161
42	300
43	230
44	20
45	270
46	20
47	290
48	20
49	10
50	10
51	20
52	10
53	150
54	130
55	1211
56	170
57	360
58	170
59	320
60	90
61	190
62	20
63	10
65	30
66	20
67	460
68	60
69	240
70	30
71	30
72	160
73	1772
74	340
75	6426
76	571
77	380
78	20
79	210
80	30
81	490
82	50
83	150
84	30
85	130
86	110
87	60
88	50
89	30
91	50
92	20
93	240
94	30
95	280
96	30
97	110
98	50
99	220
100	40
101	160
102	40
103	50
105	280
106	30
107	270
108	30
109	30
110	10
111	30
112	10
113	20
114	90
115	480
116	440
117	791
118	110
119	80
120	10
121	50
122	20
123	30
124	10
125	30
127	30
129	2232
130	310
131	1772
132	190
133	90
134	10
135	10
137	10
139	20
141	50
142	20
143	140
144	20
145	110
146	10
147	50
148	10
149	60
150	10
151	10
153	10
155	60
156	10
157	120
158	30
159	80
160	10
165	10
166	10
167	30
169	20
171	280
172	40
173	30
174	10
179	10
181	40
182	10
183	20
185	80
186	10
187	60
188	10
189	10
195	10
197	20
199	240
200	40
201	20
205	10
211	10
213	90
214	10
215	10
223	70
224	20
225	80
226	20
227	10
241	9999
242	3323
243	961
244	120
245	10
257	10
283	410
284	90
285	30
297	10
299	10
