Mass Spectrum: (Trimethylsilyl)methyl myristate
Formula: C18 H38 O2 Si
Molecular weight: 314
Origin: NIST Mass Spectrometry Data Center
m/z	RELATIVE INTENSITY
27	110
28	40
29	340
30	10
31	50
39	140
41	1271
42	330
43	1852
44	180
45	420
46	30
47	40
51	10
52	10
53	110
54	140
55	2953
56	510
57	1461
58	330
59	1461
60	140
61	681
62	40
63	20
65	20
66	10
67	310
68	140
69	1261
70	240
71	601
72	290
73	4634
74	490
75	991
76	70
77	60
78	10
79	100
80	30
81	350
82	90
83	550
84	270
85	400
86	110
87	390
88	200
89	661
90	60
91	60
92	10
93	80
94	20
95	480
96	70
97	530
98	350
99	100
100	30
101	180
102	40
103	1251
104	470
105	1001
106	100
107	120
108	10
109	270
110	40
111	310
112	120
113	50
114	20
115	120
116	530
117	190
118	30
119	10
121	80
122	10
123	150
124	20
125	70
126	20
127	20
129	540
130	701
131	2032
132	240
133	90
134	10
135	50
136	10
137	90
138	20
139	20
140	10
141	10
143	1501
144	220
146	4934
147	631
148	220
149	30
151	20
153	20
154	10
155	10
156	10
157	150
159	9999
160	1591
161	450
162	40
163	10
167	40
168	10
169	10
171	70
173	1001
174	150
175	50
181	10
185	80
186	10
187	50
188	30
189	10
193	30
194	10
195	10
199	80
200	10
201	160
202	40
203	10
209	10
211	791
212	120
213	70
214	10
215	280
216	50
217	10
227	60
228	10
229	100
230	20
231	10
241	40
242	10
243	50
244	10
255	40
256	10
257	90
258	20
259	10
269	40
270	10
271	180
272	40
273	10
283	190
284	50
285	90
286	20
297	70
299	6055
300	1471
301	400
302	60
313	20
314	20
315	10
