Mass Spectrum: Chrysin, 2TMS derivative
Formula: C21 H26 O4 Si2
Molecular weight: 398
Origin: NIST Mass Spectrometry Data Center
m/z	RELATIVE INTENSITY
15	10
27	10
29	10
39	10
43	110
44	50
45	540
46	30
47	50
50	10
51	30
52	10
53	20
55	30
57	20
58	30
59	40
60	10
61	20
62	20
63	30
65	10
66	10
67	20
68	10
69	60
70	10
71	10
73	1732
74	160
75	300
76	50
77	230
78	20
79	20
81	10
82	10
83	50
84	10
85	30
86	10
87	20
88	10
89	30
90	30
91	30
92	10
93	30
94	10
95	20
96	20
97	20
98	10
99	90
100	10
101	30
102	50
103	40
104	10
105	220
106	20
107	40
108	10
109	30
110	10
111	20
112	10
113	20
114	10
115	40
116	10
118	70
119	40
120	20
121	30
122	10
123	30
124	10
125	40
126	30
127	20
128	10
129	120
130	20
131	40
132	60
133	130
134	20
135	50
136	10
137	20
138	20
139	70
140	90
141	30
142	10
143	30
144	10
145	20
146	10
147	80
148	50
149	30
150	40
151	60
152	80
153	50
154	70
155	40
156	10
157	10
159	60
160	20
161	60
162	30
163	90
164	40
165	70
166	20
167	30
168	10
169	220
170	10
171	10
173	10
174	10
175	40
176	140
177	70
178	50
179	40
180	20
181	20
182	10
183	30
184	1131
187	10
188	10
189	30
190	10
191	30
192	10
193	20
194	10
195	30
196	10
197	10
202	10
203	10
204	10
205	30
206	10
207	30
208	10
209	20
210	10
211	20
212	10
213	10
217	10
219	20
220	10
221	20
222	10
223	30
224	10
225	10
227	10
229	10
231	10
233	10
234	10
235	30
236	20
237	30
238	10
239	20
240	10
247	10
248	10
249	30
250	10
251	40
252	20
253	50
254	10
255	10
261	10
263	40
264	20
265	60
266	20
267	20
268	10
269	10
275	10
277	20
278	20
279	40
280	20
281	250
282	160
283	40
284	10
291	20
292	10
293	170
294	110
295	90
296	20
297	160
298	40
299	10
305	10
306	10
307	30
308	60
309	70
310	70
311	1311
312	310
313	90
314	10
321	10
322	10
323	40
324	10
325	50
326	40
327	10
337	30
338	10
339	10
350	10
351	40
352	10
353	130
354	50
355	20
356	10
365	10
367	70
368	20
369	20
370	10
381	230
383	9999
384	3223
385	1221
386	270
387	50
388	10
397	100
398	50
399	20
