Mass Spectrum: 3-Ethylphenol, TBDMS derivative
Formula: C14 H24 O Si
Molecular weight: 236
Origin: NIST Mass Spectrometry Data Center
m/z	RELATIVE INTENSITY
15	10
27	80
28	10
29	180
30	10
31	20
38	10
39	160
40	30
41	370
42	60
43	150
44	20
45	190
46	10
47	80
50	30
51	110
52	30
53	80
54	10
55	70
56	40
57	370
58	90
59	611
60	60
61	100
62	20
63	80
64	30
65	100
66	20
67	60
68	90
69	50
70	10
71	20
73	851
74	110
75	831
76	100
77	601
78	160
79	330
80	30
81	50
82	340
83	90
84	10
85	60
86	10
87	10
88	10
89	200
90	140
91	490
92	50
93	50
94	10
95	180
96	30
97	40
98	10
99	40
100	10
101	20
102	60
103	350
104	120
105	561
106	80
107	60
108	10
109	70
110	10
111	20
115	90
116	20
117	70
118	10
119	150
120	30
121	150
122	30
123	160
124	20
125	10
128	10
129	10
130	10
131	50
132	10
133	90
134	30
135	711
136	100
137	120
138	20
143	10
145	80
146	20
147	130
148	70
149	871
150	200
151	811
152	120
153	30
159	30
161	350
162	60
163	1011
164	200
165	240
166	40
167	10
175	30
176	10
177	260
179	9999
180	3383
181	891
182	100
183	10
191	10
205	10
219	10
220	10
221	150
222	30
223	10
236	2012
237	410
238	110
239	10
