Mass Spectrum: 3-Indoleacetic acid, TMS derivative
Formula: C13 H17 N O2 Si
Molecular weight: 247
Origin: NIST Mass Spectrometry Data Center
m/z	RELATIVE INTENSITY
15	10
27	10
28	20
29	20
31	10
38	10
39	40
42	10
43	120
44	70
45	540
46	40
47	210
48	10
49	10
50	80
51	190
52	80
53	30
54	10
55	20
56	10
57	30
58	50
59	90
60	30
61	110
62	30
63	100
64	30
65	40
70	10
71	10
72	50
73	3303
74	370
75	1141
76	270
77	831
78	100
79	10
86	10
87	20
88	10
89	40
90	20
91	20
92	10
93	10
98	10
99	10
100	20
101	190
102	631
103	691
104	80
105	10
114	10
115	40
116	190
117	60
118	10
119	10
127	30
128	500
129	951
130	9999
131	971
132	60
133	10
134	10
142	10
143	40
144	120
145	50
146	20
147	10
148	10
156	30
157	110
158	40
159	10
160	50
161	10
162	10
170	20
171	10
172	40
173	10
174	20
175	10
176	60
177	10
184	20
186	150
187	50
188	440
189	80
190	20
200	20
201	10
202	190
203	390
204	290
205	60
206	20
217	20
218	20
231	10
232	561
233	110
234	30
247	1692
248	360
249	90
250	10
