Mass Spectrum: 2-(3,4-Dimethoxyphenyl)-2-methoxy-N,N-dimethylethanamine
Formula: C13 H21 N O3
Molecular weight: 239
Origin: NIST Mass Spectrometry Data Center
m/z	RELATIVE INTENSITY
15	30
27	10
28	20
29	40
30	110
31	10
38	10
39	50
40	10
41	50
42	290
43	80
44	20
45	30
50	30
51	110
52	60
53	40
54	10
55	30
56	50
58	9999
59	390
60	10
62	10
63	60
64	30
65	120
66	30
67	30
68	10
69	20
70	10
71	10
72	30
74	10
75	10
76	30
77	230
78	110
79	120
80	40
81	20
82	10
86	10
89	40
90	30
91	140
92	40
93	30
94	40
95	130
96	10
102	10
103	50
104	20
105	60
106	40
107	70
108	30
109	20
116	10
117	10
118	20
119	40
120	50
121	80
122	40
123	20
130	10
131	10
132	20
133	20
134	20
135	70
136	50
137	70
138	30
146	10
147	10
148	30
149	80
150	40
151	220
152	30
160	10
161	10
162	10
163	20
164	90
165	270
166	380
167	50
174	10
175	10
176	10
177	20
178	20
179	20
181	821
182	90
183	10
190	10
192	60
193	20
194	10
204	10
206	10
207	20
208	60
209	10
222	10
239	50
240	10
