Mass Spectrum: Acetoin, TMS derivative
Formula: C7 H16 O2 Si
Molecular weight: 160
Origin: NIST Mass Spectrometry Data Center
m/z	RELATIVE INTENSITY
14	10
15	70
26	10
27	70
28	40
29	90
30	10
31	40
38	10
39	50
40	10
41	60
42	150
43	1511
44	270
45	1191
46	80
47	310
48	10
49	10
50	10
51	40
52	10
53	80
54	20
55	170
56	50
57	140
58	410
59	781
60	120
61	390
62	30
63	20
66	10
67	10
69	20
70	60
71	130
72	290
73	9999
74	1081
75	3563
76	250
77	300
78	20
79	10
83	10
85	40
86	10
87	210
88	20
89	20
98	10
99	70
100	20
101	380
102	90
103	30
111	20
112	10
113	20
114	10
115	310
117	7597
118	891
119	330
120	20
127	10
129	350
130	1051
131	120
132	40
133	10
143	80
145	1892
146	220
147	80
148	10
159	10
