Mass Spectrum: Methyl (3,4-dimethoxyphenyl)(methoxy)acetate
Formula: C12 H16 O5
Molecular weight: 240
Origin: NIST Mass Spectrometry Data Center
m/z	RELATIVE INTENSITY
15	140
26	10
27	10
28	10
29	60
30	10
31	20
37	10
38	40
39	100
40	10
41	110
42	10
43	20
45	30
46	10
47	10
49	10
50	120
51	270
52	130
53	80
54	10
55	30
59	160
61	10
62	60
63	240
64	160
65	260
66	70
67	110
68	10
69	60
74	40
75	70
76	100
77	561
78	130
79	330
80	120
81	10
82	10
83	10
85	10
86	10
87	10
88	10
89	70
91	190
92	230
93	60
94	40
95	500
96	20
103	20
104	30
105	150
106	50
107	180
109	50
110	30
111	10
117	10
118	10
119	160
120	170
121	130
122	190
123	110
132	10
133	20
134	20
135	380
136	210
137	430
138	260
147	20
148	20
149	100
150	60
151	1021
152	100
153	20
163	120
165	1371
166	3163
178	70
179	60
181	9999
182	1361
183	140
184	10
193	10
209	80
210	10
240	661
241	90
242	10
