Mass Spectrum: 3-Hexen-1-ol, (E)-, TBDMS derivative
Formula: C12 H26 O Si
Molecular weight: 214
Origin: NIST Mass Spectrometry Data Center
m/z	RELATIVE INTENSITY
15	10
26	10
27	200
28	70
29	440
30	10
31	40
39	500
40	90
41	1501
42	160
43	390
44	60
45	591
46	40
47	480
48	20
49	10
50	20
51	50
52	30
53	260
54	100
55	1071
56	180
57	711
58	751
59	1431
60	200
61	350
62	30
63	20
64	20
65	70
66	30
67	350
68	50
69	100
70	30
71	110
73	3763
74	460
75	8277
76	741
77	420
78	20
79	100
80	20
81	240
82	40
83	260
84	40
85	561
86	70
87	200
88	440
89	3853
90	360
91	160
92	10
93	10
95	50
96	20
97	180
98	60
99	1732
100	300
101	4184
102	480
103	210
104	10
109	30
110	10
111	240
112	40
113	350
114	60
115	1541
116	170
117	70
123	70
124	10
125	30
127	1571
128	220
129	1972
130	230
131	90
132	10
139	60
140	10
141	90
142	10
143	120
144	10
145	90
146	10
147	10
155	20
157	9999
158	1762
159	571
160	40
169	10
171	10
199	210
200	40
201	10
213	10
