Mass Spectrum: (17.beta.)-2,3-Dimethoxy-17-[(trimethylsilyl)oxy]estra-1(10),2,4-triene
Formula: C23 H36 O3 Si
Molecular weight: 388
Origin: NIST Mass Spectrometry Data Center
m/z	RELATIVE INTENSITY
15	40
27	80
28	40
29	250
30	20
31	70
39	170
40	40
41	621
42	50
43	380
44	100
45	530
46	40
47	110
50	20
51	80
52	50
53	280
54	50
55	781
56	60
57	370
58	80
59	320
60	50
61	120
62	20
63	70
64	50
65	280
66	70
67	561
68	90
69	200
70	40
71	100
72	100
73	4264
74	410
75	1371
76	170
77	751
78	250
79	721
80	110
81	621
82	80
83	130
84	60
85	120
86	20
87	60
88	20
89	200
90	120
91	1381
92	170
93	711
94	140
95	490
96	50
97	170
98	20
99	90
100	20
101	350
102	210
103	681
104	240
105	581
106	140
107	1011
108	140
109	240
110	40
111	100
112	30
113	90
114	140
115	2102
116	500
117	761
118	190
119	430
120	150
121	761
122	130
123	110
124	30
125	30
126	50
127	490
128	1221
129	3423
130	621
131	991
132	370
133	530
134	130
135	210
136	90
137	691
138	120
139	140
140	60
141	711
142	280
143	340
144	410
145	801
146	1031
147	1111
148	160
149	210
151	4034
152	731
153	410
154	190
155	300
156	130
157	530
158	561
159	1041
160	340
161	611
162	220
163	240
164	831
165	1021
166	230
167	230
168	110
169	280
170	120
171	1061
172	611
173	1011
174	440
175	701
176	360
177	2172
178	450
179	230
180	70
181	160
182	100
183	250
184	160
185	380
186	200
187	550
188	500
189	1401
190	1772
191	550
192	100
193	60
194	50
195	160
196	90
197	260
198	190
199	280
200	140
201	1381
202	871
203	2082
204	1531
205	290
206	50
207	80
208	30
209	180
210	100
211	290
212	140
213	300
214	210
215	450
216	1211
217	410
218	80
219	150
220	30
221	40
222	20
223	110
224	100
225	220
226	170
227	340
228	230
229	701
230	400
231	120
232	50
233	30
234	10
235	20
236	10
237	40
238	40
239	130
240	120
241	500
242	220
243	390
244	220
245	60
246	20
247	10
249	10
250	20
251	60
252	40
253	50
254	50
255	571
256	490
257	3213
258	801
259	280
260	60
261	10
262	10
263	20
264	20
265	40
266	30
267	981
268	230
269	260
270	220
271	100
272	240
273	70
274	10
275	10
276	10
277	10
281	50
282	30
283	380
284	120
285	80
286	20
287	20
288	80
289	30
290	20
291	20
295	10
296	20
297	430
298	380
299	100
300	110
301	200
302	50
303	10
309	10
312	10
313	20
314	450
316	8448
317	1882
318	270
319	30
329	10
330	10
331	10
343	20
344	10
345	10
346	10
357	20
358	60
359	20
360	10
370	10
371	30
372	40
373	290
374	80
375	20
378	10
382	10
384	10
386	130
388	9999
389	3063
390	831
391	140
392	20
