Mass Spectrum: 2-Decanol, TBDMS derivative
Formula: C16 H36 O Si
Molecular weight: 272
Origin: NIST Mass Spectrometry Data Center
m/z	RELATIVE INTENSITY
27	90
28	30
29	290
30	10
31	10
39	120
40	30
41	701
42	110
43	591
44	40
45	260
46	20
47	260
48	10
49	10
51	10
53	50
54	30
55	440
56	100
57	410
58	180
59	470
60	100
61	360
62	20
63	10
65	10
67	60
68	20
69	170
70	40
71	60
72	70
73	2202
74	350
75	9999
76	941
77	480
78	10
79	20
81	50
82	20
83	140
84	20
85	150
86	60
87	160
88	20
89	70
90	10
91	10
93	10
95	40
96	20
97	130
98	20
99	230
100	60
101	370
102	130
103	510
104	50
105	20
109	20
111	50
112	10
113	150
114	30
115	550
116	80
117	60
125	20
127	40
128	20
129	190
130	20
131	10
133	20
137	10
139	20
140	10
141	10
143	140
144	20
145	10
153	10
155	10
157	140
159	1511
160	210
161	60
162	10
171	20
185	10
197	10
199	40
200	10
201	20
215	6966
216	1421
217	390
218	40
257	200
258	40
259	10
271	20
272	10
