Mass Spectrum: 3-Phenoxybenzyl alcohol, TMS derivative
Formula: C16 H20 O2 Si
Molecular weight: 272
Origin: NIST Mass Spectrometry Data Center
m/z	RELATIVE INTENSITY
15	30
26	10
27	90
28	30
29	70
30	10
31	50
37	10
38	80
39	460
40	50
41	20
42	40
43	370
44	140
45	991
46	70
47	230
48	10
50	320
51	1301
52	230
53	120
54	20
55	180
56	20
57	70
58	190
59	1181
60	130
61	150
62	120
63	571
64	260
65	420
66	80
67	40
68	20
69	30
70	20
71	30
73	2442
74	400
75	951
76	310
77	2552
78	771
79	110
80	10
81	30
82	10
83	50
84	20
85	50
86	20
87	40
89	1531
90	671
91	420
92	80
93	80
94	60
95	70
96	10
97	20
98	20
99	30
100	10
101	40
102	90
103	150
104	60
105	180
106	50
107	140
108	20
109	30
110	10
111	40
112	10
113	70
114	30
115	1071
116	160
117	30
118	20
119	70
120	30
121	120
122	30
123	30
124	10
125	20
126	80
127	661
128	1071
129	1001
130	90
131	80
132	10
133	70
134	30
135	190
136	50
137	150
138	30
139	340
140	120
141	450
142	130
143	30
144	70
145	40
146	10
147	80
148	50
149	470
150	250
151	801
152	1121
153	1692
154	891
155	771
156	100
157	60
158	10
159	10
161	80
162	40
163	330
164	881
165	1491
166	280
167	130
168	1531
169	821
170	160
171	20
176	10
177	30
179	1451
180	400
181	3853
182	1892
183	9999
184	2342
185	210
186	10
193	10
194	10
195	70
196	80
197	741
198	500
199	80
200	10
208	10
209	20
211	2462
212	490
213	200
214	30
215	10
221	10
222	10
223	110
224	30
225	100
227	9258
228	2472
229	681
230	80
231	10
237	40
238	20
239	210
240	50
241	320
242	70
243	20
253	10
255	100
257	7927
258	2052
259	550
260	70
261	10
269	10
271	751
272	9278
273	2893
274	781
275	110
276	10
