Mass Spectrum: 5-Amino-1-pentanol, TBDMS derivative
Formula: C11 H27 N O Si
Molecular weight: 217
Origin: NIST Mass Spectrometry Data Center
m/z	RELATIVE INTENSITY
15	20
18	40
26	10
27	150
28	290
29	420
30	2712
31	120
37	10
38	10
39	290
40	50
41	1922
42	370
43	741
44	230
45	1021
46	80
47	741
48	40
49	20
50	10
51	10
52	10
53	110
54	70
55	360
56	2252
57	671
58	520
59	1651
60	330
61	701
62	70
63	30
65	40
66	10
67	470
68	90
69	2182
70	180
71	120
72	310
73	2722
74	4684
75	7917
76	901
77	300
78	20
79	20
81	10
82	130
83	70
84	3543
85	1181
86	2502
87	1752
88	500
89	731
90	150
91	40
92	200
93	20
94	10
95	10
96	10
97	120
98	60
99	400
100	190
101	641
102	160
104	4534
105	420
106	170
107	10
109	10
110	10
111	30
112	20
113	500
114	160
115	1501
116	420
117	130
118	130
119	10
124	10
125	10
126	30
127	60
128	30
129	50
130	70
131	450
132	80
133	20
140	40
142	3513
143	941
144	350
145	60
146	70
147	10
156	30
157	10
158	60
160	9999
161	1401
162	430
163	40
184	40
185	30
186	10
202	290
203	50
204	10
217	20
