Mass Spectrum: Heptanoic acid, TMS derivative
Formula: C10 H22 O2 Si
Molecular weight: 202
Origin: NIST Mass Spectrometry Data Center
m/z	RELATIVE INTENSITY
15	20
26	20
27	310
28	100
29	550
30	20
31	20
39	310
40	60
41	871
42	220
43	911
44	150
45	1031
46	80
47	581
48	30
49	20
50	10
51	30
52	10
53	130
54	50
55	961
56	190
57	170
58	290
59	360
60	150
61	701
62	50
63	30
65	10
66	10
67	120
68	60
69	330
70	60
71	60
72	510
73	8458
74	1031
75	9388
76	721
77	410
78	20
79	20
81	30
82	10
83	150
84	180
85	110
86	150
87	90
88	110
89	120
90	40
91	40
93	60
94	20
95	621
96	50
97	50
98	10
99	180
100	10
101	260
103	30
105	330
106	30
107	10
111	70
112	100
113	100
114	10
115	90
116	631
117	6346
118	651
119	300
120	20
125	10
127	10
129	2082
130	270
131	2312
132	2302
133	340
134	90
135	10
141	10
143	651
144	90
145	941
146	50
147	30
157	90
158	20
159	500
160	70
161	20
169	20
171	10
173	80
174	10
185	10
187	9999
188	1621
189	510
190	40
201	20
202	100
203	30
204	10
