Mass Spectrum: cis-10-Heptadecenoic acid, methyl ester
Formula: C18 H34 O2
Molecular weight: 282
Origin: NIST Mass Spectrometry Data Center
m/z	RELATIVE INTENSITY
15	100
26	20
27	470
28	140
29	1101
30	30
31	50
33	10
39	921
40	220
41	5145
42	1151
43	3863
44	150
45	210
46	10
50	20
51	70
52	70
53	901
54	2122
55	9999
56	2142
57	1732
58	110
59	2342
60	70
61	30
62	10
63	10
64	10
65	300
66	220
67	3363
68	1872
69	6276
70	1521
71	821
72	100
73	561
74	5615
75	741
76	50
77	290
78	100
79	931
80	460
81	3073
82	2072
83	5045
84	3883
85	881
87	4294
88	400
89	30
90	10
91	280
92	80
93	510
94	530
95	2662
96	4414
97	4784
98	3573
99	500
100	120
101	801
102	90
103	20
104	10
105	160
106	70
107	410
108	390
109	1481
110	2402
111	2262
112	881
113	390
114	500
115	821
116	130
117	30
118	30
119	400
120	150
121	530
122	240
123	1682
124	1301
125	1251
126	270
127	410
128	550
129	520
130	140
131	20
132	20
133	350
134	330
135	510
136	180
137	1091
138	981
139	691
140	110
141	771
142	160
143	450
144	60
145	20
146	10
147	260
148	270
149	330
150	170
151	681
152	1001
153	400
154	80
155	330
156	60
157	140
158	30
159	10
161	200
162	80
163	140
164	70
165	390
166	1391
167	360
168	60
169	200
170	30
171	70
172	30
173	10
175	130
176	40
177	60
178	30
179	230
180	190
181	90
182	20
183	50
184	10
185	110
186	60
187	10
189	60
190	20
191	20
192	20
193	180
194	120
195	70
196	20
197	30
198	10
199	110
200	60
201	10
203	30
204	10
206	430
207	350
208	1431
209	310
210	30
211	10
213	30
214	30
217	10
219	10
221	210
222	140
223	20
225	10
227	20
231	10
232	140
233	110
234	20
235	40
236	10
239	90
240	10
241	10
250	1842
251	1141
252	190
253	30
254	10
264	30
282	440
283	110
284	10
