Mass Spectrum: 9,12-Octadecadiynoic acid, methyl ester
Formula: C19 H30 O2
Molecular weight: 290
Origin: NIST Mass Spectrometry Data Center
m/z	RELATIVE INTENSITY
15	150
26	30
27	540
28	90
29	1201
30	50
31	30
33	20
37	10
39	1031
40	180
41	3453
42	450
43	1541
44	90
45	220
50	130
51	550
52	410
53	771
54	230
55	3833
56	320
57	380
58	30
59	1551
60	60
61	30
62	50
63	470
64	210
65	1271
66	831
67	2813
68	250
69	1071
70	80
71	210
73	190
74	1201
75	180
76	150
77	2232
78	2002
79	3904
80	1872
81	2122
82	1141
83	641
84	90
85	230
86	10
87	741
88	110
89	420
90	70
91	9999
92	4794
93	3873
94	1411
95	1311
96	190
97	210
98	70
99	140
101	120
102	150
103	991
104	691
105	7497
106	5635
107	1631
108	400
109	430
110	70
111	110
112	10
113	40
115	1001
116	380
117	2032
118	490
119	4554
120	1131
121	671
122	310
123	150
124	30
125	50
127	150
128	280
129	510
130	260
131	1451
132	340
133	2833
134	540
135	380
136	711
137	100
138	30
139	30
141	140
142	90
143	260
144	140
145	821
146	250
147	951
148	1071
149	360
150	60
151	70
152	40
154	50
155	60
156	20
157	140
158	50
159	530
160	250
161	450
162	70
163	40
165	30
166	20
167	30
168	40
169	100
170	30
171	60
172	20
173	220
174	70
175	190
176	40
177	30
179	30
180	30
181	30
183	60
184	30
185	40
186	20
187	210
188	30
189	80
190	10
191	30
192	20
193	40
197	30
199	10
200	10
201	110
202	30
203	30
205	40
206	10
211	20
213	20
214	10
215	30
217	30
218	10
219	30
229	10
233	20
234	10
235	10
247	20
259	80
260	30
261	20
275	10
290	10
