Mass Spectrum: Borneol, TBDMS derivative
Formula: C16 H32 O Si
Molecular weight: 268
Origin: NIST Mass Spectrometry Data Center
m/z	RELATIVE INTENSITY
27	90
28	20
29	260
31	30
32	10
35	10
39	180
40	40
41	1081
42	60
43	641
44	40
45	360
46	30
47	260
48	20
50	10
51	20
52	20
53	240
54	40
55	631
56	80
57	440
58	150
59	841
60	90
61	150
62	10
63	20
65	90
66	30
67	591
68	80
69	440
70	50
71	70
72	20
73	2192
74	300
75	9999
76	711
77	621
78	70
79	390
80	70
81	801
82	80
83	100
84	50
85	110
86	20
87	40
88	10
89	80
90	10
91	340
92	100
93	1081
94	160
95	1752
96	140
97	50
98	30
99	120
100	40
101	1511
102	190
103	260
104	30
105	120
106	30
107	350
108	290
109	1241
110	130
111	60
112	20
113	190
114	30
115	130
116	20
117	841
118	90
119	90
120	30
121	290
122	30
123	30
125	50
126	10
127	230
128	50
129	90
130	10
131	20
133	10
134	20
135	1261
136	150
137	250
138	30
139	20
140	10
141	180
142	20
143	50
144	10
145	70
146	10
147	10
149	10
151	30
152	10
153	30
155	180
156	20
157	10
159	20
165	30
167	10
168	10
169	40
171	10
181	10
182	10
183	40
184	20
185	20
191	10
193	120
194	30
195	20
196	10
197	130
198	20
199	10
209	20
211	6146
212	1121
213	350
214	40
227	10
238	10
239	10
253	130
254	30
255	10
268	20
269	10
