Mass Spectrum: cis-13-Eicosenoic acid, methyl ester
Formula: C21 H40 O2
Molecular weight: 324
Origin: NIST Mass Spectrometry Data Center
m/z	RELATIVE INTENSITY
15	50
26	20
27	320
28	110
29	861
30	20
31	40
33	10
39	681
40	110
41	4634
42	1081
43	4194
44	150
45	180
50	10
51	50
52	50
53	701
54	1862
55	9999
56	2272
57	2302
58	140
59	1902
60	60
61	20
63	10
65	230
66	180
67	2983
68	1601
69	6926
70	1702
71	1011
72	90
73	450
74	5365
75	761
76	50
77	210
78	70
79	761
80	380
81	2762
82	1952
83	5565
84	3443
85	921
87	3924
88	360
89	30
90	10
91	200
92	60
93	470
94	450
95	2452
96	3883
97	5135
98	3223
99	470
100	100
101	711
102	80
103	20
104	10
105	110
106	50
107	440
108	380
109	1581
110	2162
111	2522
112	881
113	420
114	400
115	711
116	130
117	20
118	20
119	300
120	120
121	631
122	270
123	1591
124	1271
125	1421
126	320
127	370
128	520
129	611
130	190
131	30
132	10
133	310
134	330
135	621
136	210
137	991
138	1021
139	891
140	180
141	791
142	160
143	671
144	90
145	20
146	10
147	260
148	300
149	520
150	160
151	701
152	961
153	591
154	110
155	150
156	40
157	210
158	50
159	10
161	190
162	100
163	280
164	100
165	460
166	510
167	360
168	70
169	110
170	20
171	160
172	40
173	10
175	170
176	60
177	170
178	90
179	310
180	350
181	240
182	50
183	110
184	20
185	160
186	40
187	10
189	110
190	40
191	100
192	110
193	230
194	520
195	200
196	60
197	190
198	30
199	120
200	30
201	10
203	60
204	20
205	60
206	50
207	250
208	1141
209	280
210	70
211	140
212	30
213	70
214	30
215	10
217	40
218	10
219	40
220	30
221	330
222	300
223	100
224	30
225	40
226	10
227	100
228	60
229	20
231	20
232	10
233	10
234	20
235	390
236	260
237	100
238	30
239	30
240	10
241	110
242	60
243	10
245	20
246	10
248	400
249	561
250	1381
251	340
252	40
253	20
254	10
255	30
256	40
257	10
261	10
263	370
264	210
265	40
267	20
269	20
273	10
274	200
275	70
276	10
277	50
278	10
281	120
282	20
283	10
292	4134
293	2622
294	490
295	80
296	10
306	40
307	10
322	10
324	601
325	170
326	30
