Mass Spectrum: cis-Vaccenic acid, picolinyl ester
Formula: C24 H39 N O2
Molecular weight: 373
Origin: NIST Mass Spectrometry Data Center
m/z	RELATIVE INTENSITY
26	20
27	260
28	90
29	691
30	20
31	10
37	10
38	50
39	991
40	130
41	3283
42	741
43	2072
44	80
45	20
49	10
50	40
51	150
52	120
53	530
54	1001
55	4714
56	841
57	681
58	40
59	20
60	20
62	20
63	140
64	240
65	1732
66	190
67	1281
68	420
69	1892
70	350
71	190
72	10
73	50
76	10
77	120
78	170
79	430
80	410
81	791
82	220
83	821
84	150
85	90
86	10
87	30
89	10
90	10
91	550
92	9999
93	4124
94	490
95	500
96	120
97	440
98	90
99	30
100	10
101	20
103	10
104	10
105	50
106	200
107	160
108	7036
109	2843
110	841
111	210
112	30
113	30
114	10
115	20
117	40
118	70
119	70
120	80
121	80
122	40
123	100
124	30
125	40
126	10
127	20
128	10
129	10
130	30
131	30
132	60
133	200
134	100
135	60
136	30
137	40
138	20
139	30
141	10
143	10
144	30
145	20
146	60
147	120
148	220
149	60
150	10
151	3053
152	370
153	40
154	10
155	10
158	10
159	10
160	40
161	50
162	70
164	4504
165	591
166	60
167	10
169	10
172	10
173	10
174	30
175	30
176	50
177	50
178	731
179	150
180	20
181	10
182	10
186	10
188	30
189	20
190	70
191	50
192	420
193	130
194	20
200	10
201	10
202	50
203	30
204	180
205	60
206	1131
207	200
208	20
215	10
216	40
217	50
218	130
219	40
220	671
221	120
222	20
228	10
229	10
230	40
231	40
232	150
233	50
234	601
235	120
236	20
242	10
244	30
245	20
246	110
247	60
248	651
249	130
250	20
256	10
258	30
259	10
260	130
261	70
262	240
263	60
264	10
265	30
266	10
270	10
271	10
272	30
274	320
275	180
276	100
277	30
281	10
284	90
285	20
286	10
288	681
289	240
290	60
291	10
298	80
299	20
300	10
302	2302
303	581
304	90
305	10
312	10
314	20
316	1822
317	470
318	80
319	10
326	10
328	10
330	530
331	130
332	50
333	10
344	460
345	170
346	30
354	10
358	160
359	50
360	10
372	500
373	1651
374	390
375	60
