Mass Spectrum: 2,3-Dichlorophenol, TBDMS derivative
Formula: C12 H18 Cl2 O Si
Molecular weight: 276
Origin: NIST Mass Spectrometry Data Center
m/z	RELATIVE INTENSITY
15	10
26	10
27	100
28	30
29	380
30	10
31	40
36	10
37	10
38	20
39	290
40	40
41	671
42	110
43	370
44	50
45	320
46	20
47	50
50	50
51	110
52	30
53	120
54	20
55	130
56	60
57	581
58	190
59	360
60	40
61	50
62	100
63	1321
64	110
65	921
66	70
67	270
68	20
69	50
70	10
71	20
72	60
73	901
74	210
75	300
76	60
77	180
78	120
79	360
80	40
81	120
82	10
83	30
84	50
85	70
86	20
87	30
88	10
89	220
90	90
91	130
93	9999
94	831
95	3733
96	260
97	190
98	90
99	140
100	50
101	40
102	30
103	110
104	30
105	200
106	40
107	50
108	10
109	150
111	110
112	20
113	290
114	30
115	250
116	30
117	80
118	10
119	60
120	20
121	60
122	10
123	60
124	20
125	430
126	170
127	160
128	70
129	40
130	10
131	20
132	10
133	90
134	10
135	70
136	10
137	30
138	10
139	40
140	20
141	70
142	10
143	30
145	20
146	10
147	230
148	250
149	150
150	30
151	10
153	20
154	10
155	210
156	30
157	80
158	10
159	30
160	10
161	100
162	20
163	60
164	20
165	20
167	20
168	40
169	220
170	50
171	80
172	10
173	10
175	10
177	20
179	10
181	60
182	40
183	691
184	210
185	310
186	70
187	40
188	10
189	200
190	20
191	130
192	10
193	30
195	20
197	10
203	40
204	20
205	120
206	20
207	70
208	10
209	20
211	10
217	20
219	9228
220	1321
221	6386
222	851
223	1211
224	150
225	40
245	10
261	70
262	10
263	50
264	10
265	10
276	40
277	10
278	20
