Mass Spectrum: 5-Amino-1-pentanol, 2TBDMS derivative
Formula: C17 H41 N O Si2
Molecular weight: 331
Origin: NIST Mass Spectrometry Data Center
m/z	RELATIVE INTENSITY
27	20
28	10
29	110
30	30
31	20
39	50
40	10
41	330
42	40
43	120
44	60
45	220
46	30
47	100
48	10
53	20
54	10
55	80
56	170
57	360
58	250
59	1401
60	160
61	130
62	10
66	10
67	50
68	10
69	150
70	50
71	50
72	140
73	3763
74	561
75	951
76	80
77	30
80	20
82	70
84	3223
85	410
86	330
87	290
88	410
89	120
90	30
91	10
93	10
95	10
96	10
97	50
98	110
99	200
100	200
101	140
102	70
103	60
104	20
105	20
108	1221
111	20
112	40
113	130
114	190
115	340
116	120
117	210
118	80
119	170
120	30
121	10
124	10
125	10
126	40
127	20
128	90
129	40
130	100
131	250
132	330
133	1151
134	200
135	90
136	10
140	60
141	20
142	550
143	110
144	1792
145	250
146	230
147	9999
148	1852
149	901
150	90
151	20
156	60
157	30
158	380
159	70
160	80
161	20
162	30
170	30
171	20
172	10
173	40
174	30
175	20
176	10
184	30
185	10
186	40
187	20
188	40
189	230
190	40
191	20
198	50
199	10
200	70
201	10
202	30
203	10
214	10
216	50
218	911
219	190
220	80
221	10
231	10
232	20
258	50
259	10
260	30
261	10
272	10
274	5285
275	1481
276	581
277	90
278	20
316	400
317	110
318	40
319	10
330	30
331	40
332	20
