Mass Spectrum: 1,3-Propanediol, 2TBDMS derivative
Formula: C15 H36 O2 Si2
Molecular weight: 304
Origin: NIST Mass Spectrometry Data Center
m/z	RELATIVE INTENSITY
27	30
28	10
29	170
30	10
31	20
39	90
40	30
41	611
42	70
43	160
44	40
45	340
46	20
47	150
48	10
51	10
52	20
53	20
54	10
55	90
56	230
57	691
58	360
59	1151
60	120
61	170
62	10
63	10
66	731
69	20
70	10
71	60
73	8077
74	801
75	961
76	60
77	40
80	30
81	611
83	30
84	10
85	200
86	40
87	140
88	90
89	360
90	30
91	20
94	20
95	130
97	20
99	250
100	60
101	430
102	80
103	150
104	30
105	110
106	10
107	10
113	30
115	1211
116	170
117	1121
118	140
119	440
120	50
121	30
129	40
131	480
132	100
133	2702
134	380
135	220
136	20
137	10
143	20
145	40
147	9999
148	1862
149	1221
150	130
151	40
157	90
158	10
159	100
160	10
161	10
163	510
164	80
165	40
171	10
172	30
173	100
174	20
175	30
176	10
177	20
189	3633
190	651
191	300
192	40
193	10
205	60
206	10
207	10
219	751
220	150
221	70
222	10
231	90
232	20
233	10
247	2442
248	550
249	230
250	30
251	10
289	70
290	20
291	10
