Mass Spectrum: Flufenamic Acid, TBDMS derivative
Formula: C20 H24 F3 N O2 Si
Molecular weight: 395
Origin: NIST Mass Spectrometry Data Center
m/z	RELATIVE INTENSITY
27	50
28	10
29	220
31	10
38	10
39	160
40	20
41	540
42	30
43	100
44	10
45	290
46	20
47	240
48	10
49	30
50	70
51	80
52	30
53	30
54	10
55	60
56	100
57	771
58	110
59	270
60	60
61	90
62	30
63	180
64	200
65	90
66	10
67	10
69	40
70	10
71	10
73	1041
74	150
75	1962
76	300
77	2312
78	180
79	110
80	10
81	80
82	10
83	40
85	40
86	10
87	20
88	40
89	240
90	90
91	160
92	500
93	50
94	20
95	170
96	30
97	10
98	10
99	40
100	20
101	30
102	80
103	80
104	30
105	40
106	20
107	50
108	80
109	10
111	20
112	10
113	70
114	230
115	110
116	40
117	20
118	40
119	140
120	40
121	220
122	711
125	140
126	90
127	90
128	40
129	10
130	60
131	20
132	40
133	60
134	100
135	30
136	20
137	30
138	70
139	500
140	410
141	90
142	10
143	60
144	20
145	420
146	50
147	10
148	10
149	20
150	40
151	200
152	100
153	20
154	20
155	10
156	10
157	50
158	40
159	70
161	20
162	20
163	150
164	190
165	150
166	1241
167	3003
168	440
169	240
170	120
171	60
172	20
173	10
174	10
175	20
176	90
177	120
178	530
179	160
180	50
181	20
182	30
183	40
184	100
185	310
186	60
187	60
188	230
189	80
190	30
191	20
192	30
193	50
194	380
195	681
196	631
197	300
198	1171
199	170
200	20
201	10
202	10
203	10
204	10
205	10
206	40
207	50
208	30
209	20
210	20
211	10
212	20
213	70
214	300
215	520
216	2662
217	561
218	60
219	20
220	20
222	2883
223	440
224	110
225	20
226	40
227	10
228	20
229	10
230	10
231	10
232	30
233	40
234	320
235	951
236	190
237	20
238	20
239	10
240	40
241	40
242	260
243	320
244	5045
245	821
246	120
247	50
248	40
249	10
251	10
252	10
253	10
254	20
256	10
257	10
258	30
259	10
260	50
261	60
262	100
263	1972
264	4594
265	701
266	60
267	10
268	20
269	10
270	10
272	1331
273	300
274	130
275	20
276	20
277	10
278	150
279	30
280	10
281	10
288	10
290	40
291	10
292	90
293	30
294	140
295	30
296	10
298	80
299	20
300	10
302	10
304	10
305	10
306	10
308	20
309	10
310	10
314	30
315	10
316	10
318	80
319	30
320	120
321	30
322	50
323	20
324	10
334	10
335	10
336	70
338	9999
339	2312
340	621
341	80
342	10
350	10
376	520
377	140
378	40
379	10
380	340
381	90
382	30
395	3753
396	1031
397	270
398	40
