Mass Spectrum: 5-Amino-1-pentanol, N-TBDMS derivative
Formula: C11 H27 N O Si
Molecular weight: 217
Origin: NIST Mass Spectrometry Data Center
m/z	RELATIVE INTENSITY
15	10
19	10
26	10
27	140
28	100
29	430
30	320
31	1021
32	20
33	10
38	10
39	240
41	1491
42	230
43	681
44	470
45	641
46	140
47	170
48	10
50	10
51	10
52	10
53	90
54	50
55	270
56	661
57	701
58	831
59	2823
60	410
61	350
62	30
63	10
65	20
66	10
67	340
68	60
69	2502
70	320
71	140
72	741
73	4794
74	3643
75	9999
76	1001
77	390
78	20
79	10
80	10
81	20
82	110
83	100
84	3573
85	891
86	4754
87	831
88	1551
89	380
90	160
91	20
92	230
93	20
94	10
95	20
96	40
97	100
98	230
99	310
100	631
101	450
102	180
104	7006
105	641
106	280
107	10
109	10
110	40
111	20
112	130
113	540
114	1311
115	651
116	300
117	80
118	130
119	10
124	10
125	10
126	60
127	40
128	130
129	50
130	140
131	30
132	10
140	130
142	5135
143	1051
144	1872
145	250
146	130
147	20
156	10
157	10
158	50
160	7297
161	941
162	300
163	20
184	50
185	20
186	20
200	10
202	190
203	30
204	10
216	30
218	10
