Mass Spectrum: Naringenin, 3TMS derivative
Formula: C24 H36 O5 Si3
Molecular weight: 488
Origin: NIST Mass Spectrometry Data Center
m/z	RELATIVE INTENSITY
15	10
27	10
29	10
31	10
39	20
43	130
44	100
45	1081
46	70
47	80
50	10
51	30
52	10
53	20
55	40
56	10
57	40
58	40
59	170
60	20
61	70
62	10
63	40
64	10
65	30
66	10
67	20
68	10
69	60
70	30
71	40
73	9999
74	841
75	1081
76	80
77	240
78	40
79	40
81	10
82	10
83	80
84	10
85	60
87	20
88	10
89	50
90	30
91	210
92	50
93	50
94	10
95	60
96	30
97	40
98	20
99	250
100	20
101	30
102	50
103	160
104	40
105	110
106	20
107	70
108	10
109	70
110	20
111	30
112	10
113	20
114	10
115	180
116	40
117	170
118	30
119	120
120	30
121	100
122	20
123	70
124	20
125	30
126	20
127	40
128	20
129	40
130	10
131	110
132	30
133	550
134	80
135	290
136	40
137	70
138	30
139	40
140	20
141	40
142	10
143	70
144	20
145	70
146	10
147	901
148	220
149	350
150	80
151	480
152	110
153	60
154	10
155	40
156	10
157	70
158	20
159	40
160	10
161	260
162	50
163	100
164	40
165	130
166	150
167	90
168	20
169	40
170	20
171	50
172	10
173	50
174	10
175	120
176	50
177	1231
178	240
179	2342
180	390
181	170
182	30
183	60
184	20
185	50
186	20
187	20
188	10
189	40
190	50
191	120
192	961
193	340
194	150
195	90
196	20
197	40
198	10
199	10
200	10
201	20
202	10
203	40
204	20
205	50
206	30
207	160
208	30
209	70
210	20
211	40
212	10
213	20
214	30
215	20
216	10
217	50
218	20
219	130
220	40
221	80
222	90
223	100
224	30
225	140
226	30
227	20
228	20
229	460
231	20
232	10
233	30
234	10
235	170
236	50
237	70
238	40
239	450
240	110
241	70
242	20
243	10
244	10
245	10
247	10
248	10
249	40
250	20
251	100
252	60
253	120
254	30
255	50
256	20
257	10
259	10
261	10
263	30
264	10
265	80
266	40
267	120
268	310
269	270
270	90
271	30
272	10
273	10
275	10
277	30
278	20
279	120
280	50
281	550
282	150
283	120
284	20
285	20
286	10
287	10
289	10
290	10
291	60
292	20
293	40
294	40
295	360
296	4584
297	1251
298	490
299	110
300	20
301	10
305	30
306	30
307	470
308	130
309	110
310	30
311	40
312	20
313	20
314	10
315	10
317	10
321	10
322	80
323	601
324	170
325	80
326	20
327	20
328	10
329	10
335	10
337	10
338	10
339	20
340	10
341	90
342	30
343	40
344	20
345	20
346	10
351	10
353	20
354	20
355	50
356	20
357	30
358	10
359	10
365	10
367	20
368	10
369	190
370	80
371	110
372	40
373	120
374	40
375	10
381	10
382	140
383	100
384	60
385	530
386	180
387	80
388	20
395	10
396	10
397	20
398	50
399	120
400	200
401	70
402	30
403	10
413	10
415	130
416	50
417	20
427	10
429	10
430	10
431	20
432	10
441	10
442	10
443	50
444	20
445	80
446	30
447	10
455	30
456	20
457	40
458	10
459	40
460	270
461	100
462	50
463	10
469	10
471	270
473	8478
474	3343
475	1541
476	400
477	90
478	20
487	961
488	681
489	280
490	90
491	30
492	10
