Mass Spectrum: cis-5,8,11-Eicosatrienoic acid, 4,4-dimethyloxazoline (dmox) derivative
Formula: C24 H41 N O
Molecular weight: 359
Origin: NIST Mass Spectrometry Data Center
m/z	RELATIVE INTENSITY
14	10
26	10
27	150
28	40
29	450
30	30
31	20
38	10
39	230
40	50
41	1491
42	430
43	881
44	120
45	20
46	10
50	10
51	30
52	20
53	210
54	330
55	1551
56	340
57	490
58	190
59	20
60	30
61	10
63	20
64	10
65	200
66	140
67	961
68	260
69	360
70	210
71	80
72	591
73	150
74	10
75	10
76	10
77	470
78	160
79	1021
80	370
81	460
82	220
83	200
84	150
85	20
86	20
87	10
88	10
89	10
91	831
92	130
93	440
94	140
95	210
96	130
97	190
98	2752
99	170
100	30
101	10
102	20
103	60
104	40
105	290
106	80
107	150
108	120
109	90
110	200
111	60
112	400
113	9999
114	951
115	110
116	10
117	120
118	50
119	150
120	90
121	100
122	100
123	90
124	100
125	10
126	2762
127	671
128	70
129	40
130	10
131	80
132	60
133	70
134	90
135	30
136	460
137	100
138	220
139	140
140	60
141	10
142	10
143	10
144	10
145	30
146	50
147	40
148	50
149	30
150	190
151	40
152	961
153	2042
154	260
155	40
157	10
159	10
160	40
161	30
162	40
163	20
164	100
165	50
166	1151
167	550
168	60
174	20
175	10
176	40
177	10
178	120
179	50
180	310
181	60
182	10
186	10
188	10
189	10
190	30
191	10
192	190
193	90
194	40
195	10
204	30
205	30
206	681
207	180
208	30
209	10
210	10
216	10
218	30
219	30
220	210
221	10
222	10
232	120
233	30
234	10
237	10
240	10
244	10
246	180
247	60
248	20
250	10
252	10
258	10
260	621
261	110
262	20
264	30
266	10
274	130
275	20
276	10
278	10
279	10
282	10
286	10
287	10
288	30
289	10
290	10
292	20
293	10
302	50
303	10
304	40
305	20
316	70
317	20
318	20
330	60
331	30
343	10
344	80
345	20
346	10
358	90
359	310
360	90
361	10
