Mass Spectrum: 3-Hydroxy-4-methoxybenzyl alcohol, 2TMS derivative
Formula: C14 H26 O3 Si2
Molecular weight: 298
Origin: NIST Mass Spectrometry Data Center
m/z	RELATIVE INTENSITY
15	40
27	20
28	10
29	50
31	30
39	60
41	10
42	20
43	230
44	120
45	991
46	70
47	100
50	20
51	130
52	30
53	50
54	10
55	50
56	10
57	60
58	120
59	1031
60	90
61	110
62	10
63	60
64	30
65	190
66	30
67	30
68	10
69	40
70	20
71	50
73	5825
74	561
75	641
76	70
77	340
78	150
79	110
80	40
81	30
82	60
83	100
84	10
85	50
86	10
87	30
88	20
89	420
90	140
91	350
92	50
93	70
94	30
95	90
96	20
97	60
98	30
99	80
100	10
101	20
102	40
103	210
104	190
105	450
106	130
107	200
108	110
109	60
110	20
111	100
112	50
113	10
115	90
116	20
117	60
118	70
119	480
121	110
122	50
123	60
124	10
125	20
126	641
129	10
131	50
132	10
133	240
134	821
135	561
136	200
137	230
138	30
139	20
141	40
143	10
145	30
146	10
147	561
148	130
149	1361
150	230
151	270
152	40
153	40
154	10
157	10
159	10
160	10
161	260
162	110
163	340
164	110
165	380
166	230
167	120
168	20
169	10
175	50
176	20
177	210
178	120
179	5235
180	851
181	330
182	40
183	10
189	10
190	10
191	150
192	150
193	721
194	581
195	240
196	50
197	50
198	10
205	10
206	10
207	100
209	9999
210	1782
211	530
212	60
219	10
221	20
222	10
223	190
224	40
225	40
226	10
235	20
236	10
237	110
238	40
239	30
240	10
249	10
251	80
252	70
253	2112
254	480
255	420
256	80
257	30
265	30
267	3433
268	4644
269	1221
270	420
271	70
272	10
281	40
283	2833
284	701
285	280
286	40
287	10
297	1952
298	8307
299	2262
300	861
301	150
302	30
