Mass Spectrum: Eicosapentaenoic Acid, TMS derivative
Formula: C23 H38 O2 Si
Molecular weight: 374
Origin: NIST Mass Spectrometry Data Center
m/z	RELATIVE INTENSITY
26	10
27	180
28	20
29	250
30	10
31	10
39	591
40	110
41	2582
42	180
43	550
44	110
45	811
46	60
47	390
48	20
49	20
50	40
51	190
52	150
53	981
54	430
55	3293
56	210
57	260
58	150
59	250
60	110
61	540
62	50
63	90
64	20
65	1111
66	1201
67	5705
68	550
69	991
70	280
71	150
72	460
73	9569
74	1011
75	8488
76	641
77	3503
78	2062
79	9999
80	3383
81	2442
82	611
83	330
84	210
85	170
86	130
87	80
88	80
89	260
91	8368
92	2172
93	5535
94	2162
95	2222
96	310
97	240
98	80
99	110
100	30
101	150
102	70
103	510
104	781
105	4934
106	4584
107	2462
108	3503
109	991
110	130
111	100
112	20
113	50
114	20
115	641
116	811
117	6946
118	1281
119	4744
120	2562
121	1311
122	661
123	250
124	50
125	60
126	20
127	110
128	310
129	3293
130	801
131	3243
132	1271
133	2833
134	1191
135	1051
136	280
137	120
138	20
139	60
140	10
141	350
142	210
143	671
144	330
145	2222
146	1011
147	1571
148	1141
149	500
150	100
151	120
152	40
153	70
154	60
155	370
156	140
157	741
158	270
159	1221
160	701
161	951
162	581
163	180
164	50
165	80
166	30
167	100
168	50
169	450
170	140
171	921
172	220
173	1041
174	440
175	1181
176	340
177	80
178	20
179	40
180	20
181	120
182	60
183	340
184	100
185	370
186	150
187	641
188	310
189	200
190	40
191	30
192	10
193	30
194	20
195	100
196	30
197	390
198	90
199	300
200	110
201	631
202	170
203	60
204	40
205	30
206	10
207	30
208	10
209	70
210	30
211	140
212	40
213	170
214	60
215	510
216	110
217	30
218	10
219	20
220	10
221	40
222	20
223	110
224	30
225	90
226	20
227	110
228	50
229	70
230	30
231	20
233	10
234	10
235	70
236	20
237	90
238	340
239	100
240	40
241	80
242	90
243	40
244	10
245	10
247	10
249	50
250	20
251	60
252	50
253	20
254	10
255	60
256	40
257	20
259	10
261	10
262	10
263	40
264	20
265	50
266	40
267	40
268	10
269	10
275	30
276	10
277	50
278	110
279	40
280	10
283	10
284	10
285	10
289	30
290	10
291	50
292	50
293	20
294	30
295	10
303	20
304	10
305	140
306	90
307	30
308	10
315	10
317	30
318	30
319	20
320	40
321	10
331	30
332	10
333	20
341	10
345	40
346	20
359	80
360	20
361	10
374	20
375	10
