Mass Spectrum: 3-Hexen-1-ol, (Z)-, TBDMS derivative
Formula: C12 H26 O Si
Molecular weight: 214
Origin: NIST Mass Spectrometry Data Center
m/z	RELATIVE INTENSITY
15	20
26	20
27	240
28	80
29	500
30	20
31	50
39	571
40	100
41	1641
42	190
43	440
44	70
45	691
46	50
47	561
48	30
49	20
50	20
51	60
52	40
53	300
54	110
55	1091
56	190
57	781
58	841
59	1631
60	230
61	390
62	30
63	30
64	10
65	80
66	40
67	450
68	50
69	110
70	40
71	120
73	4244
74	530
75	9388
76	851
77	470
78	30
79	110
80	20
81	260
82	120
83	250
84	40
85	631
86	80
87	220
88	460
89	4184
90	380
91	170
92	10
93	10
95	50
96	20
97	190
98	70
99	1922
100	310
101	4244
102	480
103	210
104	10
109	40
110	10
111	270
112	40
113	370
114	60
115	1672
116	190
117	70
123	80
124	10
125	30
127	1732
128	230
129	2142
130	250
131	90
132	10
139	60
140	10
141	90
142	20
143	130
144	20
145	130
146	20
147	10
155	20
157	9999
158	1832
159	581
160	50
169	10
171	10
199	220
200	40
201	10
213	10
