Mass Spectrum: 5,8,11-Eicosatriynoic acid, methyl ester
Formula: C21 H30 O2
Molecular weight: 314
Origin: NIST Mass Spectrometry Data Center
m/z	RELATIVE INTENSITY
15	200
16	20
26	20
27	771
28	290
29	1661
31	80
33	10
35	10
38	70
39	1231
40	130
41	4454
42	450
43	4114
44	180
45	320
49	10
50	360
51	781
52	360
53	761
54	240
55	4554
56	390
57	1601
58	110
59	1421
61	40
62	130
63	1061
64	330
65	1411
66	350
67	2102
68	210
69	831
70	140
71	410
73	70
74	1331
75	581
76	581
77	2512
78	1051
79	2272
80	440
81	1551
82	651
83	290
84	100
85	200
86	110
87	581
88	170
89	861
90	260
91	4754
92	691
93	1111
94	280
95	1201
96	210
97	350
98	130
99	80
100	70
101	240
102	941
103	1241
104	921
105	1952
106	470
107	561
108	220
109	571
110	300
111	150
112	20
113	160
114	160
115	5775
116	1942
117	3113
118	741
119	1021
120	290
121	520
122	190
123	230
124	260
125	130
126	460
127	2272
128	7377
129	9999
130	2612
131	2212
132	420
133	540
134	190
135	310
136	70
137	180
139	741
140	170
141	6646
142	4834
143	5115
144	1041
145	1101
146	320
147	430
148	140
149	120
150	90
151	300
152	1051
153	1722
154	1381
155	5245
156	2142
157	2752
158	581
159	851
160	360
161	300
162	80
163	270
164	130
165	520
166	270
167	571
168	450
169	2292
170	691
171	1111
172	270
173	731
174	290
175	330
176	100
177	90
178	120
179	150
180	90
181	320
182	190
183	1431
184	380
185	881
186	160
187	520
188	330
189	150
190	50
191	70
192	20
193	120
194	40
195	90
196	60
197	731
198	180
199	210
200	70
201	360
202	90
203	70
204	20
205	20
206	20
207	110
208	30
210	20
211	340
212	90
213	150
214	10
215	621
216	190
217	60
218	30
219	10
223	20
225	140
227	140
228	40
229	210
230	60
233	10
235	30
237	10
239	40
240	40
241	70
242	30
243	100
245	20
255	50
257	90
258	20
259	60
262	10
266	10
269	20
271	170
272	50
276	10
282	20
283	711
284	130
285	70
293	10
299	280
300	70
305	10
313	80
314	50
