Mass Spectrum: Androsterone, methyl ether
Formula: C20 H32 O2
Molecular weight: 304
Origin: NIST Mass Spectrometry Data Center
m/z	RELATIVE INTENSITY
14	10
19	10
26	10
27	340
28	120
29	1001
30	40
31	140
36	10
38	10
39	731
40	180
41	4014
42	561
43	1802
44	170
45	100
50	20
51	150
52	110
53	1631
54	470
55	4894
56	480
57	1391
58	180
59	80
60	20
61	20
62	10
63	30
64	40
65	841
66	360
67	3914
68	741
69	1521
70	300
71	220
72	50
74	50
75	30
77	2172
78	530
79	5005
80	961
81	5255
82	711
83	741
84	130
85	130
86	20
87	70
88	50
89	30
91	4284
92	901
93	4734
94	1411
95	2943
96	871
97	380
98	50
99	40
101	110
102	40
103	270
104	180
105	3133
106	2072
107	7026
108	9999
109	3243
110	631
111	1641
112	190
113	40
115	350
116	150
117	721
118	380
119	2002
120	1641
121	2002
122	1381
123	971
124	2742
125	601
126	80
127	50
128	220
129	360
130	120
131	991
132	310
133	1521
134	1231
135	1271
136	440
137	711
138	871
139	120
141	100
142	90
143	210
144	180
145	1551
146	661
147	2022
148	791
149	761
150	410
151	300
152	90
153	20
155	70
156	50
157	290
158	210
159	1251
160	871
161	1581
162	561
163	520
164	470
165	881
166	210
167	30
168	20
169	40
170	30
171	220
172	130
173	811
174	500
175	621
176	340
177	420
178	530
179	220
180	70
181	10
182	10
183	40
184	30
185	180
186	160
187	561
188	230
189	250
190	1782
191	500
192	170
193	30
194	30
195	10
196	10
197	100
198	50
199	180
200	130
201	2572
202	510
203	190
204	110
205	110
206	40
210	10
211	90
212	30
213	1131
214	250
215	1081
216	2572
217	691
218	190
219	1722
220	320
221	40
223	10
224	10
225	30
226	20
227	140
228	611
229	330
230	120
231	550
232	280
233	250
234	1852
235	330
236	30
237	10
241	20
242	10
243	290
244	130
245	70
246	2122
247	581
248	80
249	20
251	10
253	731
254	160
257	60
258	40
259	10
260	20
261	150
262	410
263	70
264	10
267	20
268	591
269	170
270	20
271	1101
272	210
273	50
277	10
284	20
285	40
286	611
287	160
289	821
299	10
301	10
302	70
304	5835
305	1251
306	180
307	10
