Mass Spectrum: mono-Ethyl malonate, TBDMS derivative
Formula: C11 H22 O4 Si
Molecular weight: 246
Origin: NIST Mass Spectrometry Data Center
m/z	RELATIVE INTENSITY
14	10
15	50
26	60
27	460
28	270
29	1481
30	60
31	110
39	330
40	60
41	1001
42	490
43	721
44	150
45	1171
46	90
47	841
48	50
49	40
50	30
51	20
52	10
53	70
54	20
55	170
56	140
57	1041
58	651
59	931
60	290
61	440
62	40
63	30
65	10
66	10
67	20
69	240
70	30
71	50
72	631
73	2592
74	731
75	9999
76	1201
77	811
78	30
79	10
81	10
83	50
84	10
85	100
86	50
87	160
88	240
89	80
90	20
91	10
93	10
95	10
97	30
98	20
99	520
100	80
101	701
102	140
103	3103
104	310
105	140
106	10
113	20
115	2092
116	811
117	3513
118	400
119	280
120	20
121	10
129	10
130	10
131	40
133	10
139	10
141	10
142	10
143	270
144	40
145	200
146	50
147	40
148	10
149	10
157	330
158	50
159	500
161	8538
162	1181
163	510
164	30
174	10
185	20
189	7807
190	1251
191	480
192	40
201	90
202	20
203	240
204	30
205	10
213	10
231	180
232	30
233	10
247	80
248	10
