Mass Spectrum: 3-Aminopropanol, 2TBDMS derivative
Formula: C15 H37 N O Si2
Molecular weight: 303
Origin: NIST Mass Spectrometry Data Center
m/z	RELATIVE INTENSITY
27	30
28	20
29	170
30	30
31	30
39	70
40	20
41	420
42	40
43	170
44	80
45	330
46	30
47	90
51	10
52	10
53	10
54	10
55	70
56	250
57	641
58	420
59	1682
60	200
61	160
62	10
66	100
69	20
70	40
71	50
72	200
73	6366
74	711
75	611
76	50
77	20
79	30
80	380
83	30
84	30
85	160
86	350
87	260
88	641
89	300
90	40
91	10
94	370
97	30
98	190
99	160
100	350
101	240
102	100
103	170
104	70
105	40
106	10
110	10
112	30
113	40
114	250
115	410
116	2182
117	601
118	280
119	300
120	50
121	20
123	10
126	10
127	10
128	60
129	30
130	581
131	360
132	671
133	1331
134	240
135	100
136	10
141	10
142	30
143	20
144	601
145	120
146	400
147	9999
148	1682
149	831
150	90
151	20
156	20
157	20
158	100
159	70
160	120
161	30
162	160
163	20
164	10
170	40
171	10
172	130
173	60
174	80
175	50
176	10
186	10
187	10
188	70
189	571
190	120
191	50
192	10
202	20
204	10
218	6956
219	1461
220	621
221	80
222	10
230	10
231	20
232	10
244	10
246	2052
247	510
248	210
249	30
250	10
260	180
261	40
262	20
288	370
289	100
290	40
291	10
302	10
303	10
304	10
