Mass Spectrum: L-(+)-Lactic acid, 2TMS derivative
Formula: C9 H22 O3 Si2
Molecular weight: 234
Origin: NIST Mass Spectrometry Data Center
m/z	RELATIVE INTENSITY
15	30
26	10
27	90
28	80
29	170
30	10
31	60
39	20
41	40
42	110
43	1121
44	390
45	2192
46	160
47	450
48	20
49	10
51	70
52	160
53	70
54	20
55	380
56	80
57	170
58	550
59	1071
60	150
61	320
62	20
63	10
66	1251
69	20
70	70
71	130
72	460
73	9378
74	1111
75	1661
76	110
77	70
80	10
81	10
83	10
85	40
86	40
87	330
88	811
91	10
94	40
99	30
101	390
102	360
103	220
104	40
105	100
106	10
107	10
113	30
115	230
117	9078
118	1401
119	601
120	40
121	10
129	190
130	40
131	721
132	130
133	1511
134	220
135	120
136	10
143	10
145	20
147	9999
148	2672
149	1431
150	150
151	40
159	10
161	10
163	10
175	100
176	20
177	10
190	2692
191	3303
192	751
193	270
194	30
195	10
203	120
204	20
205	10
217	10
219	1301
220	250
221	120
222	20
233	10
