Mass Spectrum: D-(-)-Lactic acid, 2TMS derivative
Formula: C9 H22 O3 Si2
Molecular weight: 234
Origin: NIST Mass Spectrometry Data Center
m/z	RELATIVE INTENSITY
15	30
26	10
27	70
28	70
29	150
30	10
31	50
39	10
41	40
42	90
43	1001
44	350
45	1962
46	140
47	400
48	20
49	10
51	60
52	150
53	60
54	20
55	340
56	70
57	160
58	510
59	1001
60	140
61	300
62	20
63	10
66	1181
69	20
70	60
71	120
72	420
73	9308
74	1041
75	1561
76	100
77	70
80	10
81	10
83	10
85	40
86	40
87	300
88	771
91	10
94	40
99	30
101	360
102	330
103	210
104	40
105	90
106	10
107	10
113	30
115	210
117	9048
118	1311
119	561
120	40
121	10
129	180
130	40
131	661
132	120
133	1391
134	200
135	110
136	10
143	10
145	20
147	9999
148	2482
149	1301
150	130
151	30
159	10
161	10
163	10
175	90
176	20
177	10
190	2402
191	2953
192	671
193	240
194	30
195	10
203	110
204	20
205	10
217	10
219	1121
220	220
221	100
222	10
233	10
