Mass Spectrum: (R)-(+)-Citronellic acid, picolinyl ester
Formula: C16 H23 N O2
Molecular weight: 261
Origin: NIST Mass Spectrometry Data Center
m/z	RELATIVE INTENSITY
15	10
26	20
27	320
28	80
29	310
30	10
31	10
37	20
38	100
39	1641
40	230
41	3873
42	430
43	671
44	20
45	90
49	10
50	100
51	370
52	230
53	841
54	170
55	1571
56	370
57	140
58	10
59	100
60	10
61	10
62	50
63	320
64	340
65	2863
66	300
67	1511
68	370
69	8518
70	571
71	971
72	50
73	30
75	10
76	10
77	160
78	360
79	400
80	390
81	621
82	380
83	220
84	30
85	230
86	10
87	10
89	10
90	20
91	540
92	6936
93	9999
94	881
95	450
96	40
97	70
98	10
99	50
101	90
102	10
103	10
104	20
105	40
106	200
107	360
108	6386
109	7647
110	1181
111	130
112	10
113	951
114	60
115	40
117	20
118	30
119	10
120	40
121	50
122	20
123	420
124	40
125	30
127	100
128	10
130	20
131	20
132	30
133	60
134	20
136	10
137	20
139	10
144	20
145	10
146	40
147	10
148	20
149	10
151	2582
152	270
153	60
154	10
158	10
160	20
161	10
162	20
163	10
164	80
165	10
169	100
170	10
174	10
175	10
176	10
178	2742
179	400
180	30
186	10
190	20
191	20
192	1121
193	190
194	20
200	20
202	10
204	70
205	30
206	80
207	10
216	10
218	50
219	10
220	10
228	10
232	20
233	10
242	10
246	280
247	50
260	60
261	971
262	230
263	30
