Mass Spectrum: cis-8,11,14-Eicosatrienoic acid, 4,4-dimethyloxazoline (dmox) derivative
Formula: C24 H41 N O
Molecular weight: 359
Origin: NIST Mass Spectrometry Data Center
m/z	RELATIVE INTENSITY
15	10
26	10
27	170
28	60
29	540
30	50
31	10
38	10
39	340
40	90
41	1882
42	550
43	611
44	110
45	30
50	10
51	50
52	40
53	380
54	621
55	2552
56	360
57	430
58	430
59	30
60	10
63	10
65	320
66	300
67	2312
68	711
69	801
70	290
71	180
72	1111
73	190
74	10
77	841
78	390
79	2332
80	1251
81	1211
82	561
83	400
84	260
85	50
86	50
88	10
89	10
91	1161
92	210
93	951
94	370
95	671
96	550
97	330
98	891
99	70
100	80
102	10
103	60
104	40
105	370
106	110
107	310
108	150
109	200
110	631
111	110
112	200
113	5095
114	530
115	80
116	30
117	120
118	30
119	150
120	90
121	170
122	110
123	100
124	170
126	9999
127	1561
128	130
129	30
130	10
131	70
132	20
133	80
134	90
135	80
136	100
137	60
138	120
139	130
140	871
141	110
142	20
143	10
144	10
145	30
146	20
147	40
148	60
149	30
150	440
151	80
152	601
153	240
154	260
155	90
156	20
157	10
159	30
160	20
161	20
162	30
163	30
164	100
165	50
166	300
167	90
168	1521
169	210
170	20
171	10
173	10
174	20
175	20
176	50
177	20
178	120
179	80
180	300
181	60
182	921
183	130
184	20
185	10
187	10
188	20
189	20
190	40
191	10
192	130
193	70
194	290
195	70
196	160
197	20
202	20
203	10
204	60
205	20
206	200
207	60
208	1521
209	490
210	260
211	40
216	20
217	10
218	80
219	20
220	170
221	50
222	891
223	200
224	50
225	10
230	10
232	90
233	30
234	420
235	110
236	180
237	40
238	10
244	10
246	100
247	30
248	1241
249	330
250	90
251	10
252	10
258	10
260	150
261	150
262	851
263	200
264	40
265	10
266	10
272	20
274	380
275	100
276	190
277	40
278	30
279	20
280	40
281	10
286	20
287	20
288	500
289	120
290	60
291	20
292	40
293	20
300	10
302	1001
303	240
304	100
305	60
306	10
314	10
316	480
317	120
318	160
319	30
328	10
330	170
331	50
332	10
344	380
345	100
346	10
358	250
359	1321
360	360
361	50
362	10
