Mass Spectrum: 2-Nitrophenol, TBDMS derivative
Formula: C12 H19 N O3 Si
Molecular weight: 253
Origin: NIST Mass Spectrometry Data Center
m/z	RELATIVE INTENSITY
15	10
26	10
27	110
28	50
29	440
30	370
31	30
37	10
38	40
39	330
40	40
41	941
42	90
43	340
44	50
45	651
46	40
47	170
48	10
49	10
50	110
51	520
52	160
53	190
54	40
55	140
56	60
57	2472
58	210
59	420
60	90
61	160
62	50
63	280
64	290
65	260
66	90
67	70
68	30
69	50
70	20
71	30
72	20
73	781
74	150
75	1251
76	220
77	811
78	911
79	240
80	80
81	50
82	20
83	50
84	30
85	130
86	100
87	30
88	10
89	100
90	80
91	500
92	450
93	130
94	100
95	100
96	30
97	30
98	70
99	100
100	40
101	40
102	10
103	30
104	831
105	140
106	691
107	280
108	90
109	60
110	20
111	20
112	10
113	10
115	20
116	10
117	10
119	20
120	70
121	140
122	410
123	80
124	30
125	10
126	20
127	10
131	10
133	20
134	50
135	340
136	1371
137	290
138	160
139	30
140	10
146	10
147	50
148	230
149	140
150	240
151	3193
152	490
153	190
154	30
155	10
161	10
162	10
163	10
164	70
165	100
166	540
167	90
168	30
178	10
180	1712
181	270
182	420
183	50
184	20
193	10
196	9999
197	1832
198	571
199	60
200	10
223	10
238	320
239	60
240	20
