Mass Spectrum: 2-Amino-4-nitrophenol, N,N-dimethyl-, methyl ether
Formula: C9 H12 N2 O3
Molecular weight: 196
Origin: NIST Mass Spectrometry Data Center
m/z	RELATIVE INTENSITY
14	10
15	300
16	10
18	10
26	40
27	100
28	150
29	80
30	390
31	10
32	30
37	60
38	170
39	561
40	110
41	210
42	1231
43	210
44	1111
45	70
46	110
49	30
50	771
51	1892
52	520
53	500
54	190
55	450
56	110
57	20
58	60
59	10
61	140
62	430
63	1291
64	601
65	1561
66	901
67	160
68	240
69	140
70	20
72	831
73	70
74	300
75	340
76	791
77	1001
78	611
79	2732
80	490
81	621
82	180
83	10
84	10
85	10
86	10
87	30
88	100
89	130
90	430
91	751
92	1962
93	340
94	571
95	190
96	50
97	10
98	80
100	10
102	30
103	60
104	440
105	460
106	1712
107	1051
108	520
109	80
110	30
111	10
116	70
117	631
118	380
119	430
120	1812
121	260
122	390
123	440
124	40
125	10
130	10
131	30
132	140
133	540
134	2712
135	9999
136	1311
137	150
138	120
139	10
146	200
147	40
148	110
149	1081
150	731
151	530
152	130
153	20
154	10
160	10
161	10
163	340
164	90
165	430
166	190
167	120
168	10
177	50
178	50
179	561
180	550
181	5895
182	561
183	60
184	10
193	20
195	1882
196	8918
197	961
198	100
199	10
