Mass Spectrum: N-(tert-Butoxycarbonyl)glycine, methyl ester
Formula: C8 H15 N O4
Molecular weight: 189
Origin: NIST Mass Spectrometry Data Center
m/z	RELATIVE INTENSITY
14	10
15	160
26	20
27	200
28	380
29	1001
30	1111
31	280
32	10
33	30
37	10
38	30
39	530
40	100
41	2612
42	280
43	581
44	240
45	190
46	10
50	20
51	30
52	10
53	70
54	30
55	330
56	1521
57	9999
58	520
59	4964
60	180
61	20
62	90
70	30
71	20
72	10
73	100
74	370
75	30
83	10
84	10
86	50
88	931
89	130
90	1141
91	40
92	10
101	30
102	180
103	10
115	30
116	460
117	20
130	581
131	40
134	1171
135	60
136	10
174	30
