Mass Spectrum: Homogentisic acid, dimethyl ether, methyl ester
Formula: C11 H14 O4
Molecular weight: 210
Origin: NIST Mass Spectrometry Data Center
m/z	RELATIVE INTENSITY
14	10
15	380
16	10
26	30
27	70
28	30
29	150
30	30
31	40
37	10
38	140
39	921
40	30
41	100
42	20
43	80
44	10
45	400
46	10
49	10
50	410
51	1061
52	350
53	420
54	200
55	170
56	10
57	20
59	1001
60	30
61	40
62	170
63	550
64	340
65	2412
66	180
67	240
68	40
69	80
73	10
74	150
76	300
77	2342
78	1842
79	911
80	130
81	70
82	60
83	10
85	20
86	40
87	40
88	20
89	310
90	200
91	3253
92	711
93	611
95	90
96	30
97	20
98	10
102	10
103	60
104	30
105	320
106	500
107	300
108	1631
109	530
110	70
111	20
117	10
118	40
119	220
120	280
121	7847
122	370
123	921
124	110
125	180
126	10
133	40
134	30
135	550
136	781
137	681
138	80
139	1001
140	90
141	10
147	10
148	60
149	180
151	9529
152	1001
153	611
154	50
155	10
161	10
163	3683
164	320
166	20
167	420
168	40
177	10
178	210
179	110
180	30
181	10
195	2072
196	200
197	30
207	10
208	10
210	9999
211	1211
212	150
213	10
