Mass Spectrum: 1-Decanol, TBDMS derivative
Formula: C16 H36 O Si
Molecular weight: 272
Origin: NIST Mass Spectrometry Data Center
m/z	RELATIVE INTENSITY
15	10
27	160
28	50
29	480
30	10
31	20
39	190
41	1141
42	170
43	1041
44	50
45	280
46	20
47	250
48	10
49	10
51	10
53	70
54	60
55	901
56	150
57	881
58	240
59	661
60	100
61	410
62	30
63	10
65	10
66	10
67	140
68	60
69	1001
70	80
71	220
72	70
73	1581
75	5925
76	490
77	320
78	10
79	30
80	10
81	120
83	2262
84	160
85	250
86	50
87	280
88	140
89	1722
90	150
91	70
93	10
95	90
97	1301
98	110
99	390
100	80
101	981
102	110
103	70
104	10
109	20
110	10
111	70
112	10
113	180
114	40
115	771
116	90
117	70
118	10
125	20
127	70
128	20
129	330
130	40
131	90
132	20
133	20
137	10
139	10
141	20
143	260
144	30
145	50
146	10
155	10
157	280
158	40
159	30
171	30
172	10
173	10
183	10
185	10
199	70
200	10
201	10
213	40
215	9999
216	2752
217	771
218	90
219	10
241	10
257	190
258	40
259	10
271	10
272	20
273	10
