Mass Spectrum: cis, cis, cis-9, 12, 15-Octadecatrienoic acid, 4,4-dimethyloxazoline (dmox) derivative
Formula: C22 H37 N O
Molecular weight: 331
Origin: NIST Mass Spectrometry Data Center
m/z	RELATIVE INTENSITY
15	10
26	10
27	190
28	70
29	470
30	60
31	20
38	10
39	480
40	110
41	2412
42	671
43	550
44	130
45	40
50	20
51	80
52	70
53	591
54	641
55	3053
56	440
57	450
58	591
59	40
60	20
63	20
64	10
65	380
66	310
67	2362
68	791
69	811
70	300
71	170
72	1161
73	200
74	10
77	971
78	420
79	3123
80	791
81	1001
82	621
83	440
84	280
85	40
86	60
89	10
91	1171
92	190
93	1181
94	280
95	981
96	520
97	350
98	1001
99	80
100	60
101	10
102	10
103	60
104	30
105	360
106	100
107	310
108	901
109	250
110	631
111	120
112	210
113	6196
114	571
115	90
116	20
117	100
118	20
119	150
120	80
121	150
122	110
123	60
124	170
126	9999
127	1581
128	150
129	30
130	20
131	50
132	10
133	70
134	70
135	80
136	80
137	30
138	140
139	80
140	1221
141	160
142	20
143	10
144	10
145	30
146	10
147	40
148	50
149	40
150	70
151	30
152	330
153	140
154	290
155	80
156	10
157	10
159	10
160	10
161	20
162	30
163	10
164	50
165	20
166	190
167	60
168	641
169	100
170	10
173	10
174	10
175	10
176	20
177	10
178	70
179	30
180	190
181	50
182	1141
183	170
184	20
188	10
189	10
190	30
191	10
192	60
193	30
194	130
195	30
196	330
197	50
198	10
202	10
204	20
205	10
206	70
207	30
208	160
209	40
210	90
211	20
216	10
218	30
219	10
220	100
221	40
222	911
223	240
224	170
225	30
230	10
232	40
233	10
234	140
235	30
236	571
237	110
238	40
246	50
247	30
248	220
249	60
250	100
251	30
252	30
253	10
258	10
259	10
260	70
261	20
262	871
263	220
264	70
265	20
266	10
272	10
274	100
275	100
276	581
277	140
278	20
286	20
288	260
289	60
290	110
291	20
300	10
302	440
303	100
304	10
316	470
317	110
318	10
330	140
331	821
332	190
333	20
