Mass Spectrum: 1-Tridecanol, TBDMS derivative
Formula: C19 H42 O Si
Molecular weight: 314
Origin: NIST Mass Spectrometry Data Center
m/z	RELATIVE INTENSITY
26	10
27	120
28	30
29	420
30	10
31	10
39	150
40	30
41	1181
42	190
43	1461
44	60
45	250
46	20
47	240
48	10
51	10
53	70
54	100
55	1301
56	200
57	1561
58	280
59	771
60	110
61	601
62	40
63	20
65	10
66	10
67	270
68	100
69	1541
70	120
71	380
72	70
73	1932
74	250
75	8007
76	601
77	410
78	20
79	50
80	10
81	220
82	100
83	1942
84	140
85	450
86	50
87	270
88	130
89	2102
90	180
91	90
93	20
94	10
95	180
96	50
97	1792
98	150
99	430
100	80
101	1011
102	120
103	90
104	10
107	10
109	80
110	20
111	751
112	70
113	190
114	40
115	801
116	90
117	90
118	10
119	10
123	30
124	10
125	190
126	20
127	90
128	20
129	320
130	40
131	90
132	20
133	20
137	10
139	30
140	10
141	40
142	10
143	140
144	20
145	50
146	10
153	10
155	20
157	150
158	20
159	20
169	10
171	160
172	20
173	10
183	10
185	140
186	20
187	10
199	90
200	10
201	10
213	10
227	10
241	50
242	10
252	10
253	10
254	10
255	30
257	9999
258	2212
259	601
260	80
261	10
299	80
300	20
301	10
313	10
