Mass Spectrum: Bisphenol A, TBDMS derivative
Formula: C21 H30 O2 Si
Molecular weight: 342
Origin: NIST Mass Spectrometry Data Center
m/z	RELATIVE INTENSITY
27	30
28	10
29	140
31	20
38	10
39	120
40	20
41	611
42	30
43	110
44	10
45	190
46	10
47	40
50	20
51	50
52	10
53	40
54	10
55	100
56	80
57	310
58	70
59	290
60	30
61	60
62	10
63	40
64	20
65	170
66	30
67	30
68	20
69	30
70	10
71	10
73	1481
74	160
75	400
76	70
77	330
78	50
79	70
80	10
81	20
82	70
83	30
84	10
85	40
86	10
87	10
88	90
89	90
90	40
91	540
92	60
93	30
94	60
95	520
96	40
97	20
98	10
99	50
100	10
101	40
102	80
103	110
104	20
105	110
107	1501
108	120
109	20
111	20
112	10
113	30
114	20
115	290
116	60
117	70
118	80
119	641
120	240
121	80
122	10
123	30
124	10
126	70
127	120
128	120
129	40
130	10
131	60
132	10
133	70
135	9999
136	931
137	110
138	10
139	60
140	20
141	60
142	80
144	20
145	50
146	10
147	30
148	10
149	90
150	70
151	290
152	270
153	110
154	20
155	30
156	10
157	30
158	10
159	20
160	10
161	80
162	20
163	60
164	50
165	340
166	100
167	60
168	30
169	50
170	10
171	20
173	10
174	10
175	120
176	90
177	190
178	160
179	70
180	20
181	170
182	40
183	40
184	20
185	30
186	10
187	10
189	20
190	20
191	100
192	30
193	80
194	70
195	100
196	60
197	50
198	20
199	30
200	10
201	10
203	10
205	10
207	20
208	10
209	40
210	20
211	110
212	40
213	240
214	40
215	10
217	10
219	10
220	10
221	20
222	10
223	20
224	10
225	30
226	10
227	30
228	40
229	10
233	60
234	20
235	40
236	10
237	40
238	10
239	30
240	20
241	20
242	10
249	80
250	20
251	170
252	40
253	60
254	20
255	180
256	40
257	10
267	20
268	10
269	80
270	30
271	731
272	170
273	40
274	10
281	10
283	10
284	20
285	1341
286	370
287	100
288	20
297	10
311	30
312	10
313	20
314	10
323	10
325	20
327	5715
328	1541
329	410
330	60
331	10
341	50
342	2042
343	561
344	160
345	20
