Mass Spectrum: cis-11,14-Eicosadienoic acid, methyl ester
Formula: C21 H38 O2
Molecular weight: 322
Origin: NIST Mass Spectrometry Data Center
m/z	RELATIVE INTENSITY
15	80
26	20
27	330
28	90
29	881
30	30
31	40
33	10
39	671
40	140
41	4034
42	530
43	2212
44	90
45	180
50	20
51	90
52	90
53	1001
54	3583
55	7247
56	641
57	821
58	60
59	1732
60	50
61	20
63	20
64	10
65	661
66	691
67	9999
68	4254
69	3483
70	310
71	280
72	30
73	280
74	1571
75	130
77	1141
78	360
79	3783
80	2152
81	9058
82	5835
83	2222
84	380
85	340
87	921
88	100
89	20
90	10
91	1011
92	200
93	1361
94	1211
95	7096
96	5445
97	1922
98	350
99	180
100	30
101	230
102	30
103	40
104	50
105	250
106	120
107	741
108	751
109	3523
110	2923
111	901
112	120
113	90
114	60
115	330
116	40
117	70
118	40
119	240
120	120
121	931
122	631
123	1712
124	1431
125	490
126	80
127	100
128	80
129	310
130	30
131	150
132	50
133	220
134	110
135	891
136	791
137	971
138	781
139	290
140	110
141	130
142	30
143	200
144	30
145	110
146	60
147	140
148	70
149	641
150	981
151	550
152	410
153	170
154	120
155	60
156	10
157	110
158	20
159	110
160	40
161	120
162	40
163	380
164	571
165	290
166	210
167	120
168	110
169	40
170	10
171	70
172	10
173	120
174	40
175	70
176	20
177	210
178	290
179	160
180	100
181	110
182	50
183	20
185	40
186	10
187	90
188	30
189	30
190	10
191	120
192	250
193	100
194	60
195	80
196	50
197	10
199	20
201	60
202	10
203	10
205	70
206	170
207	70
208	30
209	60
210	40
211	10
213	10
215	30
217	10
219	60
220	70
221	30
222	10
223	40
224	50
225	10
227	10
229	10
233	50
234	40
235	20
236	10
237	30
238	30
239	10
243	10
246	20
247	30
248	120
249	30
251	20
252	20
255	10
261	30
262	50
263	10
265	30
266	20
273	10
279	20
280	10
290	460
291	731
292	160
293	30
294	10
322	1031
323	240
324	30
