Mass Spectrum: 17-Octadecynoic acid, 4,4-dimethyloxazoline (dmox) derivative
Formula: C22 H39 N O
Molecular weight: 333
Origin: NIST Mass Spectrometry Data Center
m/z	RELATIVE INTENSITY
27	90
28	30
29	240
30	30
31	10
38	10
39	200
40	80
41	971
42	330
43	540
44	80
45	10
50	10
51	20
52	20
53	210
54	270
55	1391
56	240
57	350
58	410
59	20
60	10
65	60
66	40
67	470
68	330
69	450
70	160
71	120
72	390
73	90
77	60
78	10
79	200
80	70
81	410
82	310
83	310
84	180
85	40
86	30
91	50
92	10
93	90
94	70
95	270
96	300
97	290
98	651
99	50
100	30
105	20
106	10
107	50
108	70
109	90
110	340
111	80
113	9999
114	811
115	50
119	10
120	20
121	30
122	60
123	30
124	120
126	2402
127	490
128	40
133	10
134	30
135	20
136	50
137	20
138	80
139	50
140	360
141	40
142	10
148	20
149	10
150	60
151	20
152	330
153	90
154	150
155	30
162	10
164	40
165	30
166	140
167	30
168	400
169	50
170	10
176	10
178	40
179	20
180	80
181	20
182	170
183	20
192	70
193	20
194	80
195	10
196	110
197	20
206	30
207	10
208	70
209	20
210	80
211	10
220	30
221	10
222	60
223	10
224	80
225	10
234	20
235	10
236	80
237	10
238	100
239	20
248	20
249	10
250	40
251	10
252	130
253	30
260	10
262	30
263	10
264	30
265	10
266	20
274	10
276	40
277	10
278	50
279	10
280	10
288	60
289	10
290	120
291	30
292	60
293	10
294	110
295	20
302	10
304	90
305	20
318	500
319	120
320	10
332	80
333	40
334	10
