Mass Spectrum: 4-Amino-1-butanol, TMS derivative
Formula: C7 H19 N O Si
Molecular weight: 161
Origin: NIST Mass Spectrometry Data Center
m/z	RELATIVE INTENSITY
14	10
15	60
17	10
18	120
26	30
27	230
28	871
29	390
30	6486
31	190
32	10
37	10
38	20
39	320
40	60
41	671
42	1331
43	9358
44	1041
45	8728
46	410
47	1161
48	60
49	40
50	10
51	30
52	20
53	230
54	120
55	581
56	641
57	270
58	1511
59	1682
60	601
61	1321
62	110
63	50
65	10
66	10
67	30
68	170
69	160
70	4284
71	1151
72	1371
73	7837
74	5355
75	9999
76	1041
77	380
78	20
81	10
82	10
83	50
84	30
85	220
86	310
87	250
88	741
89	160
90	581
91	1021
92	130
93	40
96	10
97	40
98	70
99	1211
100	340
101	3924
102	971
103	1501
104	5995
105	571
106	220
107	10
110	10
111	20
112	30
113	40
114	40
115	190
116	3523
117	1561
118	530
119	80
120	40
126	20
128	1732
129	270
130	280
131	60
132	250
133	30
134	10
142	20
143	50
144	160
146	3153
147	390
148	130
149	10
160	50
161	831
162	190
163	50
164	10
