Mass Spectrum: 2,3-Dimethylphenol, TMS derivative
Formula: C11 H18 O Si
Molecular weight: 194
Origin: NIST Mass Spectrometry Data Center
m/z	RELATIVE INTENSITY
15	20
26	10
27	140
28	30
29	80
30	10
31	50
38	20
39	330
40	40
41	130
42	40
43	470
44	150
45	1081
46	80
47	190
48	10
50	90
51	370
52	130
53	300
54	40
55	140
56	20
57	100
58	120
59	510
60	70
61	180
62	60
63	230
64	60
65	410
66	80
67	160
68	190
69	80
70	30
71	50
72	70
73	2072
74	380
75	1772
76	200
77	1561
78	430
79	691
80	100
81	440
82	1141
84	10
85	70
86	10
87	30
88	50
89	370
91	1181
92	150
93	130
94	20
95	90
96	20
97	50
98	10
99	40
101	30
102	150
103	781
104	300
105	9679
106	911
107	120
108	10
109	70
110	10
111	20
115	240
116	60
117	170
118	40
119	631
120	100
121	310
122	40
123	50
124	10
125	10
128	10
129	10
130	10
131	60
132	20
133	120
134	30
135	300
136	40
137	90
138	10
139	10
143	30
144	10
145	180
146	40
147	290
148	220
149	4144
150	641
151	300
152	30
153	10
159	60
160	20
161	340
162	130
163	2032
164	470
165	150
166	20
175	110
177	941
179	9999
180	1702
181	490
182	50
191	20
192	10
194	7637
195	1361
196	390
197	40
