Mass Spectrum: N,N-Dimethylglycine, TMS derivative
Formula: C7 H17 N O2 Si
Molecular weight: 175
Origin: NIST Mass Spectrometry Data Center
m/z	RELATIVE INTENSITY
15	50
27	30
28	70
29	90
30	230
31	20
40	20
41	70
42	841
43	330
44	130
45	440
46	30
47	140
48	10
53	10
54	10
55	40
56	130
57	290
58	9999
59	731
60	40
61	50
65	20
70	10
71	30
72	50
73	500
74	70
75	350
76	30
77	10
80	30
84	20
85	10
86	20
88	20
89	10
100	10
101	30
102	40
103	100
104	10
114	20
115	10
116	50
117	80
118	10
130	80
131	10
132	40
133	10
144	10
146	10
160	631
161	80
162	30
174	10
175	410
176	60
177	20
