Mass Spectrum: Heneicosanoic acid, TBDMS derivative
Formula: C27 H56 O2 Si
Molecular weight: 440
Origin: NIST Mass Spectrometry Data Center
m/z	RELATIVE INTENSITY
27	50
29	180
39	60
40	20
41	621
42	140
43	1261
44	40
45	80
47	80
53	40
54	50
55	721
56	200
57	1071
58	130
59	160
60	40
61	90
62	10
65	10
67	180
68	40
69	310
70	70
71	250
72	70
73	1311
74	170
75	3934
76	290
77	190
78	10
79	50
80	10
81	220
82	30
83	230
84	50
85	150
86	60
87	30
88	20
89	20
91	10
93	50
94	10
95	250
96	30
97	170
98	60
99	120
100	20
101	70
102	30
103	40
105	110
106	10
107	30
109	90
110	10
111	60
112	20
113	20
114	80
115	320
116	350
117	1261
118	160
119	60
120	10
121	40
123	30
124	10
125	20
127	10
129	2112
130	260
131	781
132	90
133	40
135	20
137	10
139	10
141	10
142	10
143	120
144	20
145	20
149	10
153	10
154	10
155	20
156	10
157	60
158	20
159	50
160	10
169	10
171	330
172	50
173	30
174	10
175	30
176	10
181	10
185	210
186	30
187	170
188	30
189	10
199	50
200	10
201	10
213	70
214	10
215	10
227	90
228	20
229	20
241	90
242	20
243	30
255	80
256	20
257	10
269	70
270	20
271	10
283	60
284	20
285	10
297	40
298	10
299	10
309	10
311	20
312	10
313	10
325	20
327	10
339	40
340	10
341	10
353	10
367	20
368	10
369	10
381	60
383	9999
384	3143
385	831
386	140
387	20
395	10
397	10
423	10
425	130
426	50
427	10
439	10
440	40
441	20
