Mass Spectrum: 4-Decen-1-ol, (Z)-, TMS derivative
Formula: C13 H28 O Si
Molecular weight: 228
Origin: NIST Mass Spectrometry Data Center
m/z	RELATIVE INTENSITY
15	20
26	30
27	530
28	150
29	1241
30	30
31	50
39	871
40	160
41	3303
42	581
43	1041
44	220
45	1421
46	110
47	791
48	40
49	30
50	30
51	100
52	80
53	851
54	2843
55	2953
56	410
57	581
58	490
59	2002
60	280
61	1121
62	80
63	70
64	80
65	310
66	731
67	6075
68	9999
69	1541
70	320
71	290
72	420
73	8788
74	961
75	9939
76	751
77	721
78	130
79	1391
80	420
81	8358
82	4914
83	961
84	170
85	460
86	70
87	621
88	210
89	2672
90	240
91	550
92	50
93	220
94	130
95	4084
96	4434
97	1011
98	120
99	1031
100	150
101	4174
102	550
103	1802
104	170
105	80
107	50
109	2442
110	2162
111	490
112	100
113	941
114	210
115	1021
116	1702
117	320
118	80
119	10
121	10
123	280
124	30
125	70
126	20
127	510
128	250
129	5375
130	671
131	240
132	20
133	10
135	10
137	490
138	6436
139	751
140	50
141	320
142	50
143	1331
144	180
145	60
146	10
147	10
153	20
154	10
155	160
156	30
157	200
158	30
159	10
167	10
169	30
171	500
172	80
173	20
181	10
183	200
184	40
185	691
186	110
187	30
195	20
197	10
199	100
200	50
201	10
213	2302
214	420
215	120
216	10
227	20
228	330
229	70
230	20
