Mass Spectrum: L-Methionine, TMS derivative
Formula: C8 H19 N O2 S Si
Molecular weight: 221
Origin: NIST Mass Spectrometry Data Center
m/z	RELATIVE INTENSITY
15	30
26	10
27	170
28	400
29	200
30	240
31	30
35	190
37	10
39	70
40	10
41	190
42	470
43	701
44	280
45	1521
46	240
47	891
48	150
49	120
50	10
51	10
52	20
53	40
54	210
55	550
56	8297
57	1261
58	280
59	470
60	250
61	8117
62	300
63	370
64	10
65	10
67	10
68	20
69	20
70	90
71	60
72	120
73	3713
74	811
75	3583
76	360
77	170
78	10
79	10
82	10
83	480
84	70
85	80
86	130
87	490
88	621
89	90
90	40
91	170
92	20
93	20
97	10
98	30
99	40
100	70
101	30
102	220
103	520
104	9999
105	741
106	490
107	50
108	10
111	10
112	70
113	30
114	220
115	50
116	1141
117	130
118	100
119	30
120	10
126	10
128	140
129	150
130	1892
131	1772
132	230
133	80
134	10
135	10
140	30
141	20
142	40
143	10
144	190
145	80
146	530
147	170
148	40
149	10
154	10
156	10
157	30
158	230
159	40
160	220
161	30
162	20
172	30
173	410
174	80
175	30
176	20
178	1341
179	170
180	120
181	10
188	120
189	20
190	10
191	10
204	20
205	10
206	30
221	1341
222	220
223	120
224	20
