Mass Spectrum: cis-13-Eicosenoic acid, 4,4-dimethyloxazoline (dmox) derivative
Formula: C24 H45 N O
Molecular weight: 363
Origin: NIST Mass Spectrometry Data Center
m/z	RELATIVE INTENSITY
26	10
27	120
28	30
29	380
30	40
31	10
38	10
39	230
40	60
41	1772
42	631
43	1381
44	150
45	20
51	10
52	10
53	230
54	631
55	3513
56	731
57	831
58	941
59	40
60	20
65	70
66	50
67	711
68	561
69	1241
70	410
71	280
72	831
73	130
74	10
77	50
78	10
79	200
80	80
81	490
82	460
83	721
84	330
85	100
86	50
91	50
93	110
94	80
95	350
96	490
97	550
98	911
99	80
100	50
105	10
106	10
107	50
108	60
109	130
110	621
111	160
113	9999
114	951
115	50
119	10
120	20
121	30
122	100
123	60
124	210
126	8177
127	1281
128	110
133	10
134	10
135	20
136	80
137	30
138	140
139	40
140	811
141	110
142	20
148	10
149	10
150	50
151	10
152	200
153	60
154	230
155	120
156	20
164	30
165	10
166	150
167	40
168	881
169	130
170	20
178	20
179	10
180	90
181	20
182	671
183	100
184	20
192	20
194	60
195	20
196	420
197	60
198	20
206	10
208	80
209	10
210	320
211	60
212	10
220	20
222	70
223	30
224	330
225	70
226	10
234	20
236	70
237	20
238	841
239	150
240	10
248	30
250	100
251	30
252	110
253	20
262	20
263	10
264	140
265	50
266	40
267	10
276	10
278	210
279	80
280	20
290	20
292	1161
293	320
294	60
295	10
304	10
306	1141
307	270
308	110
309	20
318	60
319	10
320	290
321	80
322	30
323	10
332	10
334	220
335	60
336	10
348	721
349	200
350	30
362	210
363	671
364	180
365	30
