Mass Spectrum: 2-[(Trimethylsilyl)oxy]propan-1-ol
Formula: C6 H16 O2 Si
Molecular weight: 148
Origin: NIST Mass Spectrometry Data Center
m/z	RELATIVE INTENSITY
15	40
26	10
27	90
28	50
29	230
30	30
31	450
32	10
38	10
39	90
40	10
41	100
42	110
43	861
44	310
45	1611
46	110
47	530
48	30
49	10
51	30
53	60
54	20
55	150
56	40
57	220
58	470
59	701
60	150
61	631
62	50
63	40
66	10
67	10
69	10
70	50
71	90
72	280
73	9999
74	971
75	8858
76	661
77	510
78	20
79	10
85	40
86	10
87	260
88	50
89	120
90	10
91	10
93	10
99	50
100	10
101	250
102	120
103	70
104	10
105	10
115	230
117	8117
118	891
119	330
120	20
131	100
133	1291
134	140
135	50
147	10
