Mass Spectrum: 10-Heptadecenoic acid, (Z)-, TMS derivative
Formula: C20 H40 O2 Si
Molecular weight: 340
Origin: NIST Mass Spectrometry Data Center
m/z	RELATIVE INTENSITY
15	10
26	20
27	270
28	80
29	691
30	20
31	10
39	470
40	100
41	2963
42	741
43	2242
44	180
45	671
46	50
47	340
48	20
49	10
50	10
51	30
52	30
53	430
54	1031
55	4994
56	1021
57	671
58	190
59	250
60	100
61	530
62	30
63	30
65	140
66	130
67	1972
68	811
69	2202
70	490
71	240
72	430
73	8468
74	991
75	8037
76	611
77	500
78	70
79	641
80	320
81	1882
82	1121
83	1421
84	1441
85	310
86	100
87	80
88	80
89	300
90	40
91	290
92	110
93	430
94	300
95	1732
96	2122
97	1371
98	1431
99	350
100	40
101	140
102	30
103	60
104	10
105	270
106	80
107	300
108	220
109	971
110	991
111	641
112	330
113	80
114	30
115	80
116	991
117	7337
118	761
119	540
120	110
121	320
122	140
123	741
124	470
125	270
126	80
127	60
129	6776
130	921
131	1271
132	1682
133	701
134	270
135	250
136	90
137	510
138	360
139	130
140	30
141	80
142	70
143	420
144	90
145	3113
146	420
147	300
148	140
149	120
150	80
151	350
152	450
153	120
154	30
155	360
156	110
157	250
158	90
159	270
160	50
161	140
162	40
163	60
164	40
165	200
166	771
167	170
168	70
169	220
170	100
171	480
172	180
173	230
174	70
175	80
176	30
177	30
178	20
179	140
180	100
181	50
182	20
183	190
184	50
185	781
186	210
187	220
188	110
189	50
190	20
191	20
192	20
193	120
194	70
195	40
196	10
197	70
198	30
199	911
200	170
201	250
202	40
203	30
204	10
205	10
206	220
207	240
208	1171
209	210
210	30
211	80
212	20
213	200
214	50
215	80
216	30
217	10
219	10
221	140
222	190
223	40
224	10
225	50
226	20
227	220
228	50
229	70
230	30
231	20
232	70
233	20
235	30
236	10
239	50
240	10
241	200
242	50
243	150
244	70
245	20
249	20
250	941
251	190
252	30
253	60
254	20
255	150
256	30
257	90
258	110
259	30
260	10
267	80
268	20
269	80
270	20
271	30
272	70
273	20
281	170
282	30
283	60
284	20
285	60
286	10
295	60
296	30
297	140
298	30
299	30
300	10
307	10
309	40
310	10
311	40
312	10
322	10
323	30
325	9999
326	2712
327	721
328	110
329	10
339	30
340	951
341	310
342	80
343	20
