Mass Spectrum: 10-Undecenoic acid, picolinyl ester
Formula: C17 H25 N O2
Molecular weight: 275
Origin: NIST Mass Spectrometry Data Center
m/z	RELATIVE INTENSITY
15	10
26	30
27	310
28	150
29	571
30	10
31	10
32	10
37	10
38	90
39	1661
40	170
41	2953
42	651
43	731
44	30
45	50
49	10
50	90
51	280
52	190
53	631
54	500
55	3523
56	400
57	260
58	20
59	20
60	20
61	10
62	30
63	280
64	370
65	2632
66	250
67	681
68	190
69	741
70	100
71	160
72	10
76	10
77	80
78	280
79	310
80	420
81	711
82	110
83	390
84	120
85	100
86	10
87	10
89	10
90	20
91	661
92	9999
93	4834
94	490
95	280
96	40
97	130
98	110
99	40
100	10
101	10
102	10
104	20
105	90
106	240
107	230
108	5065
109	1752
110	591
111	70
112	30
113	20
114	10
115	10
116	10
117	50
118	180
119	140
120	160
121	220
122	170
123	210
124	30
125	20
126	10
127	20
128	10
130	50
131	140
132	210
133	1271
134	641
135	180
136	230
137	80
138	10
140	10
141	10
144	20
145	10
146	260
147	911
148	2652
149	430
150	110
151	1321
152	140
153	20
158	10
159	10
160	90
161	100
162	290
163	120
164	3443
165	520
166	60
167	20
168	10
172	10
173	10
174	90
175	30
176	180
177	450
178	1021
179	190
180	10
181	10
183	10
184	10
187	40
188	80
189	40
190	831
191	871
192	500
193	110
194	10
202	60
204	1792
205	340
206	380
207	70
208	10
216	80
217	10
218	851
219	180
220	571
221	110
222	10
230	40
231	20
232	1061
233	220
234	1101
235	170
236	30
246	1091
247	420
248	80
249	10
256	10
260	130
261	30
272	10
274	1001
275	500
276	80
277	10
