Mass Spectrum: N,9-bis(Trimethylsilyl)-6-[(trimethylsilyl)oxy]-9H-purin-2-amine
Formula: C14 H29 N5 O Si3
Molecular weight: 367
Origin: NIST Mass Spectrometry Data Center
m/z	RELATIVE INTENSITY
29	20
31	10
42	10
43	130
44	100
45	811
46	60
47	40
52	10
53	10
54	20
55	30
56	30
57	70
58	110
59	160
60	20
61	50
66	10
67	10
68	10
69	60
70	80
71	80
72	160
73	5725
74	540
75	440
76	30
77	10
78	10
79	10
81	10
82	10
83	20
84	290
85	120
86	70
87	30
88	10
89	10
94	10
95	20
96	20
97	20
98	100
99	550
100	290
101	60
102	30
103	30
104	10
105	20
106	10
107	10
108	10
109	10
110	40
111	100
112	30
113	50
114	30
115	70
116	40
117	80
118	20
119	20
122	10
123	20
124	40
125	50
126	30
127	30
128	50
129	20
130	170
131	360
132	160
133	100
134	20
135	10
136	20
137	10
138	30
139	40
140	40
141	110
142	60
143	60
144	40
145	10
146	10
147	821
148	140
149	70
150	20
151	30
152	40
153	30
154	30
155	70
156	60
157	130
158	280
159	60
160	30
161	10
163	10
164	10
165	20
166	110
167	50
169	100
170	30
171	370
172	110
173	110
174	20
175	10
176	10
177	10
178	10
179	20
180	190
181	80
182	70
183	30
184	20
185	10
186	10
187	20
188	10
189	10
190	110
191	20
192	10
193	10
194	20
195	20
196	20
197	30
198	60
199	20
200	10
204	10
205	10
206	20
207	10
208	30
209	20
210	20
211	10
212	10
213	10
214	10
215	10
220	10
221	40
222	60
223	50
224	20
225	10
226	10
234	10
235	10
236	10
237	70
238	280
239	90
240	40
241	10
248	20
249	10
250	10
251	30
252	30
253	30
254	30
255	10
256	10
262	180
263	50
264	711
265	170
266	90
267	70
268	30
269	10
276	10
277	30
278	260
279	130
280	150
281	40
282	10
292	10
293	180
294	210
295	90
296	30
297	10
309	10
310	10
311	10
322	20
323	30
324	10
325	20
326	10
336	150
337	50
338	30
339	10
350	30
352	9999
353	3313
354	1601
355	340
356	80
357	10
366	150
367	3223
368	1071
369	490
370	100
371	20
