Mass Spectrum: .gamma.-Linolenic acid, methyl ester
Formula: C19 H32 O2
Molecular weight: 292
Origin: NIST Mass Spectrometry Data Center
m/z	RELATIVE INTENSITY
15	90
26	10
27	440
28	90
29	1041
30	30
31	30
33	10
39	1001
40	190
41	4154
42	510
43	1571
44	60
45	150
50	40
51	220
52	190
53	1201
54	1471
55	4274
56	380
57	901
59	1882
60	80
61	40
62	10
63	70
64	30
65	1221
66	1471
67	8358
68	1241
69	1661
70	150
71	561
72	50
73	250
74	1161
75	90
77	3203
78	1732
79	9999
80	7237
81	5555
82	1231
83	841
84	591
85	971
86	70
87	1942
88	240
89	60
91	5235
92	1371
93	6005
94	3523
95	3843
96	1141
97	731
98	170
99	230
100	40
101	400
102	100
103	250
104	220
105	2042
106	1111
107	3083
108	1151
109	911
110	450
111	240
112	30
113	80
114	30
115	360
116	140
117	591
118	500
119	1141
120	1902
121	2362
122	711
123	661
124	250
125	80
126	20
127	140
128	90
129	340
130	220
131	591
132	140
133	931
134	571
135	1201
136	841
137	611
138	130
139	50
140	60
141	70
142	20
143	140
144	260
145	260
146	60
147	851
148	270
149	1081
150	1952
151	330
152	60
153	40
154	110
155	60
156	10
157	380
158	70
159	90
160	40
161	691
162	561
163	1251
164	440
165	110
166	40
167	40
168	70
169	20
171	230
172	40
173	60
174	40
175	721
176	170
177	460
178	180
179	50
180	60
181	80
182	40
183	10
185	80
186	20
187	30
188	10
189	230
190	60
191	170
192	50
193	60
194	961
195	180
196	30
199	10
201	10
203	80
204	40
205	40
206	40
207	120
208	110
209	30
210	10
213	10
215	10
216	10
217	30
218	80
219	30
221	140
222	130
223	20
224	20
225	10
231	20
232	20
233	10
235	160
236	40
237	10
238	60
239	10
242	10
243	140
244	30
245	10
249	60
250	20
251	30
252	10
260	30
261	30
262	10
263	30
264	10
292	721
293	150
294	20
