Mass Spectrum: 9-Decenoic acid, TBDMS derivative
Formula: C16 H32 O2 Si
Molecular weight: 284
Origin: NIST Mass Spectrometry Data Center
m/z	RELATIVE INTENSITY
15	10
26	10
27	160
28	80
29	360
30	10
31	20
39	470
40	90
41	1521
42	310
43	250
44	30
45	400
46	30
47	420
48	20
49	20
50	10
51	30
52	20
53	200
54	160
55	1381
56	210
57	470
58	240
59	410
60	120
61	260
62	20
63	10
65	40
66	20
67	581
68	70
69	300
70	40
71	30
72	200
73	2192
74	430
75	8057
76	721
77	490
78	30
79	310
80	40
81	360
82	40
83	190
84	40
85	160
86	150
87	80
88	70
89	30
90	10
91	90
92	30
93	651
94	60
95	60
96	10
97	60
98	50
99	240
100	50
101	220
102	60
103	60
104	10
105	330
106	40
107	260
108	60
109	90
110	10
111	50
112	10
113	30
114	100
115	601
116	611
117	871
118	120
119	80
120	10
121	10
123	20
124	10
125	20
127	50
129	2442
130	340
131	2432
132	260
133	200
134	30
135	180
136	20
137	10
139	10
141	50
142	20
143	140
144	20
145	230
146	30
147	20
151	20
152	10
153	40
154	10
155	70
156	20
157	130
158	30
159	60
160	10
165	10
167	50
168	10
169	30
170	10
171	290
172	50
173	40
174	10
175	10
181	30
182	10
183	30
185	410
186	70
187	80
188	10
189	10
191	10
197	20
199	70
200	10
201	10
209	160
210	30
211	90
212	20
213	10
215	10
225	20
227	9999
228	3303
229	651
230	50
241	10
243	10
269	490
270	110
271	20
283	10
284	10
285	10
