Mass Spectrum: (Trimethylsilyl)methyl octanoate
Formula: C12 H26 O2 Si
Molecular weight: 230
Origin: NIST Mass Spectrometry Data Center
m/z	RELATIVE INTENSITY
15	10
26	30
27	450
28	190
29	941
30	30
31	190
32	10
39	470
40	120
41	2122
42	721
43	2402
44	460
45	1321
46	100
47	150
48	10
50	10
51	30
52	20
53	200
55	4464
56	631
57	3743
58	831
59	2192
60	250
61	1501
62	100
63	60
65	30
66	20
67	290
68	120
69	1251
70	250
71	170
72	581
73	8818
74	911
75	1541
76	110
77	90
78	10
79	40
80	20
81	130
82	110
83	370
84	190
85	110
86	100
87	360
88	400
89	1611
90	150
91	100
92	10
93	30
95	30
97	350
98	310
99	70
100	20
101	390
102	40
103	1702
104	721
105	1661
106	180
107	80
108	20
109	410
110	40
111	80
112	10
113	40
114	20
115	210
116	711
117	260
118	50
119	10
125	60
126	50
127	1171
128	120
129	841
130	611
131	1872
132	230
133	100
134	10
141	10
143	1161
144	190
145	110
146	3333
147	410
148	150
149	10
155	10
157	220
159	9999
160	1651
161	490
162	50
171	110
173	1241
174	190
175	60
176	10
185	80
186	20
187	290
188	50
189	10
199	80
200	20
201	170
202	30
203	10
213	70
215	8658
216	1571
217	470
218	50
229	10
230	10
231	10
