Mass Spectrum: 3,4-Dimethoxyphenethylamine, TMS derivative
Formula: C13 H23 N O2 Si
Molecular weight: 253
Origin: NIST Mass Spectrometry Data Center
m/z	RELATIVE INTENSITY
15	20
27	10
28	20
29	40
30	20
31	40
38	10
39	110
40	10
41	20
42	30
43	240
44	160
45	500
46	40
47	20
50	30
51	160
52	70
53	70
54	20
55	70
56	70
57	80
58	390
59	701
60	80
61	40
62	20
63	80
64	50
65	330
66	70
67	40
68	20
69	30
70	50
71	40
72	330
73	6246
74	651
75	330
76	50
77	350
78	330
79	200
80	70
81	30
82	30
83	50
84	20
85	20
86	410
87	320
88	60
89	250
90	200
91	330
92	70
93	70
94	60
95	50
96	10
97	30
98	10
99	20
100	90
102	9999
103	1892
104	751
105	310
106	310
107	510
108	170
109	60
110	10
111	10
115	10
116	20
117	30
118	80
119	320
120	70
121	160
122	50
123	50
124	10
130	10
131	20
132	30
133	50
134	50
135	190
136	60
137	110
138	30
139	10
145	20
146	20
147	40
148	40
149	170
150	70
151	1411
152	1011
153	130
154	10
160	10
161	30
162	30
163	40
164	70
165	80
166	20
174	10
175	20
176	40
177	30
178	30
179	240
180	50
181	30
189	10
190	30
191	30
192	30
193	60
194	50
195	30
196	10
204	10
205	20
206	30
207	30
208	30
209	70
210	10
220	20
221	50
222	40
223	40
224	30
225	10
236	30
237	10
238	1101
239	220
240	60
241	10
251	10
252	30
253	160
254	50
255	10
