Mass Spectrum: .gamma.-Linolenic acid, 4,4-dimethyloxazoline (dmox) derivative
Formula: C22 H37 N O
Molecular weight: 331
Origin: NIST Mass Spectrometry Data Center
m/z	RELATIVE INTENSITY
15	10
26	10
27	240
28	80
29	641
30	50
31	20
39	440
40	110
41	2052
42	661
43	581
44	100
45	30
46	10
50	10
51	60
52	60
53	420
54	550
55	2212
56	430
57	400
58	210
59	30
60	10
63	20
65	370
66	260
67	1832
68	571
69	601
70	260
71	140
72	1041
73	220
74	20
77	891
78	300
79	1922
80	761
81	971
82	510
83	320
84	340
85	40
86	60
88	10
89	10
91	1271
92	210
93	791
94	300
95	500
96	310
97	300
98	1101
99	80
100	70
102	20
103	80
104	50
105	460
106	140
107	320
108	190
109	230
110	420
111	120
112	1391
113	4904
114	480
115	120
116	60
117	190
118	60
119	200
120	180
121	160
122	240
123	90
124	120
126	9999
127	2993
128	270
129	90
130	30
131	150
132	90
133	120
134	140
135	80
136	160
137	190
138	130
139	460
140	601
141	80
142	20
143	30
144	20
145	50
146	70
147	60
148	130
149	40
150	500
151	100
152	961
153	460
154	110
155	20
156	10
157	10
158	10
159	20
160	70
161	60
162	60
163	40
164	220
165	90
166	1581
167	1902
168	320
169	30
170	10
171	10
172	10
173	10
174	60
175	40
176	60
177	30
178	210
179	180
180	2112
181	611
182	150
183	20
184	10
185	10
186	10
187	10
188	40
189	10
190	70
191	30
192	290
193	110
194	821
195	130
196	30
202	20
203	10
204	80
205	40
206	550
207	230
208	100
209	20
210	10
216	10
217	10
218	100
220	1772
221	460
222	110
223	20
224	10
230	10
231	10
232	130
233	120
234	470
235	90
236	40
237	10
244	10
246	320
247	90
248	80
249	30
250	20
251	20
252	20
258	20
259	20
260	410
261	100
262	80
263	30
264	30
265	10
272	10
274	1451
275	310
276	120
277	60
278	10
286	10
288	430
289	100
290	80
291	20
300	10
302	180
303	50
304	10
316	300
317	80
318	10
330	340
331	751
332	220
333	30
