Mass Spectrum: 3,5-Dichlorophenol, TBDMS derivative
Formula: C12 H18 Cl2 O Si
Molecular weight: 276
Origin: NIST Mass Spectrometry Data Center
m/z	RELATIVE INTENSITY
15	10
27	80
28	30
29	300
30	10
31	20
37	10
38	20
39	240
40	40
41	601
42	120
43	280
44	30
45	250
46	20
47	80
50	50
51	80
52	10
53	150
54	20
55	100
56	70
57	591
58	170
59	280
60	50
61	50
62	80
63	721
64	50
65	190
66	40
67	80
68	10
69	30
70	10
71	10
72	30
73	731
74	220
75	450
76	40
77	240
78	60
79	120
80	20
81	40
83	40
84	40
85	60
86	20
87	30
88	10
89	140
90	40
91	280
93	1591
94	130
95	651
96	60
97	100
98	40
99	130
100	20
101	40
102	20
103	120
104	20
105	80
106	10
107	20
108	10
109	330
110	160
111	180
112	40
113	1161
114	90
115	831
116	60
117	200
118	10
119	70
120	10
121	30
123	110
124	40
125	250
126	50
127	180
128	30
129	90
130	10
131	30
132	10
133	60
134	10
135	40
136	10
137	60
138	10
139	60
140	20
141	50
142	10
143	20
145	410
146	90
147	320
148	170
149	160
150	30
151	40
153	20
154	30
155	310
156	50
157	120
158	20
159	90
160	20
161	70
162	20
163	40
164	10
165	30
166	10
167	30
168	20
169	390
170	90
171	150
172	30
173	10
175	20
176	10
177	10
181	30
182	20
183	160
184	280
185	130
186	100
187	30
189	390
190	50
191	320
192	40
193	90
194	10
195	10
201	10
202	10
203	90
204	30
205	340
206	50
207	200
208	30
209	40
210	10
215	10
216	10
217	40
219	9999
220	2542
221	7397
222	1672
223	1541
224	300
225	70
226	10
241	10
245	10
247	10
261	70
262	10
263	50
264	10
265	10
276	1361
277	270
278	941
279	170
280	180
281	30
282	10
