Mass Spectrum: (Trimethylsilyl)methyl heptanoate
Formula: C11 H24 O2 Si
Molecular weight: 216
Origin: NIST Mass Spectrometry Data Center
m/z	RELATIVE INTENSITY
15	20
26	40
27	540
28	250
29	951
30	40
31	220
32	10
33	10
39	530
40	120
41	1982
42	711
43	4524
44	611
45	1551
46	110
47	170
48	10
49	10
50	10
51	30
52	20
53	210
55	4384
56	701
57	911
58	811
59	2262
60	270
61	1822
62	120
63	70
65	20
66	10
67	120
68	240
69	1411
70	220
71	130
72	681
73	9999
74	1031
75	1702
76	120
77	90
78	10
79	20
81	60
82	20
83	210
84	240
85	1111
86	170
87	350
88	450
89	1942
90	180
91	110
92	10
93	10
94	40
95	320
96	30
97	120
98	10
99	60
100	20
101	430
102	60
103	1732
104	721
105	1832
106	190
107	80
109	10
111	80
112	130
113	1401
114	130
115	230
116	711
117	260
118	50
119	20
127	10
129	861
130	611
131	1702
132	210
133	90
134	10
143	991
144	170
145	100
146	2893
147	350
148	130
149	10
155	10
157	220
159	9048
160	1511
161	440
162	40
171	140
173	1722
174	260
175	80
176	10
185	60
186	10
187	100
188	20
199	40
201	8638
202	1511
203	470
204	50
216	10
217	10
