Mass Spectrum: Citronellic acid, TMS derivative
Formula: C13 H26 O2 Si
Molecular weight: 242
Origin: NIST Mass Spectrometry Data Center
m/z	RELATIVE INTENSITY
15	20
26	10
27	260
28	60
29	310
30	10
31	20
37	10
39	821
40	210
41	4064
42	500
43	881
44	230
45	1331
46	110
47	791
48	40
49	30
50	30
51	120
52	70
53	831
54	200
55	1802
56	330
57	180
58	280
59	611
60	160
61	741
62	60
63	50
64	10
65	200
66	90
67	1561
68	571
69	5145
70	1251
71	160
72	1021
73	9979
74	1191
75	8027
76	611
77	571
78	70
79	430
80	170
81	1161
82	2893
83	550
84	70
85	150
86	30
87	40
88	250
89	180
90	70
91	320
92	130
93	991
94	3353
95	2642
96	701
97	280
98	60
99	390
100	60
101	510
102	60
103	140
104	10
105	180
106	80
107	631
108	330
109	4464
110	5045
111	561
112	50
113	180
114	30
115	380
116	1902
117	9999
118	1091
119	911
120	80
121	170
122	30
123	420
124	280
125	70
126	20
127	90
128	150
129	1371
130	180
131	130
132	641
133	230
134	290
135	440
136	50
137	691
138	70
139	20
141	60
142	130
143	2492
144	400
145	1271
146	160
147	70
148	10
149	10
152	5045
153	611
154	50
155	110
156	120
157	150
158	30
159	651
160	150
161	40
162	10
165	30
166	10
167	30
169	3073
170	480
171	410
172	110
173	300
174	50
175	10
181	10
183	100
184	40
185	140
186	110
187	110
188	20
189	10
197	10
198	20
199	210
200	40
201	10
209	300
210	60
211	70
212	10
213	10
225	10
227	1902
228	360
229	100
230	10
242	450
243	110
244	30
245	10
