Mass Spectrum: cis-6-Octadecenoic acid, picolinyl ester
Formula: C24 H39 N O2
Molecular weight: 373
Origin: NIST Mass Spectrometry Data Center
m/z	RELATIVE INTENSITY
26	20
27	190
29	561
31	10
38	40
39	801
40	120
41	2272
42	400
43	2652
44	140
45	40
49	10
50	50
51	100
52	110
53	450
54	781
55	3213
56	420
57	1541
58	110
59	20
60	70
62	20
63	140
64	160
65	1581
66	180
67	1501
68	310
69	1621
70	210
71	561
73	70
75	10
77	150
78	180
79	631
80	550
81	1451
82	230
83	1441
84	200
85	440
86	30
87	30
90	10
91	440
92	7947
93	9999
94	1031
95	991
96	140
97	1041
98	140
99	110
101	70
102	20
104	10
105	110
106	150
107	270
108	4774
109	2642
110	801
111	480
112	80
113	100
115	40
116	20
117	20
118	50
119	210
120	80
121	170
122	40
123	360
124	50
125	200
126	50
127	110
129	30
130	60
131	40
132	40
133	270
134	80
135	140
136	40
137	200
138	40
139	60
140	30
141	50
142	20
143	10
144	40
145	10
146	40
147	140
148	130
149	90
151	2352
152	340
153	50
154	20
155	30
156	10
157	10
158	10
159	10
160	10
161	60
162	20
163	80
164	1651
165	290
166	30
167	20
168	20
169	20
170	10
172	10
174	20
175	40
176	10
177	10
178	320
179	260
180	40
181	30
184	10
185	10
186	10
187	10
188	10
189	10
190	60
191	20
192	100
193	50
194	20
195	20
197	10
198	10
202	10
203	10
204	80
205	50
206	120
207	50
208	20
212	30
214	10
215	10
216	20
218	400
219	160
220	60
221	40
228	40
229	10
230	20
231	10
232	360
233	150
234	50
235	20
239	10
242	10
245	40
246	1762
247	330
248	60
258	10
260	210
261	30
262	20
263	40
265	10
272	20
274	180
275	60
276	10
285	10
288	200
289	60
290	20
300	10
301	10
302	200
303	50
305	10
314	10
316	130
317	50
318	10
329	10
330	160
331	30
332	10
344	130
345	70
346	10
358	60
359	20
372	180
373	821
374	210
375	40
376	10
