Mass Spectrum: 6-Amino-1-hexanol, TMS derivative
Formula: C9 H23 N O Si
Molecular weight: 189
Origin: NIST Mass Spectrometry Data Center
m/z	RELATIVE INTENSITY
15	40
17	10
18	140
26	20
27	230
28	500
29	430
30	8768
31	240
32	10
38	10
39	380
40	70
41	1331
42	1261
43	1561
44	1672
45	3924
46	270
47	1071
48	50
49	40
50	10
51	30
52	20
53	250
54	460
55	3513
56	6456
57	701
58	991
59	1882
60	460
61	1732
62	130
63	70
64	10
65	40
66	30
67	691
68	120
69	671
70	1712
71	410
72	1001
73	9018
74	3473
75	9999
76	1041
77	420
78	30
79	170
80	30
81	621
82	2062
83	410
84	140
85	300
86	2572
87	581
88	601
89	530
90	280
91	2783
92	450
93	130
94	20
95	20
96	40
97	180
98	1241
99	2182
100	1021
101	2142
102	921
103	1712
104	2202
105	250
106	80
109	10
110	10
111	70
112	30
113	120
114	100
115	320
116	240
117	350
118	170
119	30
120	20
123	10
125	10
126	10
127	450
128	120
129	1391
130	500
131	210
132	90
133	10
139	10
140	30
141	40
142	20
143	270
144	80
145	1341
146	180
147	60
148	10
154	40
156	1401
157	1972
158	350
159	150
160	40
161	10
170	20
171	10
172	190
174	4204
175	581
176	170
177	10
188	30
189	140
190	50
191	10
