Mass Spectrum: 2-Amino-4-nitrophenol, N,O-bis(methyl)-
Formula: C8 H10 N2 O3
Molecular weight: 182
Origin: NIST Mass Spectrometry Data Center
m/z	RELATIVE INTENSITY
14	10
15	180
18	20
25	10
26	60
27	150
28	200
29	80
30	510
31	30
36	10
37	90
38	240
39	691
40	150
41	370
42	3103
43	200
44	871
45	110
46	190
49	50
50	591
51	1651
52	1722
53	1121
54	330
55	771
56	200
57	20
58	190
59	10
61	170
62	440
63	991
64	520
65	1341
66	901
67	1101
68	290
69	80
70	40
71	10
72	190
73	30
74	110
75	130
76	240
77	811
78	751
79	2272
80	871
81	581
82	280
83	30
84	20
85	10
86	10
87	20
88	30
89	40
90	230
91	450
92	1281
93	1972
94	490
95	961
96	110
97	10
98	10
102	20
103	20
104	80
105	70
106	681
107	1161
108	1071
109	1241
110	130
111	10
116	20
117	40
118	80
119	130
120	701
121	1071
122	260
123	100
124	230
125	10
127	20
128	30
132	10
133	140
134	310
135	2402
136	891
137	280
138	30
139	20
140	10
149	20
150	20
151	30
152	140
153	10
162	10
163	10
164	10
165	80
166	110
167	981
168	80
169	10
179	150
181	4214
182	9999
183	931
184	100
