Mass Spectrum: Eicosapentaenoic Acid, TBDMS derivative
Formula: C26 H44 O2 Si
Molecular weight: 416
Origin: NIST Mass Spectrometry Data Center
m/z	RELATIVE INTENSITY
26	10
27	90
29	180
30	10
31	10
38	10
39	280
40	60
41	1371
42	80
43	250
44	10
45	220
46	20
47	260
48	10
49	10
50	20
51	80
52	60
53	440
54	220
55	1852
56	140
57	470
58	170
59	490
60	100
61	220
62	20
63	40
64	10
65	480
66	510
67	3003
68	260
69	611
70	130
71	70
72	190
73	5225
74	601
75	9999
76	751
77	1772
78	771
79	4404
80	1211
81	1321
82	270
83	190
84	50
85	170
86	170
87	70
88	50
89	70
91	3563
92	761
93	2532
94	801
95	1331
96	150
97	140
98	40
99	250
100	50
101	160
102	60
103	290
104	250
105	2142
106	971
107	1201
108	1491
109	571
110	50
111	70
112	20
113	70
114	110
115	691
116	601
117	2102
118	420
119	2032
120	520
121	691
122	250
123	140
124	30
125	60
126	10
127	90
128	160
129	3033
130	490
131	1962
132	370
133	1221
134	380
135	550
136	110
137	70
138	20
139	90
140	20
141	360
142	160
143	480
144	120
145	941
146	280
147	721
148	420
149	260
150	40
151	160
152	40
153	100
154	30
155	470
156	130
157	781
158	170
159	801
160	210
161	460
162	210
163	100
164	20
165	110
166	20
167	130
168	50
169	581
170	150
171	1221
172	200
173	510
174	160
175	591
176	130
177	50
178	10
179	60
180	10
181	150
182	60
183	480
184	90
185	500
186	100
187	360
188	120
189	110
190	20
191	40
192	10
193	40
194	10
195	130
196	40
197	530
198	120
199	230
200	50
201	340
202	80
203	40
204	10
205	50
206	10
207	40
208	10
209	120
210	40
211	240
212	50
213	90
214	20
215	220
216	40
217	30
218	10
219	30
220	10
221	50
222	30
223	510
224	100
225	130
226	30
227	40
228	10
229	40
230	10
231	20
233	20
234	10
235	80
236	20
237	180
238	40
239	70
240	20
241	80
242	40
243	40
244	10
245	10
247	20
248	10
249	70
250	20
251	120
252	20
253	20
255	30
256	10
257	20
259	10
261	30
262	10
263	110
264	20
265	50
266	10
267	130
268	30
269	20
275	50
276	10
277	120
278	30
279	70
280	50
281	30
282	10
283	10
284	10
285	10
289	40
290	20
291	40
292	10
293	30
294	10
303	50
304	10
305	30
306	10
307	10
308	10
317	20
318	10
319	10
320	40
321	20
323	10
331	30
332	10
333	20
334	20
335	10
336	10
341	20
342	10
343	10
345	10
347	60
348	50
349	10
357	10
359	631
360	190
361	60
362	20
363	10
373	10
374	10
375	10
387	20
388	10
401	60
402	20
403	10
416	30
417	10
