Mass Spectrum: 3-Aminopropanol, TBDMS derivative
Formula: C9 H23 N O Si
Molecular weight: 189
Origin: NIST Mass Spectrometry Data Center
m/z	RELATIVE INTENSITY
15	20
18	20
26	10
27	140
28	270
29	410
30	1812
31	90
38	10
39	310
40	50
41	801
42	200
43	490
44	180
45	901
46	100
47	540
48	30
49	20
51	10
52	10
53	50
54	50
55	130
56	1011
57	1341
58	811
59	2102
60	390
61	540
62	50
63	20
65	30
67	20
68	10
69	20
70	40
71	70
72	250
73	1802
74	4584
75	5085
76	611
77	200
78	10
81	10
82	10
83	30
84	20
85	230
86	240
87	671
88	210
89	2863
90	340
91	110
92	10
96	10
97	20
98	120
99	270
100	400
101	300
102	320
104	7877
105	801
106	340
107	10
112	30
114	1001
115	791
116	921
117	170
118	50
128	20
129	20
130	90
132	9999
133	1571
134	571
135	30
142	20
143	10
144	10
145	10
146	170
147	20
148	10
156	10
157	10
158	10
159	20
160	10
172	60
174	571
175	80
176	30
188	10
190	60
191	10
