Mass Spectrum: 7-Methylxanthine, 2TMS derivative
Formula: C12 H22 N4 O2 Si2
Molecular weight: 310
Origin: NIST Mass Spectrometry Data Center
m/z	RELATIVE INTENSITY
15	30
27	10
28	10
29	70
30	10
31	30
40	10
41	40
42	220
43	561
44	280
45	1832
46	130
47	120
49	10
51	10
52	50
53	40
54	120
55	130
56	200
57	210
58	320
59	440
60	50
61	90
62	10
64	10
65	10
66	150
67	320
68	100
69	80
70	561
71	110
72	490
73	6986
74	641
75	691
76	40
77	30
78	10
79	40
80	30
81	40
82	30
83	80
84	1762
85	260
86	310
87	80
88	30
89	30
90	10
91	10
92	20
93	90
94	50
95	190
96	70
97	60
98	220
99	170
100	1191
101	150
102	80
103	90
104	20
105	40
106	20
107	40
108	20
109	60
110	60
111	440
112	90
113	80
114	60
115	100
116	30
117	140
118	20
119	40
120	80
121	20
122	20
124	80
125	1091
126	160
127	100
128	40
129	20
130	30
131	520
132	130
133	330
134	50
135	40
136	120
137	50
138	40
139	110
140	801
142	60
143	30
144	30
145	10
147	3573
148	641
149	420
150	160
151	90
152	220
153	50
154	30
155	20
156	20
157	30
158	160
159	40
160	20
161	10
162	10
163	280
164	90
165	30
166	30
167	50
168	20
169	70
170	20
171	10
172	40
173	20
174	40
175	10
176	10
177	10
178	40
179	40
180	1331
181	200
182	80
183	30
184	20
185	20
186	10
191	10
192	10
193	20
194	50
195	30
196	20
197	20
198	10
199	20
205	10
207	300
208	50
209	30
210	30
211	10
212	10
219	40
220	20
221	500
222	220
223	200
224	50
225	10
226	10
227	10
235	40
236	60
237	240
238	70
239	30
240	10
241	10
250	10
251	30
252	30
253	90
254	60
255	20
256	10
265	30
266	20
267	20
268	20
269	10
277	20
278	10
279	50
280	20
281	20
282	10
283	10
290	10
291	10
293	140
295	9999
296	2422
297	1031
298	180
299	30
307	10
309	1211
310	3613
311	961
312	340
313	60
314	10
