Mass Spectrum: D-(-)-Quinic acid, tetramethyl ether, methyl ester
Formula: C12 H22 O6
Molecular weight: 262
Origin: NIST Mass Spectrometry Data Center
m/z	RELATIVE INTENSITY
15	330
16	10
26	10
27	260
28	120
29	681
30	40
31	210
32	10
33	80
38	20
39	420
40	130
41	1041
42	300
43	611
44	70
45	2682
46	50
47	510
48	10
50	20
51	90
52	60
53	571
54	130
55	1031
56	200
57	1641
58	330
59	961
60	30
61	30
62	10
63	30
64	10
65	190
66	120
67	180
68	160
69	300
70	70
71	1231
72	130
73	1141
75	8568
76	280
77	240
78	80
79	150
80	40
81	220
82	110
83	1852
84	190
85	1421
86	100
87	70
88	3213
89	550
90	40
91	50
92	30
93	50
94	100
95	310
96	130
97	320
98	230
99	350
100	90
101	1201
102	80
103	20
104	10
105	50
106	10
107	70
108	250
109	530
110	70
111	350
112	80
113	250
114	520
115	1872
116	150
117	30
118	10
119	40
121	20
122	40
123	210
124	300
125	180
126	180
127	460
128	270
129	230
130	20
131	240
133	811
134	40
135	100
136	30
137	20
139	5555
140	520
141	240
142	60
143	150
144	20
145	200
146	30
151	20
152	10
153	40
154	10
155	110
156	30
157	170
158	20
159	510
160	901
161	80
162	10
165	20
166	80
167	370
168	90
169	40
171	9999
172	2252
173	220
174	20
183	280
184	20
185	20
187	10
189	20
191	10
198	1251
199	230
200	40
201	10
203	2562
204	270
205	30
215	40
230	90
231	10
247	10
262	20
