Mass Spectrum: Citronellic acid, picolinyl ester
Formula: C16 H23 N O2
Molecular weight: 261
Origin: NIST Mass Spectrometry Data Center
m/z	RELATIVE INTENSITY
15	10
26	20
27	260
28	70
29	240
30	10
31	10
37	20
38	110
39	1641
40	240
41	3853
42	430
43	651
44	20
45	80
46	10
49	10
50	120
51	410
52	250
53	901
54	180
55	1561
56	360
57	140
58	10
59	100
60	10
61	10
62	50
63	340
64	360
65	2913
66	300
67	1511
68	370
69	8338
70	561
71	961
72	50
73	30
75	10
76	10
77	170
78	390
79	420
80	420
81	631
82	400
83	220
84	30
85	230
86	10
87	10
89	10
90	30
91	561
92	7106
93	9999
94	891
95	460
96	50
97	70
98	10
99	60
100	10
101	90
102	10
103	10
104	20
105	50
106	210
107	360
108	6516
109	7687
110	1191
111	130
113	961
114	70
115	40
117	20
118	30
120	40
121	50
122	10
123	450
124	50
125	30
127	100
128	10
130	20
131	20
132	30
133	60
134	30
135	60
136	20
137	20
139	10
144	20
145	10
146	40
148	20
149	10
151	2843
152	310
153	60
154	10
158	10
159	10
160	20
161	10
164	80
165	10
169	110
170	10
172	10
174	10
176	10
178	2963
179	420
180	40
186	10
190	20
192	1131
193	190
194	20
200	30
204	70
205	30
216	10
218	30
219	10
220	10
228	10
242	10
246	300
247	50
248	10
258	10
260	60
261	1161
262	310
263	40
