Mass Spectrum: Methylmaleic acid, 2TBDMS derivative
Formula: C17 H34 O4 Si2
Molecular weight: 358
Origin: NIST Mass Spectrometry Data Center
m/z	RELATIVE INTENSITY
27	30
28	20
29	210
30	10
31	10
38	10
39	170
40	130
41	581
42	40
43	130
44	20
45	330
46	20
47	210
48	10
49	10
51	10
52	10
53	40
54	10
55	80
56	110
57	1001
58	220
59	470
60	80
61	110
62	10
65	10
66	40
67	290
68	440
69	240
70	20
71	40
73	5105
74	530
75	1792
76	130
77	80
78	10
79	10
81	20
82	30
83	280
84	30
85	110
86	20
87	20
89	10
91	10
93	10
95	30
96	110
97	460
98	510
99	320
100	70
101	40
102	10
103	40
104	10
105	20
107	10
109	10
111	20
112	10
113	60
114	10
115	230
116	30
117	190
118	30
119	80
120	10
122	210
125	20
126	10
127	220
128	80
129	40
130	10
131	60
132	150
133	801
134	120
135	90
136	10
137	10
139	10
141	230
142	430
143	150
144	30
145	20
147	2032
148	320
149	320
150	40
151	20
155	10
156	10
157	180
158	30
159	60
160	10
161	10
162	10
169	210
170	220
171	80
172	20
173	60
174	10
175	10
176	30
177	10
183	10
184	10
185	20
187	140
188	20
189	20
197	10
199	30
200	10
201	30
202	10
203	10
211	10
212	10
215	40
216	20
217	20
226	20
227	100
228	20
229	10
231	10
241	20
243	10
244	100
245	20
246	10
257	20
258	10
259	80
260	20
261	10
273	210
274	50
275	20
285	10
286	20
287	10
301	9999
302	4134
303	1772
304	300
305	60
306	10
327	10
343	581
344	160
345	60
346	10
357	10
