Mass Spectrum: 2-Decanol, methyl ether
Formula: C11 H24 O
Molecular weight: 172
Origin: NIST Mass Spectrometry Data Center
m/z	RELATIVE INTENSITY
15	20
26	10
27	200
28	70
29	530
30	10
31	250
33	20
38	10
39	240
40	50
41	991
42	270
43	681
44	20
45	290
46	10
51	10
52	10
53	90
54	60
55	771
56	270
57	310
58	330
59	9999
60	350
61	30
65	20
66	10
67	70
68	30
69	540
70	140
71	220
72	40
73	10
77	10
79	20
81	30
82	30
83	300
84	60
85	90
86	10
95	10
96	20
97	90
98	40
99	10
101	10
110	10
111	50
112	40
115	10
125	10
140	290
141	30
157	150
158	20
171	10
