Mass Spectrum: L-Kynurenine, TMS derivative
Formula: C13 H20 N2 O3 Si
Molecular weight: 280
Origin: NIST Mass Spectrometry Data Center
m/z	RELATIVE INTENSITY
15	10
27	20
28	70
29	30
30	20
31	10
38	20
39	180
40	20
41	70
42	240
43	340
44	100
45	490
46	50
47	220
48	10
49	10
50	20
51	50
52	90
53	40
54	30
55	40
56	10
57	30
58	60
59	100
60	50
61	120
62	30
63	100
64	120
65	1251
66	180
67	20
68	10
69	10
70	120
71	10
72	40
73	1101
74	220
75	1041
76	120
77	140
78	40
79	30
80	10
83	10
84	10
85	10
86	40
87	50
88	20
89	80
90	90
91	270
92	1832
93	370
94	50
98	10
99	10
100	20
101	20
102	30
103	30
104	40
105	20
106	100
107	20
108	10
110	10
114	10
115	10
116	50
117	180
118	200
119	260
120	9999
121	811
122	60
124	10
128	40
129	30
130	571
131	90
132	60
133	50
134	50
135	270
136	350
137	30
143	10
144	110
145	220
146	971
147	130
148	40
149	10
150	40
151	10
152	10
158	10
159	60
160	90
161	200
162	70
163	2542
164	290
165	20
172	10
173	100
174	60
175	10
176	40
177	10
178	20
186	10
187	20
188	10
189	10
190	200
191	30
192	300
193	50
194	100
195	20
202	40
203	10
204	10
205	10
206	10
217	10
218	30
219	30
220	20
247	140
248	80
249	20
262	10
263	60
264	10
265	10
280	290
281	60
282	20
