Mass Spectrum: 3-Hydroxyhex-2-enedioic acid, trimethylsilyl ether, bis(trimethylsilyl) ester
Formula: C15 H32 O5 Si3
Molecular weight: 376
Origin: NIST Mass Spectrometry Data Center
m/z	RELATIVE INTENSITY
15	10
27	20
29	20
31	10
39	30
41	20
42	20
43	200
44	160
45	1111
46	80
47	230
48	10
49	10
51	30
52	40
53	200
54	20
55	510
56	60
57	80
58	120
59	240
60	50
61	210
62	10
63	10
65	30
66	50
67	90
68	50
69	430
70	60
71	60
72	390
73	9999
74	941
75	2442
76	170
77	110
78	10
79	90
80	30
81	110
82	30
83	60
84	10
85	110
86	70
87	50
88	40
89	60
90	10
91	10
93	10
94	10
95	40
96	40
97	540
98	60
99	400
100	40
101	110
102	20
103	60
104	10
105	40
106	10
107	20
109	40
110	10
111	80
112	30
113	100
114	20
115	100
116	120
117	170
118	30
119	90
120	10
121	10
123	30
124	50
125	1301
126	160
127	240
128	70
129	220
130	130
131	410
132	80
133	1211
134	170
135	170
136	20
137	20
138	10
139	40
140	140
141	270
142	90
143	240
144	30
145	30
147	6075
148	971
149	1231
150	160
151	120
152	20
153	120
154	60
155	460
156	100
157	90
158	10
159	30
160	10
161	20
162	20
163	561
164	90
165	50
166	10
167	60
168	300
169	7327
170	1111
171	430
172	60
173	270
174	40
175	30
176	10
177	10
181	10
183	30
184	10
185	20
186	10
187	20
188	10
189	40
190	60
191	50
192	10
193	10
195	10
196	60
197	90
198	20
199	270
200	40
201	90
202	20
203	30
204	170
205	60
206	20
207	70
208	20
209	10
211	10
213	20
214	10
215	140
216	30
217	260
218	70
219	30
220	10
221	80
222	20
223	10
225	10
226	10
227	90
228	30
229	100
230	20
231	2392
232	480
233	230
234	30
235	10
241	100
242	190
243	1381
244	350
245	180
246	30
247	10
255	10
257	150
258	180
259	951
260	220
261	90
262	10
269	10
271	220
272	50
273	100
274	20
275	10
286	1842
287	500
288	200
289	40
290	10
303	40
304	10
305	10
317	1191
318	350
319	170
320	30
321	10
331	10
332	30
333	20
334	10
359	10
361	4014
362	1241
363	631
364	130
365	30
375	10
376	530
377	170
378	80
379	20
