Mass Spectrum: 3-Aminopropanol, TMS derivative
Formula: C6 H17 N O Si
Molecular weight: 147
Origin: NIST Mass Spectrometry Data Center
m/z	RELATIVE INTENSITY
15	60
17	10
18	50
26	30
27	130
28	480
29	280
30	3363
31	170
38	10
39	120
40	20
41	230
42	370
43	1081
44	651
45	2152
46	210
47	881
48	40
49	20
50	10
52	10
53	80
54	100
55	220
56	5385
57	9999
58	1121
59	2702
60	611
61	1001
62	80
63	30
65	80
67	10
68	10
69	20
70	90
71	120
72	440
73	5305
74	5175
75	8257
76	841
77	310
78	10
82	10
83	10
84	10
85	601
86	280
87	631
88	210
89	2752
90	761
91	180
92	30
93	10
96	10
97	20
98	110
99	250
100	370
101	470
102	340
103	801
104	4424
105	420
106	170
107	10
112	30
113	30
114	550
115	5005
116	931
117	360
118	190
119	20
120	10
128	20
130	4794
131	581
132	2322
133	250
134	90
135	10
144	40
145	10
146	20
147	20
148	70
149	10
