Mass Spectrum: 10-Undecynoic acid, 4,4-dimethyloxazoline (dmox) derivative
Formula: C15 H25 N O
Molecular weight: 235
Origin: NIST Mass Spectrometry Data Center
m/z	RELATIVE INTENSITY
15	10
26	10
27	170
28	70
29	290
30	40
31	10
37	10
38	20
39	470
40	160
41	1221
42	520
43	270
44	100
45	20
50	20
51	80
52	60
53	390
54	450
55	1561
56	340
57	320
58	450
59	20
60	10
63	10
64	10
65	130
66	70
67	510
68	550
69	430
70	220
71	120
72	460
73	100
74	10
77	140
78	30
79	330
80	110
81	490
82	480
83	420
84	250
85	30
86	40
91	150
92	30
93	160
94	140
95	250
96	450
97	280
98	1331
99	90
100	40
103	10
105	80
106	30
107	90
108	100
109	100
110	390
111	70
113	9999
114	841
115	60
117	20
118	10
119	50
120	70
121	70
122	120
123	50
124	160
126	2152
127	561
128	50
129	10
130	10
131	10
132	10
133	30
134	90
135	40
136	70
137	20
138	100
139	70
140	731
141	70
142	10
145	10
146	10
147	10
148	90
149	20
150	60
151	30
152	220
153	70
154	420
155	50
160	10
162	60
163	10
164	40
165	20
166	180
167	30
168	230
169	30
176	20
178	50
179	30
180	60
181	10
182	40
183	10
190	50
191	10
192	130
193	40
194	40
196	320
197	40
204	10
206	70
207	20
220	500
221	80
222	10
234	60
235	20
236	10
