Mass Spectrum: 5-Hydroxyindole, N-methyl-, methyl ether
Formula: C10 H11 N O
Molecular weight: 161
Origin: NIST Mass Spectrometry Data Center
m/z	RELATIVE INTENSITY
14	10
15	230
26	30
27	50
28	50
29	60
30	20
31	10
37	50
38	130
39	330
40	60
41	170
42	250
43	20
49	40
50	561
51	791
52	280
53	110
54	40
55	20
57	10
58	10
59	10
60	10
61	130
62	430
63	761
64	270
65	731
66	220
67	60
68	10
73	40
74	270
75	380
76	871
77	951
78	240
79	50
80	270
84	10
85	50
86	120
87	190
88	220
89	931
90	701
91	1191
92	250
93	20
97	10
98	40
99	30
100	20
101	110
102	390
103	871
104	110
105	20
111	10
112	10
114	120
115	130
116	440
117	2332
118	9739
119	1041
120	50
127	10
128	200
129	120
130	500
131	170
132	160
133	20
144	40
146	9629
147	1001
148	70
158	30
159	20
161	9999
162	1141
163	80
