Mass Spectrum: (S)-(-)-Citronellic acid, TMS derivative
Formula: C13 H26 O2 Si
Molecular weight: 242
Origin: NIST Mass Spectrometry Data Center
m/z	RELATIVE INTENSITY
15	40
27	470
28	120
29	530
30	20
31	40
37	10
39	1211
40	330
41	5525
42	691
43	1111
44	270
45	1672
46	130
47	961
48	50
49	30
50	40
51	160
52	100
53	991
54	260
55	2152
56	440
57	210
58	310
59	671
60	210
61	771
62	60
63	60
64	20
65	250
66	120
67	1902
68	751
69	5945
70	1361
71	190
72	1291
73	9879
74	1351
75	8558
76	691
77	651
78	90
79	510
80	190
81	1311
82	3153
83	631
84	80
85	190
86	30
87	70
88	300
89	210
90	80
91	360
92	150
93	1131
94	3623
95	2943
96	781
97	320
98	80
99	460
100	80
101	641
102	70
103	150
104	20
105	200
106	80
107	721
108	380
109	4914
110	5505
111	631
112	60
113	220
114	30
115	460
116	2452
117	9999
118	1171
119	1001
120	90
121	190
122	40
123	490
124	320
125	90
126	20
127	50
128	60
129	1631
130	210
131	160
132	781
133	270
134	350
135	561
136	70
137	821
138	80
139	20
141	70
142	180
143	3013
144	480
145	1551
146	200
147	90
148	10
149	10
152	6146
153	761
154	60
155	130
156	150
157	190
158	50
159	841
160	190
161	50
162	10
165	40
166	10
167	40
169	3883
170	631
171	530
172	140
173	400
174	60
175	20
179	10
181	20
182	10
183	150
184	60
185	190
186	160
187	170
188	30
189	10
191	10
193	10
197	20
198	30
199	320
200	50
201	20
209	460
210	90
211	110
212	20
213	20
225	10
227	3143
228	591
229	170
230	20
242	801
243	220
244	60
245	10
