Mass Spectrum: (Trimethylsilyl)methyl undecanoate
Formula: C15 H32 O2 Si
Molecular weight: 272
Origin: NIST Mass Spectrometry Data Center
m/z	RELATIVE INTENSITY
15	10
26	10
27	230
28	100
29	601
30	20
31	90
39	280
41	1822
42	520
43	2412
44	300
45	781
46	60
47	80
51	10
52	10
53	160
54	160
55	3663
56	591
57	1551
58	480
59	1812
60	190
61	961
62	60
63	40
65	30
66	20
67	290
68	160
69	1311
70	250
71	591
72	420
73	6476
74	681
75	1231
76	90
77	80
78	10
79	110
80	20
81	350
82	90
83	530
84	260
85	611
86	140
87	410
88	280
89	991
90	90
91	80
92	10
93	70
95	681
96	90
97	410
98	320
99	120
100	30
101	270
102	60
103	1501
104	601
105	1311
106	140
107	130
108	10
109	240
110	30
111	200
112	140
113	50
114	20
115	160
116	651
117	220
118	40
119	10
121	70
122	10
123	10
124	20
125	120
126	30
127	20
129	651
130	711
131	2082
132	250
133	110
134	10
135	20
139	40
140	10
141	10
143	1441
144	220
145	110
146	4474
147	561
148	200
149	30
151	90
152	10
153	10
155	10
156	10
157	170
159	9999
160	1661
161	490
162	50
167	20
169	841
170	110
171	80
173	1101
174	170
175	50
185	70
186	10
187	60
188	20
189	10
199	50
200	10
201	160
202	40
203	10
213	40
214	10
215	250
216	50
217	20
227	50
228	10
229	210
230	40
231	10
241	130
242	30
243	90
244	20
245	10
255	60
257	7277
258	1571
259	440
260	60
261	10
271	10
272	10
