Mass Spectrum: 3,17-Dimethoxypregna-2,4-dien-20-one
Formula: C23 H34 O3
Molecular weight: 358
Origin: NIST Mass Spectrometry Data Center
m/z	RELATIVE INTENSITY
15	40
26	10
27	150
29	380
30	10
31	50
33	40
38	10
39	410
40	90
41	1501
42	210
43	3563
44	90
45	300
46	10
50	20
51	160
52	120
53	981
54	150
55	2122
56	140
57	260
58	40
59	380
60	10
61	10
62	10
63	50
64	40
65	621
66	210
67	1531
68	190
69	430
70	90
71	330
72	210
73	510
74	30
75	30
77	1962
78	440
79	2642
80	320
81	1311
82	160
83	390
84	310
85	711
86	120
87	50
88	70
89	70
91	3593
92	621
93	2052
94	360
95	1301
96	180
97	751
98	120
99	320
100	70
101	460
102	130
103	360
104	200
105	2422
106	510
107	1581
108	581
109	961
110	190
111	861
112	120
113	641
114	561
115	1061
116	400
117	1041
118	240
119	1261
120	360
121	1371
122	581
123	1001
124	340
125	200
126	20
127	390
128	651
129	1611
130	430
131	1391
132	230
133	1271
134	410
135	631
137	761
138	70
139	40
140	10
141	320
142	250
143	901
144	280
145	8718
146	1161
147	1551
148	300
149	510
150	80
151	90
152	70
153	130
154	90
155	480
156	160
157	540
158	150
159	1031
160	220
161	1141
162	210
163	330
164	50
165	110
166	60
167	120
168	50
169	430
170	120
171	550
172	140
173	821
174	170
175	641
176	110
177	120
178	50
179	50
180	30
181	160
182	70
183	280
184	120
185	380
186	130
187	591
188	130
189	170
190	40
191	20
192	20
194	20
195	290
196	70
197	130
198	60
199	310
200	90
201	400
202	80
203	60
204	10
205	30
206	10
208	10
209	300
210	70
211	981
212	190
213	410
214	90
215	90
216	20
217	40
218	20
219	10
221	20
222	30
223	90
224	30
225	190
226	70
227	1862
228	360
229	410
230	80
231	20
235	20
236	10
237	20
238	10
239	30
240	30
241	210
242	80
243	60
244	170
245	40
249	10
250	20
251	1341
252	270
253	120
254	50
255	30
256	20
257	20
259	10
261	10
262	10
264	10
267	50
269	9999
270	1982
271	350
272	40
273	20
274	10
279	20
285	50
286	40
287	20
293	10
294	10
296	10
297	60
298	20
299	30
301	6286
302	1421
303	150
304	10
307	10
311	30
312	30
313	30
325	110
326	40
327	20
328	20
329	30
330	10
343	30
344	30
345	10
357	80
358	420
359	100
360	20
