Mass Spectrum: Arachidonic Acid, TBDMS derivative
Formula: C26 H46 O2 Si
Molecular weight: 418
Origin: NIST Mass Spectrometry Data Center
m/z	RELATIVE INTENSITY
26	10
27	130
28	20
29	360
30	10
31	10
38	10
39	270
40	50
41	1441
42	120
43	581
44	30
45	240
46	20
47	260
48	10
49	10
50	10
51	50
52	40
53	340
54	370
55	2032
56	200
57	721
58	190
59	450
60	100
61	200
62	20
63	20
65	370
66	480
67	3033
68	300
69	821
70	80
71	180
72	210
73	5185
74	611
75	9999
76	771
77	1551
78	781
79	3833
80	2152
81	1722
82	280
83	320
84	70
85	250
86	210
87	80
88	50
89	70
91	2993
92	701
93	2522
94	721
95	1141
96	360
97	220
98	50
99	280
100	50
101	180
102	60
103	270
104	210
105	1802
106	971
107	1171
108	230
109	460
110	110
111	110
112	40
113	70
114	140
115	701
116	781
117	2012
118	390
119	1431
120	430
121	881
122	170
123	240
124	130
125	80
126	20
127	80
128	120
129	3693
130	581
131	1752
132	330
133	1311
134	270
135	480
136	240
137	190
138	40
139	100
140	20
141	320
142	180
143	410
144	90
145	781
146	260
147	711
148	170
149	380
150	1591
151	400
152	60
153	100
154	30
155	440
156	130
157	951
158	200
159	611
160	140
161	390
162	100
163	220
164	340
165	180
166	30
167	130
168	50
169	571
170	150
171	1461
172	230
173	270
174	70
175	601
176	210
177	500
178	100
179	70
180	20
181	150
182	60
183	510
184	90
185	470
186	80
187	320
188	90
189	250
190	160
191	100
192	20
193	30
194	10
195	130
196	40
197	671
198	120
199	200
200	40
201	240
202	60
203	400
204	90
205	60
206	20
207	40
208	20
209	140
210	50
211	320
212	60
213	90
214	20
215	120
216	30
217	190
218	50
219	40
220	10
221	60
222	30
223	741
224	150
225	110
226	20
227	60
228	10
229	40
230	20
231	50
232	20
233	20
234	10
235	110
236	30
237	230
238	50
239	40
240	10
241	90
242	20
243	80
244	90
245	80
246	10
247	10
249	150
250	50
251	100
252	20
253	40
254	10
255	40
256	10
257	20
258	20
259	20
261	20
262	10
263	200
264	50
265	50
266	10
267	100
268	20
269	330
270	80
271	10
275	10
276	10
277	150
278	40
279	70
280	70
281	200
282	40
283	30
284	10
285	30
286	20
287	10
289	10
291	40
292	10
293	90
294	30
295	40
296	10
303	10
305	20
306	10
307	140
308	40
309	10
317	10
319	30
320	80
321	40
322	10
325	10
331	10
333	50
334	20
335	20
336	10
339	10
343	50
344	10
345	20
346	10
347	30
348	10
349	10
350	20
351	10
359	10
361	1902
362	571
363	140
364	30
375	10
377	10
390	10
403	140
404	50
405	10
418	160
419	50
420	10
