Mass Spectrum: 10,12-Tricosadiynoic acid, TMS derivative
Formula: C26 H46 O2 Si
Molecular weight: 418
Origin: NIST Mass Spectrometry Data Center
m/z	RELATIVE INTENSITY
15	10
26	10
27	240
28	10
29	621
30	20
31	10
38	10
39	340
40	60
41	2442
42	290
43	2452
44	150
45	671
46	40
47	310
48	10
49	10
50	80
51	260
52	90
53	380
54	270
55	4324
56	430
57	1271
58	200
59	320
60	110
61	621
62	60
63	230
64	90
65	671
66	310
67	3173
68	360
69	1431
70	180
71	390
72	370
73	9999
74	1011
75	9799
76	991
77	1842
78	1451
79	3613
80	2472
81	2843
82	931
83	861
84	190
85	310
86	100
87	90
88	70
89	611
90	140
91	6986
92	3383
93	3623
94	1491
95	2012
96	550
97	460
98	130
99	170
100	20
101	130
102	100
103	701
104	701
105	4834
106	3353
107	2172
108	791
109	861
110	220
111	160
112	40
113	40
114	10
115	801
116	871
117	5565
118	1391
119	6416
120	2532
121	1732
122	440
123	390
124	130
125	110
126	20
127	110
128	340
129	3563
130	741
131	3463
132	1111
133	4504
134	1712
135	991
136	330
137	270
138	240
139	70
140	10
141	220
142	140
143	631
144	230
145	2732
146	841
147	2002
148	621
149	601
150	390
151	200
152	130
153	70
154	30
155	240
156	90
157	470
158	160
159	1501
160	761
161	981
162	270
163	310
164	140
165	90
166	40
167	50
168	30
169	270
170	80
171	320
172	90
173	731
174	490
175	571
176	170
177	170
178	70
179	50
180	30
181	70
182	30
183	200
184	60
185	210
186	50
187	520
188	180
189	410
190	160
191	90
192	30
193	30
194	20
195	40
196	20
197	110
198	30
199	150
200	30
201	290
202	100
203	270
204	430
205	120
206	20
207	20
208	10
209	20
210	10
211	50
212	20
213	60
214	10
215	170
216	60
217	150
218	110
219	50
220	20
221	30
222	10
223	30
224	10
225	40
226	10
227	30
228	10
229	50
230	20
231	110
232	40
233	30
234	10
235	40
236	10
237	30
238	10
239	30
240	10
241	20
242	10
243	50
244	20
245	110
246	40
247	30
248	10
249	30
250	10
251	30
252	10
253	10
255	10
257	40
258	20
259	80
260	20
261	20
262	10
263	40
264	10
265	10
267	10
269	10
271	30
272	20
273	30
274	10
275	10
276	10
277	60
278	30
279	20
280	10
284	10
285	30
286	30
287	20
288	10
289	10
291	110
292	60
293	20
294	10
299	10
300	20
301	20
303	10
305	60
306	70
307	30
308	10
309	10
311	20
317	20
318	10
319	70
320	30
321	10
327	20
328	10
329	20
331	20
333	30
334	10
335	20
336	10
337	10
345	10
347	30
348	10
349	10
359	10
361	20
362	10
375	30
376	10
385	20
387	10
389	10
390	10
401	10
403	881
404	290
405	80
406	10
418	120
419	40
420	10
