Mass Spectrum: Estriol, TBDMS derivative
Formula: C24 H38 O3 Si
Molecular weight: 402
Origin: NIST Mass Spectrometry Data Center
m/z	RELATIVE INTENSITY
19	10
27	60
28	30
29	290
30	10
31	90
38	10
39	130
40	20
41	861
42	90
43	741
44	50
45	330
46	20
47	80
50	10
51	30
52	10
53	190
54	30
55	821
56	200
57	921
58	130
59	731
60	230
61	230
62	10
63	20
64	10
65	90
66	30
67	390
68	60
69	260
70	40
71	190
73	2342
74	250
75	1441
76	110
77	330
78	50
79	420
80	60
81	621
82	90
83	150
84	30
85	100
86	20
87	70
88	10
89	60
90	20
91	591
92	80
93	460
94	140
95	500
96	50
97	180
98	20
99	100
100	40
101	180
102	70
103	110
104	50
105	420
106	70
107	1011
108	230
109	260
110	30
111	50
112	20
113	60
114	180
115	921
116	210
117	240
118	40
119	180
120	150
121	400
123	100
124	10
125	30
126	90
127	370
128	791
129	681
130	120
131	220
132	60
133	370
134	200
135	350
136	50
137	70
138	10
139	40
140	60
141	470
142	190
143	240
144	90
145	350
146	70
147	260
148	90
149	250
150	60
151	190
152	140
153	170
154	110
155	170
156	90
157	160
158	60
159	250
160	70
161	430
162	100
163	1992
164	380
165	440
166	120
167	120
168	50
169	90
170	30
171	130
172	40
173	140
174	40
175	160
176	90
177	300
178	140
179	160
180	40
181	550
182	110
183	140
184	50
185	270
186	80
187	260
188	120
189	731
190	170
191	571
192	130
193	100
194	30
195	90
196	30
197	60
198	30
199	200
200	100
201	510
202	170
203	520
204	250
205	310
206	70
207	330
208	60
209	60
210	20
211	60
212	20
213	170
214	100
215	540
216	200
217	460
218	170
219	250
220	60
221	90
222	20
223	40
224	20
225	60
226	30
227	110
228	80
229	210
230	130
231	410
232	100
233	390
234	90
235	60
236	20
237	50
238	20
239	80
240	40
241	110
242	50
243	170
244	50
245	60
246	30
247	190
248	40
249	30
250	10
251	60
252	20
253	100
254	40
255	100
256	30
257	100
258	40
259	140
260	70
261	60
262	20
263	10
265	30
266	20
267	70
268	20
269	120
270	70
271	250
272	100
273	220
274	70
275	40
276	10
277	10
279	10
280	10
281	30
282	10
283	40
284	30
285	60
286	50
287	80
288	20
289	10
291	10
293	10
295	10
296	10
297	20
298	10
299	50
300	30
301	30
302	10
303	10
305	10
307	20
309	40
310	20
311	40
312	20
313	50
314	10
315	50
316	20
317	10
318	10
323	10
324	10
325	40
326	40
327	160
328	60
329	30
330	10
331	10
334	10
337	10
339	30
340	10
341	20
342	10
343	100
345	9999
346	3383
347	921
348	170
349	20
351	10
355	10
357	30
358	10
365	20
366	10
368	10
369	10
371	10
372	10
374	10
383	10
384	30
385	10
386	10
387	180
388	50
389	20
400	40
402	4404
403	1361
404	370
405	70
406	10
