Mass Spectrum: Allyl alcohol, picolinyloxydimethylsilyl ether
Formula: C11 H17 N O2 Si
Molecular weight: 223
Origin: NIST Mass Spectrometry Data Center
m/z	RELATIVE INTENSITY
15	40
26	40
27	170
28	110
29	180
30	10
31	40
37	30
38	140
39	1541
40	100
41	951
42	80
43	310
44	40
45	861
46	60
47	400
48	20
49	20
50	110
51	280
52	170
53	220
54	50
55	180
56	40
57	90
58	260
59	1521
60	230
61	611
62	130
63	440
64	320
65	3173
66	250
67	60
68	30
69	60
70	30
71	110
72	20
74	70
75	2983
76	290
77	721
78	300
79	180
80	450
81	80
83	300
85	841
86	140
87	270
88	60
89	170
90	60
91	280
92	9999
93	1842
94	200
95	90
96	30
97	110
98	90
99	1291
100	180
101	4014
102	390
103	210
104	90
105	90
106	480
107	971
108	801
109	150
110	50
111	130
112	40
113	70
114	100
115	1231
116	230
117	330
118	240
119	90
120	90
121	40
122	310
123	70
124	70
125	160
126	40
127	20
128	10
129	320
130	380
131	631
132	961
133	140
134	100
135	110
136	1672
137	280
138	320
139	100
140	30
141	10
143	30
144	50
145	20
146	40
147	20
148	340
149	120
150	1041
151	230
152	751
153	120
154	60
155	10
156	10
160	80
161	20
162	170
163	50
164	190
165	290
166	1742
167	651
168	801
169	130
170	50
171	10
172	10
174	10
176	20
177	10
178	350
179	110
180	220
181	150
182	1762
183	260
184	80
185	10
190	70
191	20
192	50
193	20
194	180
195	110
196	100
197	20
204	20
205	10
206	40
208	5165
209	861
210	240
211	20
220	10
222	2702
223	3043
224	611
225	140
226	10
