Mass Spectrum: (-)-Myrtenol, TBDMS derivative
Formula: C16 H30 O Si
Molecular weight: 266
Origin: NIST Mass Spectrometry Data Center
m/z	RELATIVE INTENSITY
15	10
27	170
28	30
29	330
30	10
31	30
38	10
39	360
40	70
41	1241
42	80
43	711
44	50
45	390
46	30
47	390
48	20
49	10
50	20
51	110
52	70
53	420
54	50
55	400
56	160
57	701
58	220
59	781
60	120
61	240
62	20
63	50
64	10
65	370
66	80
67	260
68	50
69	971
70	60
71	40
73	2903
74	380
75	9999
76	831
77	1391
78	290
79	1021
80	120
81	200
82	60
83	160
84	20
85	180
86	20
87	50
89	3133
90	330
91	4364
92	811
93	921
94	90
95	871
96	100
97	110
98	30
99	250
100	50
101	290
102	50
103	210
104	90
105	861
106	200
107	520
108	50
109	80
110	20
111	130
112	40
113	230
114	30
115	591
116	90
117	300
118	80
119	1091
120	140
121	170
122	30
123	270
124	40
125	250
126	50
127	571
128	80
129	340
130	40
131	120
133	2062
134	771
135	911
136	110
137	400
138	70
139	330
140	70
141	260
142	30
143	40
144	10
145	80
146	10
147	50
149	931
150	150
151	300
152	50
153	530
154	90
155	80
156	10
157	10
159	10
161	80
162	20
163	240
164	50
165	1281
166	280
167	721
168	130
169	40
170	10
173	10
175	80
176	20
177	430
178	80
179	510
180	100
181	150
182	20
183	10
184	10
189	20
191	601
192	110
193	50
194	20
195	40
196	10
197	50
198	10
199	10
207	130
208	160
209	5025
210	981
211	250
212	30
221	10
223	80
224	10
225	10
251	120
252	20
253	10
266	40
267	10
