Mass Spectrum: Dibutoxy(dimethyl)silane
Formula: C10 H24 O2 Si
Molecular weight: 204
Origin: NIST Mass Spectrometry Data Center
m/z	RELATIVE INTENSITY
15	20
26	20
27	360
28	80
29	480
30	10
31	30
38	10
39	220
40	30
41	711
42	60
43	490
44	40
45	581
46	40
47	410
48	20
49	20
50	10
51	10
53	40
54	20
55	290
56	190
57	240
58	390
59	721
60	200
61	550
62	60
63	190
64	10
65	10
69	60
70	10
71	60
72	50
73	50
74	150
75	4244
76	400
77	5025
78	330
79	210
83	10
84	10
85	90
86	20
87	230
88	310
89	2422
90	270
91	1271
92	90
93	150
94	10
95	10
97	20
98	10
99	130
100	20
101	280
102	50
103	561
104	100
105	320
106	30
107	130
108	10
109	10
111	20
113	40
114	20
115	370
116	50
117	490
118	60
119	701
120	60
121	30
128	10
129	40
131	3373
132	390
133	2502
134	260
135	100
136	10
145	120
146	30
147	250
148	30
149	30
151	10
159	40
161	3153
162	410
163	140
164	10
173	50
174	10
175	30
187	20
189	9999
190	1992
191	621
192	50
203	80
204	30
205	10
