Mass Spectrum: 3-Methyl-1-butanol, picolinyloxydimethylsilyl ether
Formula: C13 H23 N O2 Si
Molecular weight: 253
Origin: NIST Mass Spectrometry Data Center
m/z	RELATIVE INTENSITY
15	30
26	20
27	290
28	80
29	370
30	10
31	30
37	10
38	70
39	1001
40	100
41	1091
42	250
43	1431
44	80
45	571
46	40
47	350
48	20
49	20
50	70
51	190
52	120
53	200
54	50
55	470
56	60
57	130
58	320
59	871
60	180
61	480
62	100
63	340
64	260
65	2692
66	200
67	80
68	20
69	751
70	160
71	230
72	40
73	50
74	140
75	3263
76	310
77	1091
78	260
79	160
80	330
81	70
83	941
85	140
86	50
87	120
88	100
89	1982
90	220
91	490
92	9999
93	1331
94	711
95	110
96	30
97	60
98	100
99	110
100	40
101	170
102	40
103	510
104	110
105	310
106	430
107	140
108	671
109	140
110	50
111	120
112	50
113	60
114	10
115	70
116	20
117	180
118	110
119	100
120	120
121	80
122	340
123	90
124	110
125	140
126	30
127	80
128	10
129	70
130	20
131	170
132	60
133	20
134	80
135	170
136	2212
137	350
138	1531
139	260
140	140
141	70
142	10
143	30
145	761
146	120
147	60
148	310
149	130
150	1511
151	440
152	1872
153	270
154	140
155	20
156	10
158	10
159	70
160	140
161	60
162	80
163	30
164	160
165	360
166	4384
167	1371
168	4324
169	601
170	1521
171	190
172	60
173	10
176	10
178	30
179	10
180	120
182	5215
183	1792
184	831
185	130
186	20
190	10
192	30
193	10
194	90
196	2692
197	1221
198	260
199	50
206	10
208	460
209	100
210	1621
211	510
212	120
213	20
220	10
222	60
223	10
224	30
225	10
236	30
238	6906
239	1321
240	380
241	40
252	260
253	6796
254	1401
255	400
256	50
257	10
