Mass Spectrum: 6-Azauracil, 2TMS derivative
Formula: C9 H19 N3 O2 Si2
Molecular weight: 257
Origin: NIST Mass Spectrometry Data Center
m/z	RELATIVE INTENSITY
15	10
27	20
28	10
29	80
30	10
31	20
39	10
41	30
42	60
43	571
44	240
45	1411
46	100
47	80
52	10
53	40
54	40
55	160
56	90
57	140
58	240
59	270
60	30
61	30
64	10
66	20
67	20
68	20
69	160
70	400
71	130
72	931
73	9999
74	1071
75	500
76	30
77	10
78	10
82	10
83	30
84	80
85	110
86	250
87	130
88	20
89	10
97	10
98	70
99	2082
100	1471
101	250
102	150
103	40
104	10
105	10
111	10
112	20
113	320
115	510
116	160
117	210
118	40
119	40
124	30
125	10
126	140
127	100
128	30
129	30
130	120
131	170
132	70
133	150
134	20
135	10
139	20
140	20
141	40
142	851
143	150
144	60
145	70
146	20
147	1381
148	220
149	120
150	10
154	10
155	10
156	30
157	80
158	60
159	50
160	40
161	10
167	10
168	10
169	10
170	100
171	80
172	170
173	230
174	120
175	80
176	20
184	60
185	20
186	50
187	80
188	130
189	60
190	20
191	10
197	10
198	10
199	40
200	40
201	40
202	160
203	30
204	10
212	20
213	781
214	300
215	110
216	40
217	20
228	20
229	20
230	20
231	10
240	10
242	2873
243	591
244	260
245	30
246	10
256	440
257	1021
258	260
259	100
260	20
