Mass Spectrum: .alpha.-Benzylphenethylamine
Formula: C15 H17 N
Molecular weight: 211
Origin: Drug Lab
m/z	RELATIVE INTENSITY
40	30
41	90
42	220
43	80
50	50
51	200
52	50
53	30
62	30
63	130
64	40
65	611
66	40
76	20
77	641
78	120
79	40
80	20
89	140
90	70
91	1742
92	280
93	220
94	20
102	70
103	991
104	140
105	20
115	50
116	20
117	90
118	280
119	220
120	9999
121	901
122	30
