Mass Spectrum: Silane, dimethyl(dimethyl(2-methylphenoxy)silyloxy)propoxy-
Formula: C14 H26 O3 Si2
Molecular weight: 298
Origin: V.G. Zaikin, R.S.Borisov, TIPS RAS, Moscow, Russia
m/z	RELATIVE INTENSITY
27	160
29	20
39	70
41	320
42	30
43	741
45	70
51	20
59	100
61	60
65	230
66	30
73	380
74	20
75	490
76	20
77	160
78	40
79	90
82	20
89	110
90	60
91	1071
92	80
103	140
104	190
105	961
106	60
107	140
108	80
111	240
112	500
113	60
115	130
117	160
118	70
119	3143
120	1201
121	190
131	70
133	2222
134	360
135	571
136	30
137	40
145	20
147	80
148	30
149	6836
150	1011
151	651
152	40
161	60
163	80
165	120
167	20
175	20
177	20
178	50
179	130
181	160
191	9999
192	1802
193	961
194	90
195	520
196	70
197	160
207	70
209	510
210	80
211	140
221	40
222	80
223	5505
224	1191
225	1631
226	300
227	100
237	260
238	300
239	4844
240	1171
241	4414
242	911
243	380
244	30
283	1241
284	280
285	100
298	4254
299	1091
300	440
301	50
