Mass Spectrum: Silane, dimethyloctyloxyisohexyloxy-
Formula: C16 H36 O2 Si
Molecular weight: 288
Origin: V.G. Zaikin, R.S.Borisov, TIPS RAS, Moscow, Russia
m/z	RELATIVE INTENSITY
27	110
29	190
39	90
41	520
42	70
43	691
45	100
47	70
53	30
54	20
55	971
56	380
57	220
58	70
59	210
60	40
61	230
63	70
67	90
68	40
69	1231
70	80
71	100
73	180
74	40
75	1942
76	140
77	1571
78	90
79	70
81	40
82	30
83	6306
84	510
85	310
86	10
87	100
88	80
89	711
90	80
91	260
93	290
99	110
101	420
102	40
103	250
105	160
107	60
111	100
113	30
115	200
117	170
119	240
129	130
131	200
133	30
143	110
145	90
147	50
157	20
159	230
160	20
161	40
171	30
173	20
175	20
177	40
187	550
188	80
189	561
190	70
203	90
205	240
206	30
215	60
217	1001
218	150
219	40
221	20
245	20
257	40
273	9999
274	2102
275	561
276	60
287	30
