Mass Spectrum: Silane, dimethyl(2-pentyloxy)heptyloxy-
Formula: C14 H32 O2 Si
Molecular weight: 260
Origin: V.G. Zaikin, R.S.Borisov, TIPS RAS, Moscow, Russia
m/z	RELATIVE INTENSITY
27	30
29	80
39	50
41	240
42	60
43	270
45	130
47	120
53	20
54	10
55	861
56	90
57	200
58	100
59	260
60	60
61	240
63	80
67	30
68	30
69	190
70	140
71	30
72	20
73	50
74	70
75	3303
76	260
77	2182
78	130
79	90
81	30
83	20
85	50
87	170
88	80
89	741
90	80
91	250
93	150
96	20
97	1191
98	110
99	130
101	460
102	70
103	1041
104	90
105	170
113	40
115	410
116	40
117	150
119	230
121	70
129	170
130	10
131	450
132	50
133	290
134	20
143	30
145	530
146	60
147	90
157	120
159	210
160	20
161	50
171	20
172	20
173	4184
174	651
175	3393
176	470
177	130
187	20
189	20
201	50
217	9999
218	1732
219	490
220	40
245	4064
246	801
247	210
248	20
259	90
