Mass Spectrum: Silane, dimethyl(4-methoxybenzyloxy)ethoxy-
Formula: C12 H20 O3 Si
Molecular weight: 240
Origin: V.G. Zaikin, R.S.Borisov, TIPS RAS, Moscow, Russia
m/z	RELATIVE INTENSITY
39	30
45	130
47	50
51	60
52	40
53	20
59	170
61	50
63	30
65	60
72	60
73	30
74	30
75	771
76	70
77	390
78	260
79	30
82	30
83	30
89	210
90	70
91	260
92	30
95	20
97	280
98	611
99	90
103	991
104	100
105	120
106	60
107	60
108	20
109	20
112	100
117	70
119	70
120	110
121	9999
122	961
123	60
135	140
136	30
137	40
149	100
151	100
163	160
164	20
165	270
166	40
167	30
179	1361
180	220
181	380
182	40
193	160
194	240
195	420
196	100
197	20
209	721
210	200
211	701
212	100
225	1171
226	190
227	40
239	1001
240	2652
241	480
242	120
