Mass Spectrum: Silane, dimethyldecyloxypropoxy-
Formula: C15 H34 O2 Si
Molecular weight: 274
Origin: V.G. Zaikin, R.S.Borisov, TIPS RAS, Moscow, Russia
m/z	RELATIVE INTENSITY
27	60
29	110
39	40
41	260
42	50
43	260
45	90
47	50
54	20
55	330
56	70
57	180
58	40
59	120
60	20
61	160
63	60
67	60
68	40
69	420
70	90
71	70
74	20
75	1331
76	90
77	1501
78	80
79	90
81	40
82	30
83	771
84	80
85	40
87	60
88	30
89	701
90	60
91	180
93	180
95	30
97	380
98	30
99	60
101	190
102	20
103	140
105	60
107	30
111	20
113	20
115	150
117	841
118	80
119	1571
120	130
121	60
129	70
131	70
133	200
135	120
143	50
145	80
147	1101
148	120
149	40
157	20
159	30
173	40
187	40
199	30
201	50
215	260
216	40
217	20
243	30
245	420
246	60
259	9999
260	1892
261	490
262	50
273	20
