Mass Spectrum: Silane, dimethylisobutoxyisohexyloxy-
Formula: C12 H28 O2 Si
Molecular weight: 232
Origin: V.G. Zaikin, R.S.Borisov, TIPS RAS, Moscow, Russia
m/z	RELATIVE INTENSITY
27	160
29	180
39	150
41	581
42	50
43	641
45	260
47	210
53	30
55	1041
56	460
57	60
58	240
59	380
60	120
61	340
62	20
63	110
67	60
69	380
73	20
74	80
75	3453
76	270
77	2432
78	140
79	90
82	20
83	9999
84	791
85	200
87	70
88	230
89	1461
90	180
91	360
92	20
93	180
99	140
100	20
101	510
102	50
103	290
105	230
107	60
113	30
115	130
117	190
119	220
129	50
131	1141
132	130
133	270
134	20
143	110
145	90
147	200
148	20
149	300
150	30
157	60
159	520
160	60
161	2002
162	260
163	80
173	20
175	20
189	921
190	130
217	8918
218	1571
219	460
220	40
231	50
