Mass Spectrum: Silane, dimethyl(2-octyloxy)isohexyloxy-
Formula: C16 H36 O2 Si
Molecular weight: 288
Origin: V.G. Zaikin, R.S.Borisov, TIPS RAS, Moscow, Russia
m/z	RELATIVE INTENSITY
27	50
29	90
39	50
41	310
42	60
43	370
45	70
47	70
55	611
56	190
57	100
58	70
59	180
60	40
61	160
63	50
67	40
68	20
69	300
70	70
72	30
73	60
74	50
75	2202
76	170
77	901
78	50
79	30
81	20
82	40
83	6186
84	470
85	250
86	20
87	70
88	80
89	360
90	50
91	90
93	140
97	40
99	80
101	390
102	90
103	731
104	80
105	110
112	30
115	130
117	120
119	130
121	20
129	80
131	130
133	120
143	120
145	300
147	100
148	110
157	40
159	1211
160	170
161	230
162	20
173	190
174	20
175	20
187	300
188	40
189	30
203	9999
204	1672
205	450
206	40
217	1141
218	190
219	50
260	40
273	2502
274	540
275	150
287	80
