Mass Spectrum: Silane, dimethyl(2-octyloxy)butoxy-
Formula: C14 H32 O2 Si
Molecular weight: 260
Origin: V.G. Zaikin, R.S.Borisov, TIPS RAS, Moscow, Russia
m/z	RELATIVE INTENSITY
27	60
29	120
39	40
41	210
42	30
43	120
45	110
47	90
55	150
56	40
57	60
58	60
59	160
60	30
61	160
63	60
69	50
70	30
72	40
74	40
75	2302
76	170
77	1351
78	70
79	40
87	70
88	50
89	360
90	30
91	160
93	70
97	30
99	50
101	150
102	30
103	841
104	70
105	90
115	200
116	20
117	100
119	100
129	70
131	3463
132	380
133	1992
134	190
135	60
143	20
145	40
147	50
159	120
161	40
173	220
174	30
175	9999
176	1301
177	370
178	20
187	260
188	30
201	20
217	791
218	110
219	20
245	1571
246	270
247	60
259	60
