Mass Spectrum: Silane, dimethyl(2-ethylhexyloxy)hexyloxy-
Formula: C16 H36 O2 Si
Molecular weight: 288
Origin: V.G. Zaikin, R.S.Borisov, TIPS RAS, Moscow, Russia
m/z	RELATIVE INTENSITY
27	60
29	130
39	40
41	300
42	60
43	320
45	70
47	60
53	20
54	20
55	490
56	270
57	270
58	70
59	170
60	40
61	140
63	40
67	40
68	20
69	360
70	270
71	90
74	20
75	2292
76	180
77	1601
78	100
79	70
81	20
82	50
83	1241
84	200
85	80
87	60
88	90
89	1281
90	140
91	300
92	20
93	310
94	20
97	20
98	60
99	70
101	190
102	20
103	200
104	20
105	180
107	420
108	30
111	160
112	260
113	50
115	150
117	150
119	671
120	60
121	20
129	40
131	120
133	30
143	100
145	50
147	20
157	50
158	20
159	1902
160	260
161	2412
162	310
163	100
171	20
173	50
175	110
177	180
178	20
187	170
188	20
189	3633
190	581
191	260
203	50
217	561
218	90
219	20
231	20
257	30
273	9999
274	2152
275	591
276	70
287	20
