Mass Spectrum: Silane, dimethyldiisohexyloxy-
Formula: C14 H32 O2 Si
Molecular weight: 260
Origin: V.G. Zaikin, R.S.Borisov, TIPS RAS, Moscow, Russia
m/z	RELATIVE INTENSITY
27	140
29	150
39	110
41	671
42	60
43	1031
45	160
47	110
53	30
55	1201
56	671
57	130
58	120
59	260
60	70
61	250
63	70
67	90
68	20
69	550
70	20
73	20
74	50
75	2012
76	160
77	1291
78	70
79	50
81	20
82	50
83	9999
84	861
85	701
86	40
87	80
88	140
89	661
90	90
91	210
93	140
99	140
100	20
101	561
102	60
103	250
104	20
105	150
107	20
113	30
115	90
117	120
119	230
129	40
131	280
132	30
133	20
143	130
145	80
157	50
159	420
160	50
161	50
175	130
177	561
178	70
179	20
189	951
190	140
191	30
229	20
245	8317
246	1672
247	460
248	50
259	30
