Mass Spectrum: Silane, dimethyl(3,7-dimethyloct-3-yloxy)butoxy-
Formula: C16 H36 O2 Si
Molecular weight: 288
Origin: V.G. Zaikin, R.S.Borisov, TIPS RAS, Moscow, Russia
m/z	RELATIVE INTENSITY
27	80
29	170
39	80
41	480
42	70
43	540
44	100
45	120
47	80
53	30
54	20
55	761
56	661
57	2993
58	140
59	250
60	40
61	270
63	90
67	100
68	50
69	2843
70	631
71	490
73	50
74	50
75	2222
76	180
77	1581
78	100
79	230
81	450
82	110
83	6726
84	681
85	120
87	130
88	80
89	1421
90	150
91	761
92	50
93	470
94	30
95	150
96	50
97	1301
98	130
99	140
100	20
101	260
102	30
103	220
104	20
105	510
106	30
107	120
109	50
111	140
112	230
113	100
115	240
116	20
117	230
118	20
119	500
120	40
121	30
123	40
125	90
127	140
128	10
129	190
130	20
131	1621
132	190
133	1201
134	120
135	170
136	20
139	190
140	270
141	80
143	90
145	90
147	821
148	90
149	450
150	40
157	120
159	110
161	2042
162	270
163	90
185	90
187	90
199	130
201	70
213	20
215	190
216	20
217	20
245	140
246	20
273	9999
274	2232
275	611
276	70
287	30
