Mass Spectrum: Silane, dimethylpentyloxynonyloxy-
Formula: C16 H36 O2 Si
Molecular weight: 288
Origin: V.G. Zaikin, R.S.Borisov, TIPS RAS, Moscow, Russia
m/z	RELATIVE INTENSITY
29	20
41	70
42	20
43	80
45	10
55	110
56	30
57	70
59	40
61	50
67	20
69	571
70	80
71	60
75	621
76	50
77	751
78	40
79	40
83	280
84	30
85	30
87	30
89	340
90	30
91	140
93	130
97	30
99	30
101	100
103	80
105	70
107	30
115	80
117	70
119	130
129	70
131	70
143	30
145	400
146	50
147	460
148	50
159	20
161	70
163	40
173	30
175	641
176	90
177	20
185	30
201	260
202	40
203	80
215	40
217	20
231	490
232	90
233	20
257	40
273	9999
274	2272
275	651
276	80
287	20
