Mass Spectrum: Silane, dimethyl(3,7-dimethyloct-3-yloxy)isobutoxy-
Formula: C16 H36 O2 Si
Molecular weight: 288
Origin: V.G. Zaikin, R.S.Borisov, TIPS RAS, Moscow, Russia
m/z	RELATIVE INTENSITY
27	40
29	80
39	50
41	330
42	50
43	430
45	70
47	50
53	20
55	641
56	470
57	2943
58	140
59	200
60	40
61	200
63	50
67	80
68	40
69	2512
70	520
71	520
72	30
73	20
74	40
75	2332
76	190
77	1371
78	80
79	100
81	420
82	90
83	6696
84	671
85	160
87	100
88	110
89	1441
90	150
91	871
92	60
93	300
94	20
95	120
96	40
97	1261
98	130
99	140
100	20
101	240
102	20
103	210
104	20
105	320
106	20
107	200
109	50
111	140
112	220
113	90
115	180
117	180
119	701
120	60
121	20
123	20
125	90
127	150
128	20
129	200
130	20
131	1001
132	110
133	701
134	70
135	80
139	250
140	300
141	70
143	70
145	110
147	460
148	50
149	270
150	20
151	210
152	20
157	120
159	110
161	1922
162	260
163	60
185	30
187	70
189	30
199	110
201	50
213	60
215	170
216	20
217	40
219	40
231	20
233	30
245	320
246	50
273	9999
274	2312
275	651
276	80
287	30
