Mass Spectrum: Silane, dimethylhexyloxyethoxy-
Formula: C10 H24 O2 Si
Molecular weight: 204
Origin: V.G. Zaikin, R.S.Borisov, TIPS RAS, Moscow, Russia
m/z	RELATIVE INTENSITY
27	110
29	160
39	60
41	210
42	30
43	210
45	240
47	160
55	280
56	90
57	20
58	80
59	330
60	50
61	300
62	20
63	110
67	20
69	30
73	80
74	50
75	1311
76	110
77	1591
78	90
79	70
83	320
84	30
85	30
87	120
88	80
89	1191
90	100
91	140
93	30
99	50
101	180
102	40
103	1732
104	160
105	3383
106	290
107	140
115	130
117	130
118	20
119	400
120	30
121	160
129	30
131	150
133	1461
134	150
135	50
143	40
145	170
159	280
160	30
173	40
189	9999
190	1461
191	450
192	30
203	50
