Mass Spectrum: Silane, dimethyldecyloxyethoxy-
Formula: C14 H32 O2 Si
Molecular weight: 260
Origin: V.G. Zaikin, R.S.Borisov, TIPS RAS, Moscow, Russia
m/z	RELATIVE INTENSITY
27	110
29	230
39	80
41	510
42	110
43	510
44	30
45	180
47	110
53	20
54	50
55	711
56	210
57	350
58	70
59	380
60	40
61	330
63	110
67	110
68	90
69	841
70	230
71	140
73	140
74	40
75	1631
76	110
77	1742
78	100
79	110
81	70
82	70
83	1401
84	170
85	80
87	110
88	70
89	1571
90	120
91	250
93	100
95	50
96	20
97	681
98	80
99	60
101	210
102	40
103	2152
104	180
105	5045
106	390
107	280
111	50
112	40
113	20
115	230
116	20
117	110
119	601
120	40
121	510
122	30
129	170
131	200
133	2002
134	190
135	60
140	20
143	50
145	80
159	70
161	30
173	40
187	40
199	40
215	110
229	20
245	9999
246	1782
247	450
248	30
259	20
