Mass Spectrum: Silane, dimethylisohexyloxyheptyloxy-
Formula: C15 H34 O2 Si
Molecular weight: 274
Origin: V.G. Zaikin, R.S.Borisov, TIPS RAS, Moscow, Russia
m/z	RELATIVE INTENSITY
27	80
29	140
39	70
41	420
42	80
43	500
45	100
47	70
53	20
54	10
55	1341
56	430
57	360
58	70
59	200
60	40
61	210
63	60
67	70
68	40
69	460
70	130
74	30
75	2012
76	140
77	1722
78	90
79	70
81	40
82	20
83	7196
84	571
85	310
87	100
88	80
89	841
90	90
91	280
93	330
97	631
98	70
99	110
101	400
102	30
103	250
104	10
105	180
107	70
113	20
115	210
117	170
119	330
120	20
129	80
131	210
133	50
143	100
145	90
157	60
159	210
160	10
161	110
173	671
174	90
175	270
176	20
177	50
189	500
190	60
191	310
192	40
201	90
203	1161
204	170
205	50
231	110
243	40
259	9999
260	2122
261	591
262	60
273	30
