Mass Spectrum: Silane, dimethyl(3-methylbut-2-enyloxy)dodecyloxy-
Formula: C19 H40 O2 Si
Molecular weight: 328
Origin: V.G. Zaikin, R.S.Borisov, TIPS RAS, Moscow, Russia
m/z	RELATIVE INTENSITY
27	90
29	210
39	130
40	30
41	791
42	120
43	801
45	80
47	80
53	120
54	70
55	881
56	130
57	540
58	50
59	200
60	40
61	260
63	70
64	20
66	20
67	360
68	1081
69	1271
70	110
71	310
73	40
74	80
75	5575
76	410
77	2542
78	140
79	120
81	601
82	290
83	981
84	50
85	50
87	80
88	40
89	711
90	80
91	360
92	20
93	140
95	290
96	180
97	931
98	70
99	140
100	20
101	480
102	40
103	230
105	661
106	40
107	50
109	180
110	80
111	420
112	30
113	210
114	20
115	270
116	40
117	430
118	40
119	90
123	70
124	50
125	70
127	290
128	70
129	1171
130	140
131	420
132	40
133	50
138	50
141	270
142	90
143	420
144	70
145	1041
146	120
147	470
148	40
149	40
155	30
157	170
158	40
159	5065
160	671
161	240
163	110
165	30
166	180
171	120
172	20
173	1091
174	130
175	110
185	60
187	40
199	40
201	641
202	90
203	20
213	20
215	50
227	110
229	30
241	50
243	1551
244	300
245	1211
246	210
247	60
257	250
258	40
259	170
260	20
261	20
271	1151
272	220
273	230
274	30
285	130
286	20
299	20
313	9999
314	2602
315	691
316	90
327	110
328	641
329	160
330	30
