Mass Spectrum: Silane, dimethyl(1-phenylpropoxy)tridecyloxy-
Formula: C24 H44 O2 Si
Molecular weight: 392
Origin: V.G. Zaikin, R.S.Borisov, TIPS RAS, Moscow, Russia
m/z	RELATIVE INTENSITY
41	50
43	70
55	80
56	20
57	70
59	20
61	20
67	20
69	110
71	30
75	861
76	60
77	280
78	20
81	30
82	20
83	160
85	20
89	130
91	651
92	50
95	40
97	150
99	20
101	80
103	40
104	60
105	180
106	20
111	70
115	90
117	180
118	60
119	140
125	20
129	40
131	100
135	100
143	30
145	30
149	110
151	20
157	20
163	70
164	60
165	931
166	140
167	50
179	60
181	240
182	30
191	20
192	30
193	80
194	20
195	110
207	50
209	50
221	30
223	170
224	20
257	631
258	120
259	300
260	50
271	40
361	40
363	9999
364	2933
365	791
366	130
377	30
