Mass Spectrum: Silane, dimethyl(2-methyloct-5-yn-4-yloxy)hexyloxy-
Formula: C17 H34 O2 Si
Molecular weight: 298
Origin: V.G. Zaikin, R.S.Borisov, TIPS RAS, Moscow, Russia
m/z	RELATIVE INTENSITY
27	50
29	100
39	90
41	390
42	50
43	500
45	110
47	130
51	20
52	20
53	80
55	360
56	60
57	60
58	50
59	280
60	30
61	220
63	50
65	80
66	30
67	120
69	200
70	30
71	20
74	50
75	4364
76	340
77	1411
78	110
79	320
80	50
81	220
83	400
84	30
85	130
87	120
88	50
89	550
90	60
91	300
92	30
93	430
94	40
95	120
96	30
97	180
98	40
99	260
100	20
101	430
102	50
103	160
105	691
106	70
107	651
108	60
109	80
110	30
111	2072
112	260
113	861
114	90
115	280
116	40
117	170
119	60
121	100
122	30
123	70
125	280
126	60
127	510
128	60
129	530
130	70
131	160
133	100
135	90
137	50
139	280
140	90
141	1912
142	320
143	450
144	60
145	150
147	40
149	230
153	90
155	390
156	140
157	671
158	100
159	2562
160	340
161	220
165	10
167	60
169	671
170	220
171	3934
172	611
173	290
174	20
175	30
181	130
182	20
183	550
184	110
185	260
186	20
187	90
195	290
196	40
197	1481
198	350
199	260
200	40
203	20
211	270
212	50
213	250
214	30
223	20
225	20
227	320
228	40
229	430
230	70
241	9999
242	2142
243	591
244	60
245	60
259	230
260	50
269	1421
270	320
271	70
273	30
283	1962
284	430
285	100
297	90
298	70
