Mass Spectrum: Malonic acid, isobutyl 2-methylpentyl ester
Formula: C13 H24 O4
Molecular weight: 244
Origin: V.G. Zaikin, R.S.Borisov, TIPS RAS, Moscow, Russia
m/z	RELATIVE INTENSITY
26	50
27	520
29	721
30	70
31	120
37	50
39	390
40	90
41	1992
42	861
43	1982
44	30
45	140
53	100
54	60
55	741
56	1461
57	8858
58	300
59	631
60	160
61	40
67	80
68	60
69	1822
70	230
71	550
72	130
73	320
77	20
81	20
82	60
83	951
84	2242
85	5435
86	370
87	3863
88	100
91	160
93	40
97	170
98	50
99	30
100	160
101	1722
102	100
105	1431
106	40
111	70
112	120
113	80
116	40
117	60
118	120
125	440
126	30
127	70
130	470
131	170
132	20
141	20
143	9999
144	791
145	220
159	90
160	30
161	130
171	50
201	270
215	80
