Mass Spectrum: Silane, dimethyl(3-methylphenoxy)isohexyloxy-
Formula: C15 H26 O2 Si
Molecular weight: 266
Origin: V.G. Zaikin, R.S.Borisov, TIPS RAS, Moscow, Russia
m/z	RELATIVE INTENSITY
26	20
27	140
29	130
39	190
41	641
42	60
43	741
45	220
47	130
50	20
51	50
52	20
53	50
55	1571
56	851
57	110
58	100
59	390
60	40
61	200
63	60
65	280
67	50
68	30
69	400
73	10
74	40
75	1722
76	120
77	460
78	90
79	170
81	30
82	380
83	8197
84	561
85	80
87	20
88	30
89	230
90	110
91	1752
92	160
93	20
95	70
97	40
99	130
101	140
103	110
104	70
105	931
106	80
107	120
108	50
109	180
111	40
115	60
119	30
121	70
123	30
131	50
133	20
135	621
136	80
137	120
139	20
143	150
145	40
147	90
148	80
149	1131
150	190
151	681
152	90
153	40
159	30
161	60
162	30
163	330
164	130
165	7267
166	1231
167	6316
168	901
169	310
170	20
175	120
177	90
179	320
180	60
181	370
182	4564
183	841
184	220
185	20
189	40
191	30
193	140
194	30
195	2462
196	370
197	100
205	90
207	80
208	60
209	130
210	40
223	60
224	10
225	30
251	280
252	50
266	9999
267	2092
268	530
269	50
