Mass Spectrum: Silane, dimethyl(3-ethylphenoxy)pentadecyloxy-
Formula: C25 H46 O2 Si
Molecular weight: 406
Origin: V.G. Zaikin, R.S.Borisov, TIPS RAS, Moscow, Russia
m/z	RELATIVE INTENSITY
27	50
29	110
39	50
41	340
42	60
43	540
53	20
54	30
55	530
56	90
57	370
59	90
61	50
67	80
68	40
69	490
70	70
71	160
73	50
75	591
76	40
77	120
78	10
79	40
81	60
82	70
83	420
84	50
85	80
89	70
91	100
95	40
97	310
98	30
99	30
101	50
103	30
104	20
105	70
107	30
111	100
115	40
119	90
121	20
122	20
123	20
125	20
135	110
137	30
147	30
149	170
150	30
151	140
152	20
153	50
161	120
163	340
164	60
165	220
166	50
167	60
177	250
178	100
179	2292
180	400
181	2062
182	320
183	210
184	20
189	20
191	20
193	120
194	30
195	270
196	2082
197	621
198	140
199	20
205	20
207	50
209	601
210	100
211	20
223	20
235	30
237	20
285	20
391	310
392	90
393	20
406	9999
407	3003
408	801
409	130
