Mass Spectrum: Silane, dimethyl(tetrahydrofurfuryloxy)octadecyloxy-
Formula: C25 H52 O3 Si
Molecular weight: 428
Origin: V.G. Zaikin, R.S.Borisov, TIPS RAS, Moscow, Russia
m/z	RELATIVE INTENSITY
26	20
27	100
29	200
39	90
41	601
42	160
43	1321
45	40
47	20
53	30
54	70
55	601
56	170
57	721
58	90
59	200
60	30
61	210
67	230
68	120
69	721
70	1832
71	9999
72	450
74	10
75	2482
76	180
77	751
78	40
79	30
81	180
82	120
83	490
84	130
87	70
88	90
89	681
90	90
91	330
93	200
95	160
96	80
97	360
98	50
99	130
100	20
101	370
102	40
103	591
104	50
105	170
107	881
108	60
109	80
110	20
111	140
112	20
113	60
114	140
115	230
116	70
117	320
118	50
119	120
121	40
125	30
127	40
129	330
130	1121
131	330
132	490
141	240
142	40
143	180
144	30
145	1101
146	130
147	40
157	120
158	550
159	5765
160	841
161	801
162	70
173	60
175	70
327	110
328	20
343	80
344	20
345	20
357	140
358	40
359	80
360	20
369	80
370	20
383	20
384	70
385	40
397	420
398	180
399	50
410	30
413	2292
414	761
415	200
416	30
