Mass Spectrum: Silane, dimethyl(hex-4-yn-3-yloxy)tridecyloxy-
Formula: C21 H42 O2 Si
Molecular weight: 354
Origin: V.G. Zaikin, R.S.Borisov, TIPS RAS, Moscow, Russia
m/z	RELATIVE INTENSITY
27	50
29	110
39	70
41	460
42	90
43	731
45	90
47	60
53	140
54	60
55	631
56	100
57	571
58	60
59	190
60	30
61	230
63	50
65	30
66	30
67	230
68	80
69	771
70	90
71	250
74	30
75	3984
76	300
77	1221
78	70
79	260
80	70
81	520
82	100
83	741
84	50
85	360
87	90
89	490
90	40
91	170
93	390
94	40
95	330
96	70
97	2392
98	250
99	1321
100	120
101	500
102	40
103	110
105	601
106	40
107	310
109	150
111	330
112	90
113	430
114	60
115	540
116	60
117	390
118	30
119	490
120	40
121	170
123	70
125	240
126	100
127	2112
128	290
129	490
130	50
131	220
133	220
135	90
139	460
140	80
141	1401
142	310
143	841
144	120
145	170
153	80
154	30
155	601
156	661
157	3203
158	460
159	260
167	40
169	210
170	40
171	891
172	160
173	110
183	130
184	30
185	1491
186	220
187	70
197	70
199	70
211	50
213	100
233	50
239	50
241	60
255	50
257	1041
258	210
259	60
279	150
281	1301
282	310
283	90
295	80
297	60
299	400
300	80
309	40
311	40
323	30
325	9999
326	2542
327	661
328	90
339	3573
340	921
341	180
353	100
354	40
