Mass Spectrum: D-Alanine, N-ethoxycarbonyl-, ethyl ester
Formula: C8 H15 N O4
Molecular weight: 189
Origin: V.G. Zaikin, R.S.Borisov, TIPS RAS, Moscow, Russia
m/z	RELATIVE INTENSITY
26	80
27	581
28	781
29	1972
30	50
31	240
40	30
41	120
42	510
43	180
44	5835
45	390
46	50
47	30
54	20
55	180
56	290
57	90
63	220
68	80
69	120
70	1251
71	120
72	751
73	70
74	140
83	120
84	20
88	290
102	90
115	30
116	9999
117	571
118	40
144	150
189	10
