Mass Spectrum: Silane, dimethyl(3-phenylprop-2-enyloxy)propoxy-
Formula: C14 H22 O2 Si
Molecular weight: 250
Origin: V.G. Zaikin, R.S.Borisov, TIPS RAS, Moscow, Russia
m/z	RELATIVE INTENSITY
27	60
39	140
41	60
43	150
45	320
47	190
50	20
51	100
52	20
58	130
59	290
60	70
61	200
62	30
63	110
65	160
74	100
75	4964
76	490
77	901
78	80
79	50
87	40
88	80
89	230
90	40
91	1261
92	40
93	200
94	20
95	1071
96	530
97	20
99	60
101	200
102	160
103	150
104	160
105	240
110	80
113	20
114	50
115	4154
116	3123
117	9999
118	1441
119	1171
120	100
121	90
128	40
129	340
130	70
131	200
132	240
133	160
135	150
137	160
143	30
145	300
146	210
147	140
148	40
149	50
151	10
159	90
160	20
161	50
162	160
163	110
164	40
165	60
173	30
174	60
175	681
176	120
177	721
178	100
179	440
180	50
181	70
189	671
190	901
191	1471
192	2632
193	651
194	130
203	20
205	50
207	3033
208	530
209	150
221	360
222	60
223	40
235	1191
236	210
237	50
249	1882
250	4174
251	921
252	240
253	10
