Mass Spectrum: Silane, dimethyl(2-hexyloxy)octyloxy-
Formula: C16 H36 O2 Si
Molecular weight: 288
Origin: V.G. Zaikin, R.S.Borisov, TIPS RAS, Moscow, Russia
m/z	RELATIVE INTENSITY
27	130
29	300
39	100
41	520
42	100
43	601
45	130
47	110
53	30
54	20
55	480
56	80
57	180
58	90
59	270
60	50
61	280
63	70
67	80
68	40
69	1171
70	80
71	90
73	30
74	70
75	3393
76	260
77	1882
78	100
79	70
81	50
82	20
83	90
84	70
85	60
87	190
88	100
89	571
90	70
91	190
93	130
97	20
99	170
100	30
101	631
102	90
103	921
104	90
105	170
111	180
112	20
113	70
115	490
116	50
117	180
118	20
119	200
121	50
127	30
129	360
130	40
131	360
132	30
133	220
143	120
145	360
146	30
147	20
159	571
160	70
161	60
171	90
173	200
174	20
175	40
185	20
186	20
187	3163
188	510
189	2462
190	350
191	100
201	20
215	50
217	30
231	9999
232	1842
233	520
234	40
257	20
273	3343
274	731
275	180
287	70
