Mass Spectrum: Silane, dimethyl(3-phenylprop-2-enyloxy)isobutoxy-
Formula: C15 H24 O2 Si
Molecular weight: 264
Origin: V.G. Zaikin, R.S.Borisov, TIPS RAS, Moscow, Russia
m/z	RELATIVE INTENSITY
27	90
29	150
39	230
41	350
42	30
43	340
45	270
47	210
50	40
51	110
52	30
53	20
55	40
56	20
57	581
58	230
59	320
60	80
61	240
62	30
63	120
64	10
65	170
73	70
74	130
75	7737
76	631
77	1501
78	120
79	50
85	90
87	40
88	160
89	631
90	80
91	2182
92	70
93	130
95	851
96	230
99	70
101	200
102	180
103	170
104	330
105	400
106	30
107	40
110	70
113	50
114	60
115	5545
116	3503
117	9999
118	1451
119	120
121	40
125	40
128	80
129	651
130	120
131	1351
132	170
133	981
135	420
136	50
137	370
138	30
143	50
145	280
146	340
147	260
148	80
149	270
150	40
151	150
157	20
158	20
159	260
160	90
161	180
162	200
163	110
164	40
165	60
173	100
174	90
175	671
176	130
177	711
178	120
179	40
189	1261
190	751
191	3233
192	2762
193	1421
194	270
195	40
203	50
205	50
206	30
207	7727
208	1471
209	400
210	30
219	40
221	901
222	170
235	150
236	30
237	10
249	951
250	160
251	40
263	1031
264	4624
265	991
266	280
267	20
