Mass Spectrum: Silane, dimethyl(2-methyloct-5-yn-4-yloxy)octyloxy-
Formula: C19 H38 O2 Si
Molecular weight: 326
Origin: V.G. Zaikin, R.S.Borisov, TIPS RAS, Moscow, Russia
m/z	RELATIVE INTENSITY
26	20
27	200
29	330
39	150
41	470
43	1051
47	130
51	30
52	20
53	140
54	50
55	811
56	170
57	561
58	60
59	350
60	80
61	520
65	100
66	50
67	410
68	30
71	50
75	3573
77	1501
78	50
80	80
81	450
83	380
85	60
86	20
89	611
90	30
91	270
93	530
94	50
96	40
108	30
110	40
112	370
113	1131
114	30
115	370
121	370
122	60
123	100
126	80
128	80
130	30
131	210
132	80
133	110
135	70
137	70
140	120
141	2642
143	661
144	70
145	310
149	50
151	30
155	400
157	1051
158	160
159	130
161	100
163	150
165	40
167	110
169	430
170	190
171	5895
172	140
173	340
177	170
182	30
183	791
185	370
186	60
187	2382
188	130
189	200
197	360
198	200
199	80
200	30
201	80
211	320
212	30
213	300
215	20
223	40
224	40
225	1752
226	330
227	130
228	90
229	20
239	280
240	30
241	160
255	310
256	40
257	611
270	9999
271	1091
272	120
273	50
283	20
284	70
297	1802
298	631
299	140
311	2923
312	781
313	200
326	140
327	110
