Mass Spectrum: Silane, dimethyl(4-phenylphenoxy)butoxy-
Formula: C18 H24 O2 Si
Molecular weight: 300
Origin: V.G. Zaikin, R.S.Borisov, TIPS RAS, Moscow, Russia
m/z	RELATIVE INTENSITY
27	20
29	40
39	20
41	80
43	90
45	30
47	20
55	90
56	30
57	40
58	20
59	60
61	20
69	30
75	741
76	70
77	150
83	240
89	80
91	20
98	30
99	30
101	20
102	20
105	20
106	10
113	1011
114	320
115	160
126	20
127	40
128	60
129	20
131	220
132	20
139	60
141	160
142	20
150	20
151	120
152	530
153	190
154	190
155	30
165	200
166	60
167	210
168	50
169	100
170	130
171	30
181	40
183	70
195	20
196	20
197	100
211	1832
212	380
213	500
214	80
215	20
225	80
226	20
227	1842
228	510
229	3043
230	611
231	160
237	20
241	40
242	30
243	50
244	260
245	50
255	20
257	180
258	40
285	470
286	110
287	20
298	20
299	20
300	9999
301	2532
302	671
303	90
