Mass Spectrum: Silane, dimethyl(4-methylpent-2-yloxy)butoxy-
Formula: C12 H28 O2 Si
Molecular weight: 232
Origin: V.G. Zaikin, R.S.Borisov, TIPS RAS, Moscow, Russia
m/z	RELATIVE INTENSITY
27	40
29	60
39	60
41	200
42	20
43	140
45	150
47	120
55	80
56	50
57	50
58	90
59	240
60	40
61	190
63	60
69	190
71	30
74	60
75	3023
76	240
77	1822
78	100
79	60
83	50
84	70
85	70
87	100
88	80
89	520
90	60
91	210
93	50
99	40
101	210
102	50
103	1191
104	110
105	160
115	210
116	20
117	230
119	120
129	40
131	4684
132	550
133	2322
134	230
143	20
145	250
146	20
147	50
159	310
160	30
161	651
162	70
173	20
175	9999
176	1431
177	410
178	20
189	861
190	130
217	2022
218	320
219	80
231	80
