Mass Spectrum: Silane, dimethyl(3-ethylphenoxy)ethoxy-
Formula: C12 H20 O2 Si
Molecular weight: 224
Origin: V.G. Zaikin, R.S.Borisov, TIPS RAS, Moscow, Russia
m/z	RELATIVE INTENSITY
26	30
27	150
29	160
39	120
41	50
43	140
45	470
47	280
50	40
51	150
52	30
53	40
58	50
59	821
60	80
61	270
62	30
63	120
64	40
65	140
66	10
67	60
68	150
73	240
74	100
75	2092
76	220
77	1261
78	250
79	330
81	90
82	2242
83	671
85	40
87	50
88	30
89	731
90	350
91	961
92	70
93	70
95	90
97	80
101	30
102	60
103	1341
104	581
105	470
106	40
107	200
108	50
109	30
111	20
115	60
117	60
119	310
120	50
121	210
122	50
123	70
133	70
135	601
136	60
137	250
145	30
147	160
148	70
149	661
150	110
151	571
152	90
153	160
161	440
162	50
163	1271
164	220
165	4184
166	591
167	190
177	260
178	100
179	1601
180	290
181	3103
182	420
183	110
189	50
191	60
193	60
195	110
196	40
205	20
207	130
209	9999
210	1611
211	400
212	20
223	50
224	8047
225	1321
226	350
