Mass Spectrum: Malonic acid, 3,3-dimethylbut-2-yl isobutyl ester
Formula: C13 H24 O4
Molecular weight: 244
Origin: V.G. Zaikin, R.S.Borisov, TIPS RAS, Moscow, Russia
m/z	RELATIVE INTENSITY
26	30
27	480
29	1221
30	20
39	480
40	60
41	2612
42	991
43	2963
53	100
54	30
55	470
56	1942
57	9999
58	360
59	20
60	671
61	150
67	70
68	30
69	1501
70	140
71	150
72	50
73	80
83	621
84	1091
85	8578
86	641
87	2632
88	80
89	40
100	50
101	1832
102	80
104	500
105	891
106	30
113	40
115	150
116	510
117	40
118	70
125	260
126	20
127	20
130	50
132	1692
133	971
134	60
143	4894
144	340
145	160
159	20
160	50
161	120
171	50
172	70
173	20
187	40
188	991
189	220
190	20
229	90
