Mass Spectrum: Silane, dimethyl(tetrahydrofurfuryloxy)heptadecyloxy-
Formula: C24 H50 O3 Si
Molecular weight: 414
Origin: V.G. Zaikin, R.S.Borisov, TIPS RAS, Moscow, Russia
m/z	RELATIVE INTENSITY
26	20
27	110
29	210
39	100
40	20
41	631
42	160
43	1311
44	20
45	40
53	30
54	100
55	701
56	190
57	851
58	90
59	180
60	20
61	180
67	320
68	140
69	781
70	1762
71	9999
72	450
73	20
75	2272
76	160
77	701
78	30
79	30
81	190
82	140
83	510
84	510
85	480
86	20
87	60
88	80
89	621
90	80
91	310
93	170
95	150
96	70
97	370
98	50
99	130
101	340
102	30
103	540
104	40
105	160
107	831
108	60
109	80
110	20
111	140
112	20
113	60
114	130
115	250
116	80
117	340
118	50
119	150
121	40
125	40
127	40
129	350
130	1121
131	340
132	500
133	120
134	20
141	240
142	40
143	190
144	30
145	1161
146	130
147	80
156	20
157	150
158	571
159	6186
160	881
161	851
162	80
163	20
171	20
173	90
174	20
175	100
187	10
236	20
281	40
297	20
313	120
314	20
327	20
329	70
331	20
343	150
344	30
345	100
346	20
355	70
369	20
370	80
371	40
383	420
384	190
385	50
396	30
399	2472
400	761
401	200
402	30
