Mass Spectrum: Silane, dimethyl(3-methylbut-2-enyloxy)undecyloxy-
Formula: C18 H38 O2 Si
Molecular weight: 314
Origin: V.G. Zaikin, R.S.Borisov, TIPS RAS, Moscow, Russia
m/z	RELATIVE INTENSITY
27	40
29	90
39	80
40	20
41	530
42	70
43	350
45	50
47	40
53	90
54	50
55	540
56	70
57	350
58	40
59	120
60	20
61	160
63	40
66	20
67	250
68	691
69	1311
70	120
71	280
73	40
74	60
75	3663
76	310
77	1682
78	100
79	90
81	400
82	180
83	701
84	70
85	70
86	20
87	60
88	30
89	480
90	50
91	230
92	20
93	90
95	190
96	110
97	751
98	60
99	110
101	360
102	30
103	180
105	500
106	40
107	30
109	120
110	70
111	200
112	20
113	160
114	20
115	200
116	30
117	350
118	30
119	80
123	40
124	40
125	30
127	230
128	50
129	891
130	110
131	310
132	30
133	40
141	220
142	80
143	320
144	50
145	811
146	100
147	330
148	30
152	140
155	20
157	130
158	20
159	3873
160	561
161	200
163	70
171	90
172	20
173	831
174	100
175	80
185	50
187	30
199	30
201	520
202	80
203	20
213	100
214	20
215	60
227	50
229	1551
230	300
231	1191
232	200
233	30
243	120
244	20
245	120
246	10
257	1131
258	230
259	230
260	40
271	150
272	20
297	40
299	9999
300	2602
301	430
302	30
313	110
314	691
315	170
316	40
