Mass Spectrum: Fumaric acid, ethyl tetradec-3-enyl ester
Formula: C20 H34 O4
Molecular weight: 338
Origin: V.G. Zaikin, R.S.Borisov, TIPS RAS, Moscow, Russia
m/z	RELATIVE INTENSITY
26	160
27	540
28	250
29	631
30	30
31	30
36	20
37	40
39	460
40	120
41	3493
42	1101
43	3924
44	50
45	90
47	210
51	30
53	510
54	1611
55	6246
56	2682
57	3904
58	180
65	90
66	280
67	4494
68	6566
69	6396
70	2102
71	2232
72	210
73	70
77	110
78	20
79	300
80	410
81	6476
82	9999
83	4434
84	951
85	1281
86	90
88	20
91	30
93	330
94	360
95	6126
96	6176
97	2472
98	601
99	4494
100	2322
101	651
102	40
104	40
105	60
106	20
107	230
108	250
109	3413
110	2602
111	1001
112	330
113	220
114	60
115	30
117	4314
118	290
119	110
120	40
121	330
122	210
123	1862
124	1341
125	420
126	220
127	6356
128	3513
129	1161
130	100
131	30
133	40
134	40
135	290
136	80
137	961
138	821
139	280
140	150
141	210
142	90
143	110
144	20
145	9819
146	1001
147	260
148	90
149	260
150	190
151	500
152	480
153	270
154	140
155	210
156	110
157	90
161	40
162	60
163	150
164	150
165	330
166	310
167	160
168	110
169	170
170	70
171	60
173	130
174	20
175	40
176	40
177	70
178	100
179	100
180	100
181	130
182	60
183	150
184	70
185	100
187	90
188	20
189	30
190	40
191	40
192	320
193	280
194	470
195	160
196	100
197	110
198	20
199	40
201	100
203	30
204	20
205	40
206	50
208	30
209	80
210	280
211	200
212	30
215	60
217	20
219	50
220	30
221	70
222	90
223	50
224	90
225	60
229	80
232	60
233	40
235	80
236	120
237	60
238	30
239	40
243	20
246	40
247	110
248	60
249	90
250	480
251	160
252	20
253	20
257	70
263	100
264	430
265	170
266	30
267	30
274	110
275	100
277	30
292	1151
293	1782
294	350
295	90
309	20
338	170
339	30
