Mass Spectrum: Silane, dimethyl(3-methylbut-2-enyloxy)octyloxy-
Formula: C15 H32 O2 Si
Molecular weight: 272
Origin: V.G. Zaikin, R.S.Borisov, TIPS RAS, Moscow, Russia
m/z	RELATIVE INTENSITY
26	10
27	120
29	190
39	160
40	40
41	851
42	110
43	420
45	160
47	150
53	150
54	40
55	691
56	90
57	280
58	50
59	270
60	70
61	290
62	20
63	100
64	60
65	20
66	20
67	330
68	931
69	2212
70	170
71	160
74	80
75	5525
76	440
77	2863
78	170
79	170
81	510
82	90
83	150
84	20
85	60
86	20
87	120
88	50
89	731
90	90
91	300
92	20
93	90
95	110
97	40
99	170
101	520
102	50
103	260
104	20
105	601
106	40
107	30
109	110
110	200
111	180
112	20
113	220
114	30
115	260
116	30
117	460
118	40
119	100
123	20
125	40
127	300
128	60
129	1171
130	150
131	380
132	40
133	30
141	290
142	80
143	330
144	50
145	951
146	110
147	300
148	20
155	20
157	120
158	20
159	3763
160	520
161	180
171	180
172	30
173	821
174	110
175	80
185	90
186	20
187	2532
188	410
189	1732
190	250
191	50
199	40
201	671
202	80
203	200
204	20
215	951
216	160
217	230
218	20
229	200
230	30
241	20
243	50
257	9999
258	2102
259	731
260	80
271	110
272	911
273	180
274	40
