Mass Spectrum: Silane, dimethyl(oct-3-en-2-yloxy)propoxy-
Formula: C13 H28 O2 Si
Molecular weight: 244
Origin: V.G. Zaikin, R.S.Borisov, TIPS RAS, Moscow, Russia
m/z	RELATIVE INTENSITY
27	130
29	60
39	150
41	440
43	180
45	280
47	280
53	130
54	40
55	510
58	80
59	400
60	90
61	330
62	30
63	140
64	20
65	50
66	30
67	280
68	170
69	240
74	110
75	6826
76	571
77	3243
78	220
79	400
81	210
85	60
87	90
88	50
89	210
90	40
91	90
93	60
95	220
97	40
99	180
101	310
102	40
103	330
104	20
105	240
109	60
110	60
111	80
113	310
115	400
116	180
117	8638
118	931
119	3843
120	370
121	130
123	30
125	60
127	400
128	170
129	1581
130	220
131	500
132	150
133	170
141	180
142	50
143	771
144	100
145	510
146	50
147	60
155	20
157	120
158	20
159	1131
160	140
161	300
162	30
169	40
171	641
172	90
173	561
174	1121
175	160
176	40
183	20
184	40
185	200
186	50
187	9999
188	1762
189	510
190	40
201	1772
202	410
203	90
215	1201
216	200
217	40
229	3533
230	631
231	150
243	160
244	821
245	160
246	30
