Mass Spectrum: Silane, dimethyl(4-heptyloxy)dimethylamino-
Formula: C11 H27 N O Si
Molecular weight: 217
Origin: V.G. Zaikin, R.S.Borisov, TIPS RAS, Moscow, Russia
m/z	RELATIVE INTENSITY
27	220
29	200
31	60
39	130
40	20
41	450
42	390
43	400
44	1021
45	390
46	70
47	210
53	30
55	160
56	80
57	120
58	430
59	2602
60	200
61	811
62	30
63	20
65	30
67	20
69	60
70	30
71	30
72	260
73	70
74	100
75	2552
76	190
77	190
78	70
79	30
83	260
84	20
85	40
86	280
87	220
88	410
89	120
90	50
99	60
100	70
101	500
102	9999
103	1291
104	6556
105	591
106	240
113	30
114	20
115	100
116	40
117	90
118	530
119	230
120	3413
121	330
122	120
128	30
129	80
130	290
131	390
132	60
133	90
142	30
143	110
144	290
145	70
146	791
147	260
148	40
157	20
158	60
160	1061
161	250
162	50
171	20
172	50
173	70
174	4514
175	981
176	240
188	981
189	190
190	40
202	801
203	400
204	70
205	20
216	120
217	2672
218	490
219	120
