Mass Spectrum: Silane, dimethyl(3,5-dichlorophenoxy)isobutoxy-
Formula: C12 H18 Cl2 O2 Si
Molecular weight: 292
Origin: V.G. Zaikin, R.S.Borisov, TIPS RAS, Moscow, Russia
m/z	RELATIVE INTENSITY
27	110
29	190
39	130
41	350
42	40
43	340
45	260
47	150
50	20
51	40
53	60
55	80
56	180
57	130
58	260
59	220
60	50
61	80
62	50
63	520
64	20
65	90
73	30
74	110
75	2793
76	210
77	350
78	30
79	40
85	20
88	110
89	120
91	190
93	751
94	50
95	671
96	40
97	140
99	90
101	30
103	40
105	50
109	350
110	240
111	90
112	20
113	561
114	30
115	561
116	20
117	140
119	30
124	30
125	110
127	80
128	20
129	80
131	691
132	60
133	60
135	20
137	20
139	30
141	50
143	20
145	230
146	20
147	170
148	50
149	70
151	20
155	120
157	110
158	20
159	160
160	20
161	100
163	30
165	20
168	20
169	290
170	60
171	160
172	20
173	20
175	20
177	70
179	50
181	20
182	30
183	100
184	120
185	230
186	130
187	100
188	20
189	400
190	40
191	280
192	20
193	100
195	30
199	90
200	30
201	40
203	150
204	20
205	200
206	20
207	80
213	40
215	30
217	50
218	20
219	7457
220	1051
221	9999
222	1311
223	4404
224	540
225	691
226	60
231	40
233	170
235	200
236	1712
237	310
238	1151
239	150
240	200
241	20
247	30
249	3293
250	500
251	2262
252	330
253	420
254	50
257	20
259	50
261	20
277	1451
278	220
279	951
280	130
281	180
282	20
291	20
292	2853
293	540
294	2022
295	350
296	360
297	50
