Mass Spectrum: Silane, dimethyldi(2,3-dimethylphenoxy)-
Formula: C18 H24 O2 Si
Molecular weight: 300
Origin: V.G. Zaikin, R.S.Borisov, TIPS RAS, Moscow, Russia
m/z	RELATIVE INTENSITY
27	20
39	90
45	60
47	30
50	20
51	110
52	40
53	80
59	180
61	50
63	70
65	170
66	20
75	400
76	40
77	781
78	260
79	340
82	20
89	60
90	30
91	731
92	110
93	40
102	50
103	430
104	150
105	2482
106	210
107	110
109	30
115	100
116	30
117	70
118	20
119	260
120	50
121	280
122	70
123	20
127	50
128	20
133	60
134	150
135	520
136	40
137	50
141	90
142	290
143	30
145	80
147	180
148	170
149	861
150	420
151	130
152	10
159	20
161	330
162	210
163	2642
164	480
165	330
166	50
167	20
175	120
176	30
177	460
178	3263
179	2312
180	450
181	150
191	40
192	50
193	90
194	40
195	40
209	60
210	50
223	50
225	30
237	40
239	30
251	40
252	20
255	140
256	20
265	30
267	3153
268	791
269	300
270	110
271	20
283	110
284	80
285	2022
286	500
287	120
299	100
300	9999
301	2512
302	701
303	90
