Mass Spectrum: Silane, dimethyl(3-methylbut-2-enyloxy)isobutoxy-
Formula: C11 H24 O2 Si
Molecular weight: 216
Origin: V.G. Zaikin, R.S.Borisov, TIPS RAS, Moscow, Russia
m/z	RELATIVE INTENSITY
26	20
27	180
29	190
39	280
40	60
41	931
42	70
43	280
45	450
46	10
47	390
51	20
53	220
54	20
55	370
56	40
57	240
58	200
59	340
60	150
61	360
62	20
63	140
64	170
65	20
67	340
68	861
69	601
73	30
74	180
75	9999
76	821
77	5285
78	310
79	270
81	1091
82	70
83	270
87	50
88	100
89	641
90	110
91	110
93	70
97	20
99	100
101	220
102	20
103	120
105	300
109	230
111	100
113	340
114	20
115	170
116	40
117	781
118	60
119	661
120	40
125	40
127	330
128	110
129	1231
130	130
131	3123
132	370
133	2212
134	230
135	90
141	500
142	90
143	480
144	50
145	951
146	140
147	941
148	90
149	30
155	50
157	100
159	3123
160	400
161	380
162	30
163	160
164	20
165	70
171	20
173	1371
174	180
175	50
185	30
201	7086
202	1151
203	591
204	50
205	30
215	90
216	2933
217	490
218	120
