Mass Spectrum: Silane, dimethyl(2,4-dichlorophenoxy)isobutoxy-
Formula: C12 H18 Cl2 O2 Si
Molecular weight: 292
Origin: V.G. Zaikin, R.S.Borisov, TIPS RAS, Moscow, Russia
m/z	RELATIVE INTENSITY
45	20
58	30
59	20
63	130
65	50
75	1161
76	80
88	20
93	1431
94	80
95	1231
96	40
97	100
98	60
99	20
109	120
110	70
125	220
126	50
127	50
131	661
132	40
148	40
149	20
151	10
159	30
162	300
164	200
169	100
170	20
171	40
183	871
184	170
185	2813
186	480
187	921
188	120
189	140
191	50
199	30
203	20
205	240
207	160
219	9108
220	1321
221	9999
222	1281
223	3803
224	400
225	510
235	30
236	20
249	150
251	80
257	30
277	8918
278	1481
279	6366
280	941
281	1291
282	180
283	30
292	5365
293	1061
294	3863
295	621
296	751
297	80
