Mass Spectrum: Silane, dimethyl(4-methoxyphenoxy)octyloxy-
Formula: C17 H30 O3 Si
Molecular weight: 310
Origin: V.G. Zaikin, R.S.Borisov, TIPS RAS, Moscow, Russia
m/z	RELATIVE INTENSITY
29	30
39	20
41	160
43	120
55	250
56	30
57	30
59	70
69	651
70	30
75	971
76	40
77	90
83	30
89	140
90	230
101	60
108	70
109	60
121	160
123	50
124	90
151	120
165	50
166	40
167	160
168	30
179	30
181	1742
182	270
183	1972
184	260
185	90
187	230
195	90
197	70
198	400
199	40
211	210
295	120
310	9999
311	2442
312	651
313	60
