Mass Spectrum: Silane, dimethyl(4-isopropoxyphenoxy)isohexyloxy-
Formula: C17 H30 O3 Si
Molecular weight: 310
Origin: V.G. Zaikin, R.S.Borisov, TIPS RAS, Moscow, Russia
m/z	RELATIVE INTENSITY
27	70
29	40
39	60
41	270
42	60
43	561
45	40
47	30
55	90
56	50
57	20
59	40
75	540
76	30
77	40
83	80
85	110
91	40
110	80
135	20
136	180
137	50
149	30
151	961
152	130
153	130
165	30
166	9999
167	2342
168	741
169	130
179	20
193	40
209	160
210	20
252	20
253	90
310	1401
311	320
312	80
