Mass Spectrum: Silane, dimethyl(non-3-enyloxy)propoxy-
Formula: C14 H30 O2 Si
Molecular weight: 258
Origin: V.G. Zaikin, R.S.Borisov, TIPS RAS, Moscow, Russia
m/z	RELATIVE INTENSITY
26	10
27	170
29	290
39	170
41	611
42	80
43	160
45	260
47	170
51	10
52	10
53	120
54	260
55	290
57	80
58	210
59	410
60	70
61	280
62	10
63	50
65	30
66	60
67	510
68	611
69	110
70	10
71	20
72	10
73	30
74	60
75	3743
76	270
77	1141
78	60
79	90
80	20
81	550
82	601
83	50
85	70
87	120
88	210
89	4264
90	370
91	300
92	10
93	40
95	380
96	220
97	130
98	20
99	220
100	50
101	591
102	60
103	240
104	20
105	170
109	50
110	10
111	60
112	30
113	170
114	40
115	290
116	20
117	6136
118	651
119	701
120	50
121	10
123	70
124	1631
125	140
127	260
128	30
129	230
130	20
131	240
132	20
133	60
135	40
137	50
141	60
142	40
143	120
144	10
145	300
146	20
147	9999
148	1181
149	410
150	10
155	40
157	90
159	40
160	20
163	10
169	30
171	50
173	120
174	10
183	180
184	20
185	470
186	50
187	60
198	10
199	621
200	100
201	40
213	10
215	30
229	320
230	40
243	611
244	110
258	50
