Mass Spectrum: Silane, dimethyl(3-methylbut-2-enyloxy)heptyloxy-
Formula: C14 H30 O2 Si
Molecular weight: 258
Origin: V.G. Zaikin, R.S.Borisov, TIPS RAS, Moscow, Russia
m/z	RELATIVE INTENSITY
27	150
29	220
39	180
40	30
41	1171
42	40
43	180
45	280
47	230
53	210
54	20
55	1111
57	150
58	60
59	430
60	100
61	420
62	20
63	140
64	110
65	20
67	370
68	1181
69	3593
72	20
73	370
74	160
75	7477
76	591
77	4234
78	240
79	240
81	540
86	50
87	180
88	80
89	1021
90	140
91	450
92	30
93	120
95	160
96	160
97	871
99	170
100	20
101	661
102	60
103	250
104	30
105	761
106	50
107	40
109	80
113	280
114	30
115	360
116	50
117	571
118	50
119	160
125	70
126	30
127	380
128	60
129	1521
130	190
131	450
132	40
133	200
134	20
141	310
142	110
143	360
144	50
145	1111
146	120
147	360
148	30
155	30
157	100
158	30
159	4054
160	540
161	180
168	50
171	140
172	30
173	4464
174	631
175	2452
176	330
177	90
185	60
187	150
189	200
190	20
191	30
193	70
199	20
201	1481
202	220
203	290
204	30
215	250
216	30
227	20
229	30
243	9999
244	1982
245	811
246	100
257	100
258	871
259	170
260	30
