Mass Spectrum: Silane, dimethyl(undec-2-enyloxy)propoxy-
Formula: C16 H34 O2 Si
Molecular weight: 286
Origin: V.G. Zaikin, R.S.Borisov, TIPS RAS, Moscow, Russia
m/z	RELATIVE INTENSITY
26	30
27	240
29	410
39	260
40	30
41	1041
42	160
43	911
45	250
47	200
53	150
54	470
55	641
56	80
57	150
58	90
59	420
60	70
61	420
62	20
63	110
65	40
66	70
67	761
68	460
69	350
70	40
71	30
72	20
74	110
75	6786
76	550
77	4014
78	240
79	190
80	60
81	951
82	821
83	330
84	40
85	110
87	90
88	60
89	550
90	70
91	190
93	380
94	40
95	971
96	611
97	180
98	40
99	430
100	50
101	611
102	60
103	340
105	761
106	50
107	40
109	450
110	270
111	150
112	20
113	440
114	110
115	1732
116	200
117	8428
118	911
119	5845
120	571
121	240
123	160
124	270
125	60
127	170
128	60
129	861
130	120
131	1231
132	140
133	180
135	540
136	40
137	40
141	110
142	20
143	350
144	70
145	1321
146	130
147	370
148	30
151	190
152	390
153	40
155	120
157	210
158	30
159	280
160	60
165	30
169	60
171	160
172	20
173	9999
174	1441
175	450
176	20
183	20
185	110
186	20
187	1962
188	300
189	70
199	80
201	200
202	20
211	240
212	30
213	661
214	100
215	390
216	60
226	20
227	140
228	20
229	1321
230	230
231	60
241	40
243	1011
244	180
245	40
257	821
258	150
259	30
271	2092
272	430
273	60
285	100
286	781
287	160
288	40
