Mass Spectrum: Silane, dimethyldi(3-ethylphenoxy)-
Formula: C18 H24 O2 Si
Molecular weight: 300
Origin: V.G. Zaikin, R.S.Borisov, TIPS RAS, Moscow, Russia
m/z	RELATIVE INTENSITY
27	40
29	80
39	50
45	50
47	20
51	60
52	20
53	30
59	170
61	50
63	50
64	20
65	80
73	100
74	20
75	420
76	50
77	500
78	150
79	170
82	100
85	30
89	130
90	100
91	350
92	40
93	30
95	60
102	30
103	240
104	100
105	210
106	20
107	50
109	30
115	70
117	40
119	80
120	30
121	120
123	50
127	30
128	50
131	20
134	40
135	1331
137	100
141	20
142	160
143	20
145	40
147	110
148	90
149	410
150	80
151	370
152	70
153	30
161	310
162	70
163	360
164	90
165	360
166	60
167	20
175	30
177	450
178	530
179	1581
180	280
181	100
211	130
212	30
213	80
223	140
224	70
227	60
228	20
235	20
237	40
238	20
239	1141
240	260
241	490
242	120
243	120
244	20
251	70
252	40
256	110
257	20
265	170
266	40
267	4324
268	1061
269	340
270	50
271	180
272	40
283	20
284	50
285	1521
286	370
287	90
299	50
300	9999
301	2442
302	691
303	90
