Mass Spectrum: Silane, dimethyldi(3-methylpentyloxy)-
Formula: C14 H32 O2 Si
Molecular weight: 260
Origin: V.G. Zaikin, R.S.Borisov, TIPS RAS, Moscow, Russia
m/z	RELATIVE INTENSITY
27	170
28	180
29	450
39	70
43	320
45	50
47	30
53	30
55	410
57	370
58	20
59	110
61	110
66	20
67	10
69	140
74	20
75	751
76	50
77	230
83	9999
84	510
85	410
86	80
87	80
88	80
89	911
90	60
91	170
92	80
93	30
99	20
101	110
102	20
103	110
105	150
107	20
109	20
115	60
117	160
119	200
129	20
131	50
133	40
143	40
145	40
159	120
161	20
173	20
175	20
177	30
189	140
190	10
245	1882
246	370
247	90
