Mass Spectrum: Silane, dimethyl(non-5-yn-3-yloxy)decyloxy-
Formula: C21 H42 O2 Si
Molecular weight: 354
Origin: V.G. Zaikin, R.S.Borisov, TIPS RAS, Moscow, Russia
m/z	RELATIVE INTENSITY
27	60
29	140
39	50
41	300
42	40
43	360
45	50
47	40
51	20
52	30
53	70
54	30
55	320
56	50
57	360
58	40
59	270
61	230
67	50
68	30
69	400
70	30
71	150
74	20
75	3033
76	200
77	380
78	20
79	80
80	20
81	90
82	20
83	861
84	50
85	130
87	100
88	40
89	490
90	20
91	20
93	110
95	70
97	440
98	20
99	180
101	440
102	30
103	30
105	70
111	40
113	70
115	350
116	30
117	1551
118	140
125	70
127	60
129	160
131	140
133	651
134	60
135	30
139	300
140	60
141	50
143	110
145	170
147	120
151	20
153	40
155	20
157	50
159	40
167	20
169	490
170	50
171	40
173	100
183	140
185	30
187	20
197	440
198	60
199	60
201	20
213	30
215	2883
216	480
217	140
219	30
221	20
227	190
228	20
243	30
247	60
273	9999
274	2052
275	500
276	50
277	50
279	30
281	230
282	40
339	601
340	140
341	20
