Mass Spectrum: Silane, dimethyl(4-ethylphenoxy)pentyloxy-
Formula: C15 H26 O2 Si
Molecular weight: 266
Origin: V.G. Zaikin, R.S.Borisov, TIPS RAS, Moscow, Russia
m/z	RELATIVE INTENSITY
26	20
27	130
29	230
39	120
41	390
43	741
45	180
47	210
51	70
53	30
55	50
58	80
59	821
60	50
61	290
63	40
65	70
69	410
70	20
71	170
74	60
75	3443
76	270
77	611
78	140
79	100
81	40
82	581
83	30
85	40
87	20
88	20
89	440
90	70
91	691
92	50
95	20
97	30
99	50
101	110
102	40
103	320
104	150
105	370
106	30
107	90
115	80
117	50
119	140
120	30
121	150
122	30
123	20
129	20
133	50
135	1081
136	110
137	300
145	701
146	60
147	611
148	180
149	1081
150	150
151	831
152	90
153	230
161	1071
162	200
163	5565
164	891
165	2913
166	410
167	280
168	20
177	6226
178	6236
179	3683
180	681
181	2222
182	320
183	130
191	20
193	40
195	2192
196	891
197	190
209	841
210	130
211	20
237	50
251	3423
252	661
253	180
265	20
266	9999
267	2022
268	530
269	50
