Mass Spectrum: Silane, dimethyl(oct-3-en-2-yloxy)butoxy-
Formula: C14 H30 O2 Si
Molecular weight: 258
Origin: V.G. Zaikin, R.S.Borisov, TIPS RAS, Moscow, Russia
m/z	RELATIVE INTENSITY
26	20
27	190
29	230
39	190
41	621
42	20
43	200
45	270
47	260
53	130
54	60
55	721
56	80
57	90
58	80
59	400
60	80
61	330
62	20
63	110
65	40
66	30
67	270
68	210
69	300
70	20
74	100
75	7247
76	571
77	3493
78	210
79	170
81	190
82	20
85	40
87	90
88	60
89	681
90	70
91	360
92	20
93	70
95	190
97	70
98	20
99	170
101	330
102	40
103	250
104	20
105	340
109	130
110	80
111	150
113	310
114	40
115	460
116	70
117	170
119	60
123	30
125	50
127	350
128	170
129	1591
130	230
131	8087
132	1001
133	3483
134	330
135	90
141	140
142	50
143	540
144	70
145	1531
146	270
147	190
155	20
157	410
158	50
159	480
160	50
161	60
169	30
171	571
172	70
173	651
174	90
175	310
176	30
183	20
184	40
185	170
186	20
187	440
188	1121
189	150
190	40
199	70
200	20
201	9999
202	1772
203	490
204	40
215	2793
216	571
217	140
229	230
230	30
243	3363
244	641
245	160
257	120
258	831
259	150
260	30
