Mass Spectrum: Silane, dimethyl(dodec-9-ynyloxy)isohexyloxy-
Formula: C20 H40 O2 Si
Molecular weight: 340
Origin: V.G. Zaikin, R.S.Borisov, TIPS RAS, Moscow, Russia
m/z	RELATIVE INTENSITY
26	30
27	200
29	250
39	390
40	80
41	1641
42	170
43	2022
45	180
47	110
51	50
52	50
53	330
54	150
55	2512
56	641
57	460
58	120
59	490
60	60
61	651
63	140
65	180
66	150
67	2062
68	1852
69	1261
70	50
73	20
74	60
75	5835
76	420
77	4064
78	250
79	1431
80	370
81	2392
82	1972
83	9999
84	751
85	1651
86	60
87	250
88	150
89	1441
90	130
91	841
92	70
93	1712
94	420
95	3443
96	530
97	591
98	40
99	370
100	30
101	1111
102	90
103	540
104	20
105	711
106	70
107	2002
108	460
109	1341
110	160
111	120
113	290
114	30
115	981
116	70
117	430
118	20
119	370
120	40
121	2943
122	761
123	430
124	40
125	50
127	260
128	20
129	470
130	20
131	550
132	30
133	190
134	20
135	1742
136	350
137	120
139	60
141	240
143	400
144	30
145	310
147	60
149	180
151	20
153	70
155	210
157	360
158	30
159	761
160	60
161	360
162	20
163	3493
164	911
165	130
167	60
169	120
171	140
173	70
175	60
177	220
181	240
183	70
185	110
187	70
189	581
190	40
195	60
197	40
199	70
213	20
215	260
216	20
223	1241
224	210
225	6896
226	1251
227	340
229	50
239	30
241	50
243	70
244	30
253	40
255	140
256	40
257	230
258	30
259	180
269	1651
270	320
271	160
273	260
274	30
283	20
297	360
298	50
311	250
312	30
325	3023
326	701
327	160
340	80
