Mass Spectrum: Silane, dimethyl(2-isopropylphenoxy)butoxy-
Formula: C15 H26 O2 Si
Molecular weight: 266
Origin: V.G. Zaikin, R.S.Borisov, TIPS RAS, Moscow, Russia
m/z	RELATIVE INTENSITY
26	30
27	170
29	300
39	230
41	751
42	70
43	561
45	150
47	170
50	20
51	70
53	20
55	140
56	70
57	2472
58	270
59	841
60	40
61	240
63	50
65	90
69	40
73	1772
74	180
75	4824
76	330
77	771
78	120
79	50
81	70
82	40
88	40
89	821
90	30
91	981
92	60
93	30
95	50
102	30
103	190
104	100
105	150
107	80
115	400
116	50
117	160
118	160
119	50
120	30
121	400
122	30
123	30
129	100
131	450
133	160
134	30
135	1091
136	200
137	250
145	20
147	230
148	90
149	871
150	70
151	2182
152	230
153	240
154	30
161	1321
162	170
163	1982
164	250
165	330
167	40
175	460
176	40
177	9999
178	1641
179	5895
180	841
181	3103
182	360
183	50
191	4594
192	1461
193	1161
194	170
195	1361
196	160
197	60
205	40
207	90
208	30
209	530
210	170
223	180
233	1672
234	250
235	50
251	5075
252	891
253	180
266	9018
267	1832
268	400
