Mass Spectrum: Silane, dimethyl(2,6-dimethoxyphenoxy)octyloxy-
Formula: C18 H32 O4 Si
Molecular weight: 340
Origin: V.G. Zaikin, R.S.Borisov, TIPS RAS, Moscow, Russia
m/z	RELATIVE INTENSITY
29	40
39	40
41	160
42	70
43	200
55	270
56	140
57	90
59	70
61	20
65	30
68	30
69	320
70	100
71	60
75	731
76	30
77	60
79	40
81	50
83	80
84	80
85	20
89	90
91	80
93	50
95	30
96	30
105	60
107	60
111	80
112	20
121	20
123	20
136	30
137	50
138	350
139	240
151	190
152	20
153	480
154	510
155	290
165	50
166	280
167	140
168	80
169	70
179	70
180	40
181	881
182	360
183	330
184	60
187	30
195	140
196	3793
197	841
198	1651
199	240
200	50
209	240
210	60
211	3043
212	571
213	380
214	30
225	60
226	40
228	170
238	20
239	30
240	40
254	30
268	30
310	9999
311	2252
312	601
313	50
325	8648
326	2062
327	561
328	50
340	9639
341	2462
342	631
343	60
