Mass Spectrum: Silane, dimethyl(3-phenylprop-2-enyloxy)ethoxy-
Formula: C13 H20 O2 Si
Molecular weight: 236
Origin: V.G. Zaikin, R.S.Borisov, TIPS RAS, Moscow, Russia
m/z	RELATIVE INTENSITY
26	20
27	20
39	120
44	761
45	390
47	240
50	40
51	160
52	40
58	80
59	901
60	120
61	280
62	40
63	130
64	20
65	210
73	601
74	120
75	4014
76	390
77	280
78	110
87	90
88	90
91	1151
92	50
93	60
95	591
96	1091
97	170
99	20
101	150
102	230
103	5995
104	751
105	2382
106	190
107	60
110	340
113	20
114	70
115	4894
116	4244
117	9999
118	1561
119	170
121	210
128	40
129	130
130	60
131	340
132	290
133	60
135	80
137	110
143	30
148	20
149	70
157	20
159	130
160	20
161	70
162	230
163	160
164	60
165	771
166	100
167	20
174	50
175	1011
176	190
177	941
178	140
179	30
181	50
189	681
190	1491
191	1291
192	2793
193	520
194	90
207	1651
208	280
209	150
221	2022
222	350
223	90
235	3313
236	5625
237	1151
238	280
239	20
