Mass Spectrum: Silane, dimethyl(2-methoxyethoxy)octyloxy-
Formula: C13 H30 O3 Si
Molecular weight: 262
Origin: V.G. Zaikin, R.S.Borisov, TIPS RAS, Moscow, Russia
m/z	RELATIVE INTENSITY
27	100
29	260
39	80
41	410
42	70
43	370
45	410
47	100
53	20
55	500
56	50
57	150
58	290
59	711
60	90
61	530
63	20
67	70
68	30
69	1581
70	90
71	60
74	80
75	2402
76	170
77	440
81	40
83	40
85	30
87	140
88	210
89	3773
90	340
91	4334
92	280
93	210
99	100
101	360
102	40
103	440
104	60
105	430
106	20
107	110
110	50
111	120
113	20
115	270
116	20
117	731
118	80
119	1151
120	90
121	30
129	110
131	180
132	180
133	6406
134	671
135	310
143	20
145	60
147	100
149	30
159	80
161	50
171	50
185	20
187	1411
188	200
189	80
203	1101
204	140
205	30
215	40
217	1301
218	210
219	40
247	9999
248	1842
249	500
250	40
