Mass Spectrum: Silane, dimethyl(2,6-dimethylnon-1-en-3-yn-5-yloxy)silyloxy)(2,6-dimethylnon-1-en-3-yn-5-yloxy)-
Formula: C26 H46 O3 Si2
Molecular weight: 462
Origin: V.G. Zaikin, R.S.Borisov, TIPS RAS, Moscow, Russia
m/z	RELATIVE INTENSITY
27	70
29	120
39	130
41	380
42	30
43	871
51	50
52	70
53	100
55	380
57	130
63	50
65	130
66	90
67	120
69	520
71	160
73	50
77	711
78	280
79	801
80	70
81	250
83	80
91	941
92	170
93	1702
94	160
95	140
103	160
105	520
106	200
107	2382
108	230
113	190
115	150
117	180
119	811
120	100
121	721
122	60
123	100
127	60
128	90
129	220
131	130
132	50
133	3583
134	520
135	581
136	40
141	60
142	30
143	1491
144	260
145	140
147	70
148	110
149	9999
150	1391
151	981
152	100
153	50
155	70
156	30
157	430
158	50
159	70
160	450
161	50
165	50
167	100
169	60
171	561
172	170
173	40
177	520
178	60
179	40
181	110
183	200
184	40
185	90
187	30
189	30
195	60
197	911
198	180
199	561
200	90
201	70
209	40
211	290
212	40
213	50
214	70
215	60
225	370
226	90
227	631
228	140
229	70
231	420
232	60
233	70
239	40
241	40
243	460
244	80
245	30
247	180
248	30
253	100
255	40
267	40
279	30
281	90
291	741
292	190
293	90
295	40
297	330
298	70
299	220
300	40
305	130
306	30
307	90
313	280
314	50
319	100
320	180
321	270
322	80
333	30
347	50
349	90
362	50
363	30
377	60
389	110
391	1481
392	841
393	290
394	70
419	130
420	40
447	110
448	30
462	60
