Mass Spectrum: Silane, dimethyl(3,5-dichlorophenoxy)butoxy-
Formula: C12 H18 Cl2 O2 Si
Molecular weight: 292
Origin: V.G. Zaikin, R.S.Borisov, TIPS RAS, Moscow, Russia
m/z	RELATIVE INTENSITY
27	30
29	60
36	20
39	40
41	130
43	80
45	120
47	70
53	20
55	110
56	70
57	40
58	80
59	130
60	20
61	40
62	20
63	260
65	30
73	30
74	70
75	1702
76	140
77	230
78	20
79	30
85	20
87	30
88	40
89	220
90	20
91	120
93	430
94	30
95	520
96	30
97	160
98	20
99	60
101	60
103	30
105	30
109	410
110	310
111	120
112	20
113	330
115	450
116	20
117	100
119	20
123	40
124	30
125	100
126	20
127	70
129	30
131	1291
132	150
133	110
135	20
139	20
141	50
145	170
147	110
148	40
149	30
155	100
157	100
159	150
161	90
162	20
163	30
165	20
169	210
170	50
171	150
173	20
175	20
177	100
179	60
181	20
182	20
183	90
184	100
185	260
186	150
187	130
188	30
189	320
190	30
191	200
192	20
193	100
195	50
197	20
199	80
200	40
201	40
202	20
203	200
204	30
205	430
206	50
207	230
208	20
209	30
213	30
215	50
217	60
218	20
219	4754
220	791
221	9999
222	1441
223	5285
224	701
225	911
226	90
227	20
229	30
231	40
233	170
234	20
235	520
236	1531
237	490
238	1001
239	180
240	180
241	20
247	40
249	1912
250	290
251	1281
252	180
253	240
254	20
257	70
259	40
277	5325
278	971
279	3713
280	641
281	711
282	100
283	20
291	30
292	4824
293	961
294	3333
295	581
296	621
297	80
