Mass Spectrum: Silane, dimethyl(2,5-dimethylphenoxy)nonyloxy-
Formula: C19 H34 O2 Si
Molecular weight: 322
Origin: V.G. Zaikin, R.S.Borisov, TIPS RAS, Moscow, Russia
m/z	RELATIVE INTENSITY
26	20
27	80
29	150
39	80
41	430
42	60
43	440
45	50
47	60
51	20
53	40
54	20
55	561
56	90
57	220
58	30
59	210
61	90
65	20
67	50
68	20
69	911
70	90
71	30
74	20
75	1421
76	100
77	280
78	50
79	110
81	60
82	110
83	571
84	50
85	40
87	30
88	10
89	300
90	40
91	140
92	10
97	50
99	60
101	110
102	20
103	120
104	80
105	2042
106	190
107	40
113	20
115	80
117	40
119	220
120	20
121	90
122	50
129	20
135	60
137	20
145	30
147	70
148	60
149	400
150	60
151	60
161	160
162	150
163	1501
164	280
165	380
166	70
167	30
175	70
176	20
177	460
178	2943
179	2853
180	591
181	2242
182	350
183	220
184	20
185	30
189	30
191	30
193	210
194	60
195	1982
196	1822
197	410
198	80
201	110
203	20
205	20
209	731
210	130
211	30
307	631
308	140
309	30
321	160
322	9999
323	2402
324	621
325	80
