Mass Spectrum: D-Alanine, N-propargyloxycarbonyl-, propargyl ester
Formula: C10 H11 N O4
Molecular weight: 209
Origin: V.G. Zaikin, R.S.Borisov, TIPS RAS, Moscow, Russia
m/z	RELATIVE INTENSITY
26	30
27	100
28	60
29	170
30	70
37	30
38	110
39	2072
40	90
41	470
42	480
43	90
44	310
53	70
54	60
55	250
56	130
57	210
65	50
66	40
67	220
68	20
70	210
78	20
80	60
81	30
82	300
83	20
88	70
125	60
126	9999
127	440
128	50
154	40
