Mass Spectrum: Silane, dimethyl(hex-4-yn-3-yloxy)pentadecyloxy-
Formula: C23 H46 O2 Si
Molecular weight: 382
Origin: V.G. Zaikin, R.S.Borisov, TIPS RAS, Moscow, Russia
m/z	RELATIVE INTENSITY
27	110
29	220
39	140
41	681
42	130
43	1021
45	80
47	60
53	190
54	90
55	831
56	180
57	921
58	70
59	190
61	260
63	40
65	40
66	30
67	330
68	130
69	891
70	160
71	490
74	30
75	4364
76	320
77	1281
78	80
79	340
80	110
81	911
82	160
83	1001
84	110
85	480
87	80
89	490
90	40
91	190
93	420
94	60
95	440
96	90
97	2572
98	270
99	1391
100	120
101	490
102	40
103	80
105	581
106	40
107	300
108	40
109	200
110	30
111	370
112	50
113	460
114	50
115	561
116	60
117	430
118	30
119	561
120	50
121	180
123	90
125	270
126	90
127	2132
128	290
129	520
130	60
131	250
133	260
134	30
135	120
137	40
139	470
140	90
141	1441
142	370
143	871
144	140
145	210
147	70
149	110
153	100
154	30
155	681
156	751
157	3563
158	470
159	280
167	60
169	190
170	50
171	981
172	170
173	130
181	30
183	130
184	40
185	1601
186	230
187	80
197	90
199	80
211	50
213	140
223	70
227	30
239	30
261	50
267	30
269	60
283	40
285	871
286	190
287	50
297	30
307	110
309	1061
310	250
311	70
323	90
325	60
327	380
328	70
329	20
337	50
339	40
341	50
351	40
353	9999
354	2772
355	711
356	90
367	3483
368	971
369	260
381	100
382	40
