Mass Spectrum: Silane, dimethyl(2-heptyloxy)hexyloxy-
Formula: C15 H34 O2 Si
Molecular weight: 274
Origin: V.G. Zaikin, R.S.Borisov, TIPS RAS, Moscow, Russia
m/z	RELATIVE INTENSITY
27	100
29	170
39	70
41	310
42	80
43	380
45	120
47	90
53	20
55	390
56	140
57	70
58	80
59	200
60	40
61	190
63	60
67	30
69	70
70	20
72	20
73	20
74	50
75	2602
76	190
77	1501
78	80
79	60
81	20
82	30
83	571
84	50
85	60
87	110
88	70
89	450
90	50
91	160
93	100
98	20
99	100
101	350
102	60
103	801
104	70
105	120
113	20
115	270
116	30
117	70
119	40
121	30
129	60
131	170
133	160
143	100
145	180
146	20
157	30
158	10
159	3383
160	470
161	1611
162	190
163	60
173	220
174	30
175	50
187	30
189	40
203	9999
204	1561
205	430
206	30
233	20
259	2072
260	400
261	90
273	40
