Mass Spectrum: D-Alanine, N-propargyloxycarbonyl-, isohexyl ester
Formula: C13 H21 N O4
Molecular weight: 255
Origin: V.G. Zaikin, R.S.Borisov, TIPS RAS, Moscow, Russia
m/z	RELATIVE INTENSITY
26	40
27	130
28	60
29	170
30	50
38	30
39	961
40	80
41	340
42	380
43	1141
44	330
45	20
53	60
54	50
55	380
56	150
57	80
65	40
67	170
69	80
70	120
80	50
82	330
83	40
84	90
85	170
88	160
116	40
125	30
126	9999
127	611
128	60
154	30
171	20
172	50
