Mass Spectrum: Silane, dimethyl(2-chlorophenoxy)ethoxy-
Formula: C10 H15 Cl O2 Si
Molecular weight: 230
Origin: V.G. Zaikin, R.S.Borisov, TIPS RAS, Moscow, Russia
m/z	RELATIVE INTENSITY
26	20
27	70
29	160
38	30
39	70
43	140
45	380
46	20
47	200
50	50
51	60
53	20
58	80
59	460
60	50
61	80
62	30
63	520
64	170
65	350
67	50
73	90
74	90
75	1261
76	120
77	220
78	80
79	170
81	130
83	30
85	20
87	70
89	90
90	40
91	430
92	971
93	1511
94	200
95	1852
96	120
97	561
98	30
99	100
101	50
102	20
103	991
104	100
105	90
107	210
108	80
109	50
111	20
115	20
121	130
123	2022
124	170
125	801
126	60
127	80
134	20
135	190
136	150
137	100
143	50
145	20
147	50
148	50
149	540
150	100
151	3783
152	520
153	200
155	170
156	20
157	60
161	130
165	40
166	30
169	120
170	30
171	861
172	120
173	290
174	30
179	190
180	20
183	40
185	1101
186	561
187	1171
188	300
189	300
190	30
194	20
195	50
199	50
201	20
215	9999
216	1491
217	3553
218	530
219	150
230	3493
231	601
232	1291
233	200
234	50
