Mass Spectrum: Silane, dimethyl(dimethyl(undec-2-enyloxy)silyloxy)ethoxy-
Formula: C17 H38 O3 Si2
Molecular weight: 346
Origin: V.G. Zaikin, R.S.Borisov, TIPS RAS, Moscow, Russia
m/z	RELATIVE INTENSITY
29	50
39	40
41	220
43	90
53	40
54	430
55	420
56	20
57	90
66	30
67	300
68	100
69	210
73	60
79	20
81	140
82	130
83	320
95	80
96	100
97	340
98	20
109	30
110	40
111	70
117	50
119	260
120	30
121	50
124	50
133	1912
134	270
135	681
136	70
137	50
149	1451
150	220
151	661
152	160
153	60
163	50
173	20
176	30
177	9999
178	1651
179	4334
180	651
181	310
182	20
187	40
189	40
195	20
205	20
300	20
331	20
346	90
