Mass Spectrum: Silane, dimethyl(undec-2-enyloxy)pentyloxy-
Formula: C18 H38 O2 Si
Molecular weight: 314
Origin: V.G. Zaikin, R.S.Borisov, TIPS RAS, Moscow, Russia
m/z	RELATIVE INTENSITY
26	10
27	110
29	170
39	140
40	20
41	631
42	160
43	761
44	80
45	140
47	100
53	110
54	370
55	621
56	70
57	190
58	50
59	290
60	50
61	300
63	70
65	30
66	70
67	751
68	500
69	1061
70	130
71	200
72	20
73	30
74	80
75	6176
76	500
77	3653
78	270
79	180
80	60
81	781
82	861
83	340
84	50
85	100
87	100
88	60
89	931
90	100
91	400
92	20
93	681
94	60
95	1001
96	691
97	190
98	40
99	400
100	40
101	681
102	60
103	310
104	20
105	851
106	70
107	60
109	721
110	360
111	120
113	430
114	90
115	1481
116	180
117	330
118	40
119	120
121	20
123	240
124	300
125	60
127	150
128	50
129	981
130	130
131	1501
132	170
133	230
135	40
137	30
141	110
142	20
143	300
144	100
145	8287
146	1141
147	6105
148	731
149	400
150	30
151	360
152	540
153	60
155	50
157	250
158	20
159	520
160	50
161	80
163	460
164	50
165	60
169	30
171	250
172	30
173	1031
174	140
175	330
176	40
177	40
183	60
185	150
187	220
188	40
189	10
191	30
193	40
197	30
199	100
201	9999
202	1732
203	540
204	50
207	110
209	20
211	290
212	40
213	721
214	120
215	2092
216	380
217	100
223	110
224	20
225	20
226	30
227	200
228	30
229	420
230	70
231	20
241	40
243	731
244	130
245	20
257	2712
258	581
259	150
269	20
271	1321
272	280
273	30
285	641
286	140
287	20
299	2933
300	681
313	110
314	1001
315	250
316	60
317	20
