Mass Spectrum: Silane, dimethyl(non-3-enyloxy)isohexyloxy-
Formula: C17 H36 O2 Si
Molecular weight: 300
Origin: V.G. Zaikin, R.S.Borisov, TIPS RAS, Moscow, Russia
m/z	RELATIVE INTENSITY
27	130
29	220
39	150
41	701
42	70
43	651
45	120
47	90
51	10
53	100
54	240
55	991
56	150
57	70
58	140
59	340
60	50
61	240
62	10
63	20
65	20
66	60
67	540
68	711
69	340
72	10
73	30
74	50
75	2742
76	180
77	530
78	20
79	70
80	20
81	621
82	831
83	9999
84	671
85	160
86	10
87	90
88	220
89	1601
90	140
91	170
95	500
96	280
99	230
100	40
101	801
102	80
103	230
104	10
105	370
106	20
107	70
109	50
110	10
111	20
112	20
113	160
114	20
115	210
116	20
117	110
118	10
119	470
120	30
121	10
123	80
124	2012
125	180
127	170
128	20
129	170
130	10
131	360
132	20
137	80
141	50
142	20
143	180
144	20
145	90
155	20
157	220
158	20
159	1411
160	180
169	20
171	20
173	30
177	30
183	140
184	10
185	360
186	50
187	30
189	2632
190	390
191	100
192	10
198	20
199	581
200	90
201	110
202	10
215	40
229	100
257	440
258	70
285	510
286	90
300	40
