Mass Spectrum: Silane, dimethyl(3-ethylphenoxy)butoxy-
Formula: C14 H24 O2 Si
Molecular weight: 252
Origin: V.G. Zaikin, R.S.Borisov, TIPS RAS, Moscow, Russia
m/z	RELATIVE INTENSITY
26	40
27	230
29	380
39	210
41	480
43	200
45	350
47	280
50	30
51	120
52	30
53	70
55	170
56	60
57	70
58	120
59	741
60	70
61	340
62	20
63	100
64	30
65	130
67	60
68	110
73	350
74	130
75	3243
76	270
77	1211
78	230
79	350
81	60
82	1661
85	70
87	30
88	70
89	771
90	210
91	841
92	70
93	50
95	100
97	70
99	50
101	60
102	60
103	400
104	250
105	520
106	50
107	180
108	30
109	50
111	30
115	190
116	20
117	100
118	10
119	370
120	60
121	140
122	50
123	100
131	490
132	40
133	100
134	20
135	641
136	70
137	250
145	60
147	210
148	110
149	841
150	150
151	591
152	90
153	110
161	540
162	80
163	1381
164	240
165	1121
166	210
167	130
175	20
176	160
177	781
178	230
179	5235
180	891
181	9999
182	1441
183	430
184	30
189	40
191	20
193	180
194	30
195	470
196	1722
197	270
198	60
207	50
209	1291
210	180
211	50
219	40
223	50
235	20
237	5995
238	1061
239	280
251	70
252	8678
253	1712
254	430
255	40
