Mass Spectrum: Silane, dimethyl(2-methoxyethoxy)heptyloxy-
Formula: C12 H28 O3 Si
Molecular weight: 248
Origin: V.G. Zaikin, R.S.Borisov, TIPS RAS, Moscow, Russia
m/z	RELATIVE INTENSITY
27	30
29	110
31	20
39	40
41	150
43	80
45	280
47	80
55	751
56	40
58	230
59	520
60	70
61	400
67	20
69	60
70	20
74	60
75	2052
76	150
77	340
81	20
87	130
88	180
89	3553
90	330
91	4104
92	280
93	210
96	40
97	651
98	50
99	90
101	290
102	30
103	380
104	50
105	430
106	30
107	100
115	230
116	20
117	621
118	30
119	1141
120	90
121	40
129	60
131	160
132	170
133	6136
134	691
135	330
145	70
147	80
149	30
157	60
159	40
161	30
173	1712
174	230
175	100
189	1561
190	200
201	60
203	1531
204	220
205	50
233	9999
234	1782
235	520
236	30
