Mass Spectrum: Silane, dimethyl(dodec-9-ynyloxy)propoxy-
Formula: C17 H34 O2 Si
Molecular weight: 298
Origin: V.G. Zaikin, R.S.Borisov, TIPS RAS, Moscow, Russia
m/z	RELATIVE INTENSITY
26	30
27	270
29	300
39	581
40	100
41	1982
42	180
43	480
45	510
47	320
50	30
51	100
52	100
53	651
54	250
55	1832
58	260
59	921
60	130
61	1231
62	50
63	350
65	430
66	320
67	3413
68	3453
69	1051
73	70
74	120
75	9999
76	741
77	8578
78	601
79	2762
80	691
81	3853
82	3343
83	781
85	20
87	480
88	230
89	3813
90	330
91	1391
92	140
93	3914
94	831
95	5555
96	881
97	831
98	40
99	601
100	40
101	1722
102	130
103	961
104	60
105	701
106	140
107	3773
108	841
109	1792
110	230
111	120
113	611
114	50
115	1692
116	70
117	7206
118	741
119	9899
120	931
121	5585
122	1431
123	530
124	20
125	110
127	470
128	50
129	601
130	40
131	791
132	70
133	751
134	40
135	3833
136	711
137	180
139	160
141	470
142	20
143	581
144	30
145	821
146	40
147	5315
148	571
149	691
150	30
151	530
152	40
153	180
155	450
156	30
157	691
158	40
159	510
160	60
161	90
163	4764
164	1141
165	170
167	150
169	220
171	280
173	1281
174	120
175	90
177	110
179	30
181	510
182	30
183	170
187	270
188	60
191	190
193	220
195	100
197	100
199	140
201	200
202	110
205	40
211	30
213	220
214	60
215	170
217	280
223	1802
224	280
225	9118
226	1581
227	981
228	120
229	120
231	500
232	50
241	140
255	30
269	1421
270	250
271	20
283	2082
284	420
285	70
298	20
