Mass Spectrum: Silane, dimethyl(tetrahydrofurfuryloxy)tetradecyloxy-
Formula: C21 H44 O3 Si
Molecular weight: 372
Origin: V.G. Zaikin, R.S.Borisov, TIPS RAS, Moscow, Russia
m/z	RELATIVE INTENSITY
27	100
29	210
39	90
41	601
42	150
43	1251
45	60
47	40
53	40
54	70
55	581
56	140
57	651
58	60
59	230
60	30
61	210
63	20
67	270
68	100
69	711
70	1661
71	9999
72	440
73	20
74	20
75	2482
76	170
77	771
78	40
79	20
81	130
82	70
83	460
84	410
85	180
87	80
88	110
89	631
90	90
91	310
93	150
95	110
96	50
97	320
98	30
99	170
100	20
101	430
102	40
103	591
104	40
105	170
107	811
108	60
109	60
110	20
111	120
113	80
114	130
115	290
116	90
117	370
118	60
119	170
121	40
125	30
127	40
129	370
130	1091
131	340
132	490
133	130
134	20
135	20
141	270
142	40
143	210
144	30
145	1351
146	150
147	80
157	110
158	510
159	5915
160	781
161	861
162	70
163	30
173	30
175	100
187	20
194	20
271	90
287	40
289	20
301	70
303	50
313	30
328	20
341	150
342	50
357	751
358	180
359	40
