Mass Spectrum: Silane, dimethyl(3-methylbut-2-enyloxy)octadecyloxy-
Formula: C25 H52 O2 Si
Molecular weight: 412
Origin: V.G. Zaikin, R.S.Borisov, TIPS RAS, Moscow, Russia
m/z	RELATIVE INTENSITY
26	40
27	140
29	290
39	210
40	50
41	1131
42	230
43	1571
45	60
47	40
51	20
53	150
54	150
55	1361
56	290
57	1321
58	50
59	160
60	20
61	220
63	60
65	20
66	40
67	530
68	1271
69	2292
70	300
71	851
72	40
74	50
75	5005
76	350
77	2022
78	110
79	110
80	30
81	721
82	480
83	1121
84	140
85	380
86	20
87	50
88	20
89	591
90	50
91	320
92	20
93	190
94	20
95	380
96	340
97	901
98	110
99	140
101	320
102	30
103	160
105	581
106	40
107	70
109	210
110	110
111	390
112	40
113	140
114	20
115	200
116	30
117	330
118	30
119	120
121	20
123	100
124	60
125	110
127	200
128	60
129	741
130	90
131	310
132	30
133	40
137	50
138	30
139	30
141	170
142	70
143	320
144	50
145	791
146	90
147	500
148	50
151	30
155	30
157	110
158	20
159	4154
160	581
161	220
163	140
171	80
172	20
173	981
174	130
175	120
185	90
187	30
199	30
201	571
202	80
203	30
213	20
215	60
229	10
241	20
243	40
250	120
251	20
255	20
257	150
258	20
269	20
271	40
299	20
311	110
312	20
313	30
325	30
327	581
328	150
329	671
330	150
331	30
341	120
342	30
343	140
344	30
355	1491
356	400
357	300
358	60
369	120
370	30
397	9999
398	3213
399	871
400	140
411	120
412	631
413	210
414	40
