Mass Spectrum: Silane, dimethyl(2-ethylbutoxy)hexyloxy-
Formula: C14 H32 O2 Si
Molecular weight: 260
Origin: V.G. Zaikin, R.S.Borisov, TIPS RAS, Moscow, Russia
m/z	RELATIVE INTENSITY
27	270
29	410
39	190
41	661
42	70
43	1261
45	260
47	200
53	50
54	20
55	691
56	180
58	240
59	460
60	140
61	360
62	20
63	90
67	50
69	120
71	90
74	100
75	4544
76	360
77	3093
78	160
79	110
82	20
83	1351
84	240
85	130
87	160
88	300
89	1842
90	240
91	500
92	20
93	120
99	160
101	480
102	50
103	801
104	70
105	240
107	360
113	40
115	340
116	20
117	320
118	20
119	631
120	40
129	50
131	260
133	40
143	140
145	180
147	130
157	40
159	2452
160	320
161	2172
162	240
163	70
173	50
175	140
177	30
189	3843
190	520
191	190
203	10
229	20
245	9999
246	1832
247	440
248	40
259	20
