Mass Spectrum: Silane, dimethyl(6-methyl-2-tert-butylphenoxy)dodecyloxy-
Formula: C25 H46 O2 Si
Molecular weight: 406
Origin: V.G. Zaikin, R.S.Borisov, TIPS RAS, Moscow, Russia
m/z	RELATIVE INTENSITY
27	30
29	130
39	50
41	370
42	50
43	510
47	20
53	20
55	390
56	60
57	951
58	40
59	100
61	40
67	40
69	270
70	30
71	120
73	480
74	40
75	1081
76	70
77	110
81	30
83	190
85	90
87	20
89	150
91	160
95	20
97	140
99	30
101	80
103	80
105	100
111	70
115	100
116	20
117	30
121	20
128	20
129	60
131	40
135	30
143	20
145	20
147	70
148	30
149	150
150	20
161	20
163	140
164	40
165	490
166	70
167	110
175	100
177	280
178	40
179	70
181	20
182	30
183	70
189	230
190	40
191	330
192	50
193	80
195	410
196	60
203	40
204	60
205	9999
206	1832
207	1021
208	150
209	50
219	70
220	1071
221	370
222	90
223	70
225	50
237	40
238	40
243	100
335	20
349	300
350	110
351	20
391	220
392	60
406	1922
407	601
408	160
409	20
