Mass Spectrum: Silane, dimethyl(oct-3-en-2-yloxy)decyloxy-
Formula: C20 H42 O2 Si
Molecular weight: 342
Origin: V.G. Zaikin, R.S.Borisov, TIPS RAS, Moscow, Russia
m/z	RELATIVE INTENSITY
27	60
29	140
39	60
41	460
42	40
43	260
45	50
47	70
53	70
54	50
55	831
57	210
58	30
59	210
60	30
61	180
63	40
67	200
68	150
69	731
70	60
74	40
75	4514
76	330
77	1481
78	80
79	40
81	210
82	50
83	631
87	80
88	30
89	390
90	40
91	130
93	40
95	210
96	50
97	380
98	20
99	190
101	460
102	50
103	210
105	200
109	90
110	100
113	250
114	50
115	400
116	50
117	100
119	120
123	20
127	280
128	170
129	971
130	130
131	250
132	70
137	20
138	110
141	120
142	50
143	561
144	80
145	651
146	80
147	50
155	30
157	210
158	40
159	70
169	20
171	380
172	50
173	480
174	70
184	60
185	170
186	20
187	190
188	30
199	230
200	30
201	220
202	30
203	140
213	110
214	100
215	3793
216	691
217	1401
218	210
219	40
229	210
230	50
233	60
241	170
242	20
243	200
244	30
245	130
255	20
257	1061
258	190
269	10
271	100
272	380
273	70
283	50
285	9999
286	2302
287	591
288	70
289	110
290	20
299	1892
300	500
301	110
313	240
314	50
327	3513
328	891
329	210
330	20
341	90
342	1101
343	280
344	50
