Mass Spectrum: Silane, dimethyl(2-propylphenoxy)hexyloxy-
Formula: C17 H30 O2 Si
Molecular weight: 294
Origin: V.G. Zaikin, R.S.Borisov, TIPS RAS, Moscow, Russia
m/z	RELATIVE INTENSITY
26	20
27	120
29	160
39	110
41	370
42	70
43	1071
45	110
47	120
51	30
53	20
55	470
56	40
58	30
59	571
60	30
61	160
65	50
73	50
74	40
75	2122
76	150
78	50
79	40
82	310
83	951
84	50
85	150
87	30
89	160
90	50
91	1071
92	70
99	50
101	50
102	20
103	50
104	60
105	100
107	120
115	280
116	50
117	70
118	20
121	100
123	20
133	100
134	30
135	831
136	100
137	210
147	330
148	160
149	1802
150	260
151	961
152	100
153	170
157	80
159	260
160	20
161	601
162	90
163	2632
164	520
165	7417
166	1131
167	671
168	60
175	400
176	60
177	1872
178	340
179	490
180	70
181	1181
182	170
183	310
184	30
191	4554
192	2833
193	1371
194	280
195	1692
196	240
197	80
207	50
208	20
209	530
210	510
211	100
219	20
221	20
223	450
224	60
247	30
251	20
265	2272
266	470
267	120
279	1301
280	280
281	30
294	9999
295	2382
296	601
297	60
