Mass Spectrum: Silane, dimethyl(2-methylbutoxy)nonyloxy-
Formula: C16 H36 O2 Si
Molecular weight: 288
Origin: V.G. Zaikin, R.S.Borisov, TIPS RAS, Moscow, Russia
m/z	RELATIVE INTENSITY
27	40
29	110
39	50
41	270
42	70
43	300
45	50
47	50
53	20
54	20
55	390
56	110
57	280
58	60
59	140
60	30
61	160
63	30
67	60
68	50
69	1692
70	250
71	260
74	20
75	1972
76	150
77	1752
78	110
79	70
81	50
82	30
83	991
84	90
85	60
86	10
87	70
88	70
89	911
90	90
91	290
93	150
95	30
97	70
98	20
99	70
101	220
103	210
105	170
107	300
108	20
113	30
115	190
117	150
119	450
120	30
125	30
129	110
131	130
133	110
143	80
145	420
146	50
147	200
149	60
151	190
159	50
161	60
163	20
173	50
175	601
176	80
177	20
185	50
187	20
199	30
201	961
202	160
203	741
204	110
205	90
207	30
215	40
217	60
231	1692
232	310
233	100
257	20
273	9999
274	2272
275	621
276	80
