Mass Spectrum: Silane, dimethyl(2,5-dimethylphenoxy)pentadecyloxy-
Formula: C25 H46 O2 Si
Molecular weight: 406
Origin: V.G. Zaikin, R.S.Borisov, TIPS RAS, Moscow, Russia
m/z	RELATIVE INTENSITY
27	60
29	120
39	60
41	360
42	60
43	530
53	20
54	30
55	611
56	90
57	360
59	90
61	40
67	80
68	40
69	540
70	70
71	150
75	901
76	60
77	140
78	20
79	50
81	70
82	50
83	440
84	50
85	70
89	140
91	70
95	40
97	320
98	30
99	30
101	60
103	50
104	30
105	1191
106	110
107	30
111	100
115	50
117	20
119	130
121	40
122	40
129	20
135	20
147	20
148	20
149	190
150	30
151	40
161	70
162	70
163	871
164	170
165	200
166	40
167	20
175	30
177	270
178	1932
179	2052
180	410
181	1161
182	180
183	150
193	120
194	30
195	1191
196	1431
197	450
198	90
205	20
209	520
210	90
211	20
285	20
391	190
392	50
404	30
405	20
406	9999
407	3013
408	791
409	130
