Mass Spectrum: Silane, dimethyldi(4-heptyloxy)-
Formula: C16 H36 O2 Si
Molecular weight: 288
Origin: V.G. Zaikin, R.S.Borisov, TIPS RAS, Moscow, Russia
m/z	RELATIVE INTENSITY
27	50
29	50
39	30
41	140
42	20
43	90
45	50
47	60
55	130
56	50
57	90
59	200
60	20
61	100
63	20
69	40
74	50
75	3263
76	260
77	841
78	40
79	30
85	30
87	20
89	30
93	90
97	40
98	30
99	50
100	20
101	330
102	40
103	40
105	80
113	30
115	150
116	20
117	40
129	140
130	20
131	1361
132	170
133	70
143	30
145	50
146	40
147	300
148	30
157	40
159	70
171	20
173	841
174	130
175	140
187	50
189	70
201	90
202	20
203	20
229	40
230	30
245	9999
246	1932
247	550
248	60
273	190
274	30
287	20
