Mass Spectrum: Silane, dimethyldi(2,6-dimethylnon-1-en-3-yn-5-yloxy)-
Formula: C24 H40 O2 Si
Molecular weight: 388
Origin: V.G. Zaikin, R.S.Borisov, TIPS RAS, Moscow, Russia
m/z	RELATIVE INTENSITY
27	250
29	350
39	380
40	40
41	991
42	120
43	2062
45	130
47	160
50	30
51	150
52	70
53	280
55	651
59	300
61	180
63	110
65	340
66	110
67	140
69	280
71	831
75	9999
76	781
77	2032
78	450
79	751
80	40
81	140
83	150
85	90
89	60
91	1551
92	250
93	761
94	60
95	200
97	280
99	340
101	100
103	240
104	60
105	941
106	310
107	781
108	60
109	310
111	230
113	130
115	530
116	180
117	240
118	20
119	721
120	90
121	250
122	110
123	8968
124	1161
125	1481
126	100
127	150
128	240
129	500
130	90
131	200
132	30
133	210
135	160
137	721
138	90
139	190
141	190
142	180
143	2582
144	561
145	510
146	50
148	100
149	400
151	120
152	50
153	1491
154	230
155	420
156	130
157	1541
158	210
159	410
161	100
163	120
165	470
166	100
167	420
168	100
169	1091
170	260
171	540
172	100
173	921
174	120
175	190
177	240
178	40
179	460
180	160
181	661
182	220
183	601
184	120
185	480
186	60
187	180
189	100
193	581
194	110
195	390
196	280
197	520
198	110
199	400
200	60
201	360
202	70
203	520
204	80
205	300
206	90
209	480
210	200
211	250
212	30
213	170
214	90
215	310
216	671
217	1872
218	1822
219	741
220	240
223	420
224	210
225	671
226	180
227	40
229	450
230	530
231	1561
232	861
233	1361
234	470
235	240
236	30
237	180
238	350
239	761
240	110
241	70
243	350
244	110
245	1541
246	2432
247	5015
248	1221
249	360
250	30
251	861
252	140
253	50
257	110
258	40
259	1852
260	520
261	520
262	120
263	50
271	50
273	761
274	440
275	761
276	140
277	70
287	430
288	320
289	310
290	70
299	20
301	180
302	460
303	470
304	110
307	40
317	7517
318	2292
319	611
320	70
331	100
345	591
346	170
347	50
359	150
360	30
373	601
374	160
