Mass Spectrum: Silane, dimethyl(tetrahydrofurfuryloxy)octyloxy-
Formula: C15 H32 O3 Si
Molecular weight: 288
Origin: V.G. Zaikin, R.S.Borisov, TIPS RAS, Moscow, Russia
m/z	RELATIVE INTENSITY
27	150
29	210
39	100
41	571
42	130
43	1101
45	120
47	90
53	30
54	30
55	410
56	60
57	380
58	150
59	360
60	70
61	280
63	40
67	190
68	30
69	1001
70	1511
71	9999
72	480
73	20
74	40
75	2652
76	200
77	1051
78	50
79	40
81	60
83	50
84	280
85	50
87	130
88	180
89	771
90	120
91	320
93	120
95	20
99	210
100	30
101	520
102	60
103	631
104	50
105	170
107	641
108	40
109	40
110	50
111	100
113	90
114	110
115	380
116	130
117	450
118	60
119	190
121	30
125	20
127	50
129	350
130	851
131	400
132	450
133	110
141	240
142	30
143	240
144	40
145	1561
146	190
147	90
157	70
158	450
159	4684
160	661
161	1031
162	100
171	30
173	40
175	110
187	540
188	80
189	70
201	40
203	70
205	60
213	20
215	60
217	240
218	40
219	250
220	30
229	150
230	20
243	70
244	190
245	70
257	290
258	90
259	20
270	30
273	1712
274	340
275	90
