Mass Spectrum: Silane, dimethyl(3-methylphenoxy)hexyloxy-
Formula: C15 H26 O2 Si
Molecular weight: 266
Origin: V.G. Zaikin, R.S.Borisov, TIPS RAS, Moscow, Russia
m/z	RELATIVE INTENSITY
26	20
27	100
29	150
39	120
41	340
42	70
43	340
45	170
47	110
51	30
53	30
55	621
56	150
57	20
58	60
59	300
60	20
61	150
63	50
65	210
67	30
68	20
69	50
74	30
75	1541
76	120
77	390
78	70
79	150
81	20
82	390
83	731
84	60
85	50
87	40
88	20
89	240
90	90
91	1431
92	130
93	20
95	60
97	40
99	90
101	90
103	80
104	40
105	821
106	70
107	110
108	50
109	140
111	30
115	60
119	20
121	60
123	20
131	40
135	470
136	60
137	100
139	20
143	70
145	30
147	80
148	70
149	1031
150	170
151	671
152	90
153	30
159	200
161	60
162	30
163	310
164	110
165	6085
166	1121
167	9979
168	1411
169	601
170	40
175	100
177	60
179	440
180	80
181	781
182	3043
183	540
184	140
189	30
191	30
193	110
194	20
195	1982
196	330
197	90
205	30
208	20
209	70
223	30
251	4794
252	991
253	260
254	20
265	30
266	9999
267	2202
268	591
269	60
