Mass Spectrum: Silane, dimethyl(2,3-dimethylphenoxy)pentyloxy-
Formula: C15 H26 O2 Si
Molecular weight: 266
Origin: V.G. Zaikin, R.S.Borisov, TIPS RAS, Moscow, Russia
m/z	RELATIVE INTENSITY
27	160
29	280
39	150
41	430
42	100
43	410
45	170
47	160
51	60
52	20
53	60
55	120
57	30
58	100
59	400
60	40
61	160
63	40
65	90
69	460
70	50
71	20
73	20
74	60
75	2622
76	190
77	751
78	150
79	250
81	100
82	400
83	20
85	40
87	20
88	40
89	561
90	80
91	440
92	50
93	40
99	60
101	90
102	50
103	320
104	160
105	3593
106	330
107	90
109	20
115	110
116	20
117	80
118	20
119	350
120	40
121	260
122	80
123	20
129	50
131	20
133	30
135	150
137	50
145	611
146	70
147	220
148	150
149	881
150	130
151	240
152	20
159	20
161	320
162	320
163	3463
164	621
165	971
166	170
167	60
175	100
176	20
177	781
178	4384
179	4304
180	881
181	3934
182	571
183	230
189	40
191	30
193	300
194	70
195	2152
196	1672
197	310
198	60
205	20
207	30
209	1281
210	210
211	50
219	20
223	20
251	3053
252	601
253	140
265	40
266	9999
267	2092
268	530
269	50
