Mass Spectrum: Silane, dimethyldi(2-chloropropoxy)-
Formula: C8 H18 Cl2 O2 Si
Molecular weight: 244
Origin: V.G. Zaikin, R.S.Borisov, TIPS RAS, Moscow, Russia
m/z	RELATIVE INTENSITY
26	30
27	500
28	20
29	180
31	20
35	20
36	110
38	20
39	300
40	30
41	631
42	60
43	270
45	520
47	210
49	30
55	50
57	410
58	550
59	550
60	80
61	190
62	30
63	711
65	320
67	60
69	50
74	20
75	911
76	60
77	200
78	60
79	180
80	20
81	110
85	130
87	10
88	280
89	170
92	120
93	5015
94	430
95	2813
96	170
97	430
98	20
99	530
100	30
101	160
103	621
104	20
105	70
107	40
109	110
111	20
113	811
114	40
115	2472
116	190
117	240
119	20
121	80
123	100
125	30
127	20
131	30
135	1411
136	120
137	581
138	30
139	30
143	390
145	290
147	30
150	20
151	9999
152	1091
153	3703
154	350
155	120
171	3493
172	320
173	2322
174	210
175	440
181	460
182	30
183	160
229	30
231	20
