Mass Spectrum: Silane, dimethyl(2,6-dimethylnon-1-en-3-yn-5-yloxy)octyloxy-
Formula: C21 H40 O2 Si
Molecular weight: 352
Origin: V.G. Zaikin, R.S.Borisov, TIPS RAS, Moscow, Russia
m/z	RELATIVE INTENSITY
26	40
27	250
29	360
39	260
40	30
41	1041
42	290
43	1221
44	350
45	120
47	120
51	50
52	20
53	120
54	40
55	1151
56	160
57	561
58	50
59	450
60	20
61	330
63	50
65	120
66	40
67	280
68	30
69	1852
70	140
71	370
73	120
74	40
75	8338
76	611
77	1982
78	250
79	791
80	50
81	500
82	50
83	310
84	30
85	200
87	130
88	20
89	1011
90	60
91	911
92	150
93	771
94	70
95	280
97	80
99	290
101	581
102	40
103	290
104	40
105	1672
106	270
107	721
108	70
109	330
110	20
111	220
112	30
113	110
115	350
116	50
117	320
118	260
119	831
120	110
121	220
122	40
123	2903
124	400
125	851
126	50
127	110
128	20
129	651
130	50
131	510
132	50
133	611
134	50
135	40
137	240
138	110
139	230
141	80
142	40
143	400
144	20
145	430
146	40
147	270
148	250
149	90
153	1491
154	240
155	310
156	20
157	140
159	80
161	110
163	150
165	220
166	70
167	300
168	20
169	781
170	130
171	110
173	40
175	50
177	80
179	210
180	50
181	721
182	260
183	7547
184	1111
185	430
186	30
187	2172
188	320
189	671
190	80
191	60
192	140
193	210
194	20
195	210
197	320
198	30
199	30
201	20
203	50
207	480
208	80
209	300
210	30
211	150
213	20
215	50
217	20
223	90
224	110
225	220
226	40
235	30
237	230
238	30
239	360
240	70
247	20
249	20
251	210
252	50
253	260
254	40
257	30
263	30
265	70
267	90
271	110
281	9999
282	2192
283	581
284	70
295	160
296	20
307	70
309	110
310	330
311	200
323	190
324	70
337	591
338	160
351	30
352	280
353	60
