Mass Spectrum: Silane, dimethyl(non-5-yn-3-yloxy)heptyloxy-
Formula: C18 H36 O2 Si
Molecular weight: 312
Origin: V.G. Zaikin, R.S.Borisov, TIPS RAS, Moscow, Russia
m/z	RELATIVE INTENSITY
27	60
29	120
39	60
41	210
43	80
45	80
47	70
51	20
52	40
53	70
55	460
57	170
58	60
59	300
60	20
61	200
65	20
67	40
69	50
74	20
75	2903
76	210
77	480
78	20
79	90
80	20
81	80
83	60
85	60
87	120
88	60
89	520
90	30
91	60
93	80
95	30
97	450
98	30
99	180
101	390
102	20
103	60
105	60
109	20
111	50
113	50
115	370
116	30
117	1491
118	140
119	90
123	30
125	150
126	20
127	50
129	90
131	120
133	440
134	30
139	260
140	30
141	50
143	20
145	130
147	180
155	30
157	50
159	100
169	430
170	50
171	50
173	3413
174	470
175	180
183	220
184	20
185	30
197	500
198	70
199	30
201	30
215	20
217	20
225	40
227	160
229	20
231	9999
232	1782
233	330
239	310
240	50
241	120
242	10
297	571
298	120
299	20
