Mass Spectrum: Silane, dimethyl(3-phenylprop-2-enyloxy)hexyloxy-
Formula: C17 H28 O2 Si
Molecular weight: 292
Origin: V.G. Zaikin, R.S.Borisov, TIPS RAS, Moscow, Russia
m/z	RELATIVE INTENSITY
26	20
27	70
29	100
39	150
41	300
42	70
43	791
45	160
47	150
50	20
51	70
52	20
53	20
55	420
56	80
57	80
58	100
59	320
60	50
61	230
62	20
63	80
65	120
67	30
74	90
75	6025
76	510
77	1381
78	110
82	40
83	380
84	20
85	80
87	90
88	130
89	1001
90	110
91	1521
92	130
93	210
95	1551
96	430
99	120
101	430
102	170
103	210
104	360
105	390
106	20
110	30
113	40
114	50
115	4974
116	3904
117	8928
118	2432
119	200
121	40
128	40
129	440
130	130
131	450
132	190
133	30
135	180
136	10
137	230
143	160
144	40
145	280
146	40
147	110
148	50
149	90
151	20
157	70
158	20
160	220
161	1251
162	390
163	150
164	70
171	20
173	30
174	200
175	691
176	120
177	781
178	120
181	60
187	270
188	90
189	1421
190	1081
191	1611
192	3713
193	1581
194	330
195	100
201	80
203	30
205	30
207	9999
208	1972
209	571
210	60
219	30
221	821
222	150
247	30
249	50
263	50
277	1591
278	330
279	90
291	1712
292	5615
293	1411
294	340
295	40
