Mass Spectrum: Silane, dimethyl(hex-4-yn-3-yloxy)propoxy-
Formula: C11 H22 O2 Si
Molecular weight: 214
Origin: V.G. Zaikin, R.S.Borisov, TIPS RAS, Moscow, Russia
m/z	RELATIVE INTENSITY
27	240
29	240
39	240
41	300
43	220
45	591
46	30
47	390
50	30
51	90
52	60
53	270
55	80
57	90
58	170
59	380
60	120
61	360
62	50
63	190
65	80
66	50
67	80
70	80
71	40
74	80
75	5145
76	430
77	1962
78	200
79	260
80	60
81	120
82	20
83	180
85	250
87	60
88	40
89	180
91	60
93	190
96	40
97	3013
98	360
99	1331
100	120
101	310
103	60
105	530
106	30
109	30
111	120
112	70
113	180
115	420
116	70
117	3954
118	420
119	350
123	60
125	170
126	140
127	2712
128	330
129	360
130	30
131	60
133	120
139	901
140	150
141	3944
142	540
143	550
144	60
145	130
153	30
155	821
156	380
157	280
158	30
159	550
160	60
167	80
169	90
171	220
183	30
185	9999
186	1511
187	460
188	30
199	2072
200	330
201	80
213	100
