Mass Spectrum: Silane, dimethyl(3-phenylprop-2-enyloxy)isohexyloxy-
Formula: C17 H28 O2 Si
Molecular weight: 292
Origin: V.G. Zaikin, R.S.Borisov, TIPS RAS, Moscow, Russia
m/z	RELATIVE INTENSITY
26	20
27	110
29	110
39	240
40	20
41	561
42	60
43	1311
45	210
47	180
51	90
52	20
53	30
55	851
56	180
57	150
58	170
59	390
60	70
61	260
62	40
63	100
65	130
67	50
69	230
73	30
74	100
75	5685
76	460
77	1251
78	100
81	30
82	70
83	3193
84	210
85	310
86	20
87	70
88	170
89	731
90	80
91	1661
92	60
93	60
95	941
96	300
99	140
101	470
102	190
103	270
104	360
105	350
111	20
113	40
114	40
115	5075
116	3693
117	9999
118	1702
119	140
121	30
127	20
128	50
129	460
130	150
131	390
132	200
133	20
135	200
136	20
137	200
143	160
144	50
145	220
146	30
147	100
148	40
157	80
158	30
159	340
160	40
161	310
162	240
163	120
164	60
165	50
173	70
174	130
175	571
176	100
177	731
178	110
179	60
181	60
187	60
189	1251
190	891
191	1491
192	2963
193	2392
194	460
195	110
201	20
203	20
205	20
207	9789
208	1942
209	561
210	50
221	611
222	110
223	20
249	761
250	140
251	30
277	1161
278	250
279	50
291	1361
292	4914
293	1191
294	290
295	30
