Mass Spectrum: Silane, dimethyl(hex-4-yn-3-yloxy)nonyloxy-
Formula: C17 H34 O2 Si
Molecular weight: 298
Origin: V.G. Zaikin, R.S.Borisov, TIPS RAS, Moscow, Russia
m/z	RELATIVE INTENSITY
26	30
27	170
29	320
39	190
41	701
42	60
43	781
45	230
47	180
51	40
52	30
53	270
54	60
55	701
56	90
57	380
58	80
59	360
60	70
61	380
62	30
63	100
65	60
66	60
67	210
68	60
69	1672
70	100
74	70
75	5895
76	460
77	1882
78	130
79	390
80	100
81	571
82	80
83	1191
84	70
85	440
87	170
88	50
89	711
90	60
91	210
93	520
94	40
95	210
96	70
97	3103
98	360
99	1962
100	180
101	821
102	70
103	180
105	821
106	50
107	440
108	30
109	100
111	140
113	641
114	90
115	771
116	100
117	510
118	40
119	510
120	40
121	170
123	80
125	370
126	150
127	2833
128	380
129	731
130	70
131	250
139	601
140	110
141	1892
142	390
143	991
144	130
145	180
153	60
154	40
155	771
156	711
157	3743
158	520
159	260
167	80
169	290
170	70
171	971
172	170
173	100
177	50
183	170
184	50
185	1682
186	250
187	70
197	120
198	30
199	120
201	2052
202	350
203	120
205	90
211	90
213	100
215	40
223	220
224	40
225	2292
226	440
227	150
239	110
241	80
243	591
244	100
245	30
255	30
269	9999
270	2232
271	621
272	60
283	3703
284	861
285	220
297	110
298	30
