Mass Spectrum: Silane, dimethyl(2-isopropylphenoxy)tridecyloxy-
Formula: C24 H44 O2 Si
Molecular weight: 392
Origin: V.G. Zaikin, R.S.Borisov, TIPS RAS, Moscow, Russia
m/z	RELATIVE INTENSITY
41	100
43	200
55	250
57	330
59	40
67	30
69	320
70	30
71	190
73	250
75	550
76	20
77	60
81	20
83	150
85	120
89	80
91	100
95	30
97	350
98	20
101	20
103	40
105	20
111	160
115	60
117	20
121	220
125	30
135	130
136	70
137	20
147	20
149	200
151	510
152	40
153	50
161	290
162	20
163	510
164	50
165	90
167	40
169	60
175	110
177	2712
178	480
179	1631
180	220
181	831
182	80
191	1802
192	761
193	500
194	70
195	470
196	70
197	230
207	70
208	10
209	671
210	390
211	60
223	40
255	20
257	20
377	1081
378	310
379	50
392	9999
393	3183
394	801
395	100
