Mass Spectrum: Silane, dimethyl(4-phenylphenoxy)undecyloxy-
Formula: C25 H38 O2 Si
Molecular weight: 398
Origin: V.G. Zaikin, R.S.Borisov, TIPS RAS, Moscow, Russia
m/z	RELATIVE INTENSITY
29	30
41	100
43	110
55	180
56	20
59	40
61	20
67	20
69	160
75	480
76	30
77	140
81	20
83	190
89	80
91	20
93	30
97	160
99	20
101	40
111	30
113	180
114	50
115	50
141	50
152	120
153	50
154	80
155	20
165	70
166	20
167	120
168	20
169	40
170	50
171	20
181	20
183	30
196	40
197	50
211	951
212	190
213	180
214	30
215	20
225	60
227	1211
228	310
229	971
230	190
231	60
237	20
241	50
242	20
243	50
244	500
245	150
246	30
255	20
257	80
258	20
270	40
383	80
384	20
398	9999
399	3113
400	871
401	140
