Mass Spectrum: Silane, dimethyl(2-naphthoxy)dodecyloxy-
Formula: C24 H38 O2 Si
Molecular weight: 386
Origin: V.G. Zaikin, R.S.Borisov, TIPS RAS, Moscow, Russia
m/z	RELATIVE INTENSITY
29	20
41	90
43	130
55	170
57	110
59	40
69	150
71	40
75	671
76	40
77	30
83	100
85	20
89	80
97	60
100	40
101	60
115	80
127	60
128	170
129	20
141	200
142	20
144	30
145	20
171	40
185	1011
186	170
187	160
199	40
200	30
201	1111
202	260
203	250
204	30
216	30
217	50
218	490
219	170
220	30
231	240
232	40
244	40
371	110
372	20
384	20
385	20
386	9999
387	3183
388	861
389	140
