Mass Spectrum: Silane, dimethyl(4-methoxyphenoxy)ethoxy-
Formula: C11 H18 O3 Si
Molecular weight: 226
Origin: V.G. Zaikin, R.S.Borisov, TIPS RAS, Moscow, Russia
m/z	RELATIVE INTENSITY
45	60
47	40
59	190
61	20
73	20
75	811
76	30
77	160
78	20
85	40
90	480
91	360
92	120
95	40
101	20
103	2222
104	160
105	120
107	20
108	140
109	100
110	20
121	230
123	140
124	80
125	20
135	50
137	100
138	30
139	50
151	200
152	30
153	30
165	150
166	70
167	2192
168	360
169	70
179	30
181	1221
182	220
183	2342
184	270
185	70
196	20
209	90
211	3823
212	591
213	140
225	20
226	9999
227	1621
228	470
