Mass Spectrum: Silane, dimethyl(2-biphenyloxy)heptadecyloxy-
Formula: C31 H50 O2 Si
Molecular weight: 482
Origin: V.G. Zaikin, R.S.Borisov, TIPS RAS, Moscow, Russia
m/z	RELATIVE INTENSITY
29	20
41	120
42	10
43	290
55	280
56	40
57	430
59	20
67	20
69	240
70	30
71	320
75	350
76	20
77	30
83	150
84	20
85	220
89	30
97	90
99	30
101	20
105	20
106	20
111	30
113	50
115	30
141	20
152	90
153	40
154	70
165	60
167	30
168	30
169	30
170	50
181	10
195	20
196	20
197	70
211	4594
212	911
213	540
214	70
215	10
225	120
226	40
227	2262
228	711
229	711
230	130
231	20
239	40
241	30
243	10
244	581
245	110
246	20
257	60
467	120
468	40
480	40
481	20
482	9999
483	4034
484	1161
485	220
486	20
