Mass Spectrum: Silane, dimethyldi(2,5-dimethylphenoxy)-
Formula: C18 H24 O2 Si
Molecular weight: 300
Origin: V.G. Zaikin, R.S.Borisov, TIPS RAS, Moscow, Russia
m/z	RELATIVE INTENSITY
27	50
39	90
41	30
45	70
47	40
50	20
51	90
52	40
53	80
59	230
60	20
61	70
63	50
65	120
74	20
75	490
76	50
77	621
78	180
79	310
80	20
81	30
82	40
83	20
85	20
89	100
90	20
91	460
92	70
93	40
95	20
102	40
103	330
104	150
105	2212
106	210
107	80
109	30
115	90
116	20
117	70
118	20
119	250
120	40
121	160
122	80
123	30
126	20
127	70
128	30
133	60
134	210
135	480
136	40
137	40
141	130
142	450
143	50
145	60
147	160
148	140
149	761
150	661
151	80
159	30
161	340
162	190
163	2132
164	400
165	250
166	40
167	20
175	140
176	40
177	450
178	2642
179	1882
180	390
181	130
191	30
192	40
193	90
194	40
195	40
209	40
237	70
239	30
251	40
252	40
253	50
255	110
256	20
265	60
266	20
267	2472
268	621
269	240
270	90
271	20
283	110
284	80
285	1832
286	450
287	110
299	110
300	9999
301	2332
302	621
303	90
