Mass Spectrum: Fumaric acid 2-heptyl nonyl ester
Formula: C20 H36 O4
Molecular weight: 340
Origin: V.G. Zaikin, R.S.Borisov, TIPS RAS, Moscow, Russia
m/z	RELATIVE INTENSITY
25	40
26	430
27	1511
29	2062
30	40
31	50
39	921
40	130
41	5175
42	1581
43	6105
44	20
45	280
50	20
51	30
53	561
54	1521
55	7577
56	6286
57	9999
58	490
59	40
65	40
66	60
67	671
68	931
69	8107
70	4204
71	3603
72	280
73	120
74	20
77	50
78	20
79	80
80	50
81	1081
82	2582
83	4464
84	1251
85	2072
86	140
87	10
91	70
93	40
94	40
95	310
96	430
97	1762
98	6336
99	5585
100	6105
101	901
102	70
105	30
107	80
108	30
109	120
110	80
111	230
112	130
113	180
114	100
115	280
116	190
117	3543
118	781
119	260
121	20
122	30
123	130
124	470
125	1091
126	571
127	841
128	100
129	30
136	20
137	60
138	80
139	180
140	220
141	210
142	150
143	240
144	60
145	30
150	30
151	90
152	390
153	370
154	190
155	130
156	40
157	500
158	50
159	30
161	160
164	20
165	20
167	60
168	150
169	260
170	160
171	500
172	80
173	20
178	40
179	70
180	20
181	50
182	90
183	150
184	20
185	30
195	40
196	130
197	1251
198	190
199	30
206	40
215	841
216	90
224	150
225	8778
226	1561
227	170
239	20
240	50
241	40
242	40
243	771
244	110
245	10
255	50
259	30
269	20
296	20
297	60
