Mass Spectrum: Silane, dimethyl(3-heptyloxy)propoxy-
Formula: C12 H28 O2 Si
Molecular weight: 232
Origin: V.G. Zaikin, R.S.Borisov, TIPS RAS, Moscow, Russia
m/z	RELATIVE INTENSITY
26	40
27	110
28	50
29	140
39	20
41	30
42	60
44	120
45	390
47	220
54	20
58	260
59	611
60	70
61	290
63	120
72	490
73	40
74	100
75	6025
76	450
77	1451
78	70
79	30
85	40
86	20
87	110
88	150
93	40
98	30
99	110
101	290
102	440
104	550
105	140
115	200
116	50
117	9999
118	1021
119	3223
120	290
121	50
131	230
132	30
133	861
134	70
145	2122
146	5305
147	540
148	1091
149	60
150	20
151	30
160	80
163	80
164	140
173	380
174	60
175	8388
176	1111
177	290
203	5965
204	1792
205	400
206	30
217	1201
218	160
219	90
231	70
