Mass Spectrum: Silane, dimethyl(3-methylphenoxy)butoxy-
Formula: C13 H22 O2 Si
Molecular weight: 238
Origin: V.G. Zaikin, R.S.Borisov, TIPS RAS, Moscow, Russia
m/z	RELATIVE INTENSITY
27	90
29	150
39	140
41	190
43	130
45	250
47	160
50	20
51	50
52	20
53	30
55	110
56	30
57	20
58	70
59	330
60	40
61	170
62	20
63	80
64	20
65	310
67	40
68	50
74	50
75	1792
76	130
77	480
78	90
79	190
81	30
82	671
83	120
85	50
87	20
89	260
90	110
91	1631
92	140
95	70
97	70
99	40
101	20
103	100
104	50
105	861
106	70
107	120
108	30
109	140
111	30
115	90
119	30
121	20
123	20
131	340
132	30
133	30
134	20
135	500
136	60
137	110
139	20
145	20
147	100
148	80
149	1031
150	160
151	781
152	100
153	30
161	40
162	20
163	210
164	80
165	5155
166	901
167	9999
168	1361
169	450
170	20
175	50
176	50
177	50
179	280
180	40
181	631
182	1341
183	210
184	40
193	40
195	1581
196	240
197	60
205	50
223	5555
224	981
225	250
226	20
237	40
238	7086
239	1331
240	340
241	30
