Mass Spectrum: Silane, dimethyl(1-phenylpropoxy)hexyloxy-
Formula: C17 H30 O2 Si
Molecular weight: 294
Origin: V.G. Zaikin, R.S.Borisov, TIPS RAS, Moscow, Russia
m/z	RELATIVE INTENSITY
27	30
29	40
39	40
41	140
42	20
43	140
45	70
47	60
51	30
55	180
56	30
57	20
58	40
59	140
61	80
63	30
65	20
69	20
74	70
75	2692
76	200
77	1021
78	100
79	50
82	240
83	340
84	20
85	20
87	30
88	20
89	420
90	50
91	1631
92	120
97	140
99	40
101	180
102	40
103	110
104	140
105	480
106	60
107	30
115	200
116	40
117	420
118	120
119	190
120	20
129	30
131	120
133	20
135	270
136	30
137	30
143	20
145	20
146	90
147	20
148	20
149	250
150	30
151	50
159	2252
160	310
161	931
162	110
163	220
164	80
165	2072
166	300
167	90
173	130
175	10
177	30
179	100
181	220
182	20
191	20
192	30
193	120
194	20
195	120
209	40
221	40
223	370
224	50
263	20
265	9999
266	2172
267	581
268	60
279	50
281	40
293	20
294	20
