Mass Spectrum: Silane, dimethyl(4-ethylphenoxy)heptyloxy-
Formula: C17 H30 O2 Si
Molecular weight: 294
Origin: V.G. Zaikin, R.S.Borisov, TIPS RAS, Moscow, Russia
m/z	RELATIVE INTENSITY
27	80
29	140
39	90
41	380
42	60
43	390
45	80
47	80
51	20
53	20
55	1061
56	100
57	801
58	40
59	540
60	20
61	170
65	20
67	20
69	170
70	50
73	861
74	100
75	2542
76	160
77	450
78	70
79	60
81	20
82	280
85	30
87	40
89	320
90	40
91	470
92	20
97	540
98	30
99	60
101	130
102	30
103	160
104	100
105	280
107	100
115	90
117	20
119	90
120	20
121	90
122	30
131	20
133	30
135	781
136	70
137	190
145	20
147	170
148	100
149	751
150	100
151	691
152	60
153	140
161	831
162	150
163	4234
164	691
165	1882
166	260
167	210
173	350
174	30
175	40
177	6005
178	5905
179	3383
180	661
181	1942
182	280
183	180
193	150
194	40
195	2672
196	1271
197	290
198	40
209	661
210	100
279	1982
280	440
294	9999
295	2432
296	661
297	80
