Mass Spectrum: Silane, dimethyl(2-methoxyethoxy)hexyloxy-
Formula: C11 H26 O3 Si
Molecular weight: 234
Origin: V.G. Zaikin, R.S.Borisov, TIPS RAS, Moscow, Russia
m/z	RELATIVE INTENSITY
27	30
39	30
41	110
43	90
45	60
47	140
55	290
58	260
59	691
60	130
61	540
62	20
63	30
67	20
74	90
75	2612
76	210
77	430
82	70
83	761
84	40
87	150
88	250
89	4504
90	440
91	5285
92	370
93	250
99	90
101	320
102	40
103	470
104	70
105	420
106	30
107	110
115	210
116	30
117	651
118	70
119	1281
120	120
121	40
129	20
131	200
132	210
133	6186
134	661
135	230
143	90
145	60
147	20
157	20
159	2382
160	290
161	140
173	20
175	2312
176	310
177	50
187	90
189	1962
190	270
219	9999
220	1631
221	490
222	20
