Mass Spectrum: Silane, dimethyl(undec-2-enyloxy)nonyloxy-
Formula: C22 H46 O2 Si
Molecular weight: 370
Origin: V.G. Zaikin, R.S.Borisov, TIPS RAS, Moscow, Russia
m/z	RELATIVE INTENSITY
27	140
29	340
39	170
41	941
42	130
43	1011
45	100
47	80
53	90
54	420
55	1351
56	160
57	480
58	60
59	330
60	50
61	360
63	90
66	90
67	891
68	631
69	2612
70	190
71	100
74	80
75	7176
76	561
77	3833
78	220
79	200
80	70
81	1141
82	1271
83	1962
84	140
85	30
86	30
87	160
88	70
89	1181
90	120
91	460
92	20
93	1091
94	100
95	1391
96	951
97	450
98	50
99	490
100	60
101	1001
102	100
103	480
104	30
105	891
106	50
107	70
109	671
110	430
111	290
113	440
114	140
115	1742
116	190
117	530
118	60
119	100
121	40
123	330
124	540
125	110
126	20
127	220
128	60
129	1091
130	140
131	1822
132	190
137	20
141	110
142	20
143	480
144	120
145	961
146	110
147	20
152	540
155	50
157	280
158	40
159	310
160	20
161	30
169	50
171	220
172	30
173	130
183	30
185	320
186	40
187	130
189	20
199	220
200	50
201	5605
202	951
203	5085
204	821
205	300
206	20
211	290
212	30
213	631
214	90
215	130
217	90
219	340
220	40
226	40
227	240
228	40
229	1171
230	190
231	440
232	60
241	20
243	671
244	140
245	40
255	30
257	9999
258	2152
259	591
260	50
271	2252
272	490
273	120
285	550
286	110
287	20
297	20
299	530
300	100
301	20
313	1922
314	460
315	100
327	1541
328	370
329	90
341	310
342	60
355	3653
356	1011
357	330
358	40
369	100
370	1491
371	400
372	80
