Mass Spectrum: Silane, dimethyl(2,2-dichloroethoxy)isobutoxy-
Formula: C8 H18 Cl2 O2 Si
Molecular weight: 244
Origin: V.G. Zaikin, R.S.Borisov, TIPS RAS, Moscow, Russia
m/z	RELATIVE INTENSITY
26	50
27	470
29	410
39	410
41	891
42	100
43	1161
45	911
46	50
47	450
48	20
49	60
50	30
51	10
53	30
55	290
56	100
57	671
58	941
59	861
60	250
61	480
62	140
63	400
64	50
65	450
67	110
71	30
73	50
74	120
75	4904
76	330
77	631
78	120
79	310
80	70
81	380
82	20
83	250
85	200
87	50
88	581
89	1311
90	160
91	120
92	270
93	8608
94	751
95	9999
96	621
97	2572
98	120
99	260
101	170
103	971
104	70
105	170
107	20
108	50
109	210
110	20
111	60
113	661
114	30
115	781
116	40
117	240
119	30
121	841
122	60
123	380
124	20
125	40
129	40
131	1872
132	170
133	40
135	701
136	60
137	851
138	60
139	320
141	50
143	20
145	40
149	60
151	1611
152	140
153	561
154	40
155	80
157	6746
158	490
159	4494
160	320
161	5545
162	490
163	140
165	20
167	10
171	8808
172	741
173	6075
174	450
175	1141
176	60
177	30
193	50
201	611
202	40
203	320
204	20
205	60
229	330
230	20
231	200
233	20
