Mass Spectrum: Malonic acid, 3,3-dimethylbut-2-yl isohexyl ester
Formula: C15 H28 O4
Molecular weight: 272
Origin: V.G. Zaikin, R.S.Borisov, TIPS RAS, Moscow, Russia
m/z	RELATIVE INTENSITY
27	180
29	340
39	170
40	20
41	881
42	460
43	3383
53	80
54	40
55	701
56	180
57	971
60	230
61	40
67	50
68	20
69	1151
70	130
71	130
72	30
83	130
84	3323
85	9999
86	701
87	811
88	20
89	20
99	50
100	40
101	751
104	300
105	651
106	20
111	410
112	30
115	70
116	10
118	240
119	40
125	130
127	30
129	40
131	40
132	1411
133	520
134	30
144	50
153	120
158	20
159	40
171	1161
172	110
173	40
188	40
189	40
216	270
217	50
243	10
257	60
