Mass Spectrum: Silane, dimethyl(2,3-dimethylphenoxy)hexyloxy-
Formula: C16 H28 O2 Si
Molecular weight: 280
Origin: V.G. Zaikin, R.S.Borisov, TIPS RAS, Moscow, Russia
m/z	RELATIVE INTENSITY
27	120
29	190
39	130
41	400
42	60
43	581
45	110
47	120
51	40
53	50
55	500
56	130
57	40
58	60
59	320
60	30
61	130
63	30
65	60
67	30
69	50
74	40
75	2202
76	170
77	550
78	110
79	190
81	80
82	300
83	430
84	50
85	50
87	40
88	30
89	480
90	70
91	310
92	40
93	30
99	70
101	100
102	30
103	250
104	120
105	3083
106	290
107	70
115	110
116	20
117	70
119	320
120	40
121	180
122	60
129	20
131	20
133	30
135	120
137	30
143	40
145	60
147	150
148	120
149	731
150	110
151	180
152	20
159	370
160	40
161	270
162	260
163	2853
164	530
165	781
166	130
167	50
175	110
176	20
177	691
178	3954
179	3863
180	831
181	3433
182	510
183	250
184	20
189	40
191	110
193	300
194	60
195	2172
196	1912
197	390
198	90
205	20
207	40
209	1141
210	190
211	40
219	20
223	40
265	2162
266	470
267	110
279	20
280	9999
281	2282
282	611
283	70
