Mass Spectrum: Silane, dimethyl(2-hexyloxy)ethoxy-
Formula: C10 H24 O2 Si
Molecular weight: 204
Origin: V.G. Zaikin, R.S.Borisov, TIPS RAS, Moscow, Russia
m/z	RELATIVE INTENSITY
27	100
29	160
39	60
41	180
42	40
43	200
45	320
47	200
55	110
56	40
57	30
58	120
59	480
60	70
61	300
62	30
63	120
69	40
72	20
73	190
74	70
75	1982
76	180
77	1301
78	70
79	50
84	30
87	150
88	100
89	180
90	10
91	30
99	20
101	160
102	90
103	6976
104	701
105	3263
106	270
107	120
115	60
117	140
121	30
129	20
131	200
132	40
133	60
145	621
146	80
147	9999
148	1211
149	440
150	20
159	170
160	20
173	20
189	2332
190	360
191	110
203	120
