Mass Spectrum: Silane, dimethyl(3-methylbut-2-enyloxy)nonyloxy-
Formula: C16 H34 O2 Si
Molecular weight: 286
Origin: V.G. Zaikin, R.S.Borisov, TIPS RAS, Moscow, Russia
m/z	RELATIVE INTENSITY
26	20
27	130
29	260
39	170
40	20
41	931
42	110
43	631
45	160
47	160
53	130
54	60
55	761
56	90
57	390
58	50
59	250
60	70
61	320
62	20
63	90
64	50
65	20
67	320
68	971
69	1331
70	90
71	190
74	80
75	6015
76	480
77	2963
78	170
79	160
81	591
82	170
83	1001
84	60
87	130
88	50
89	731
90	90
91	330
93	100
95	180
96	70
97	100
99	190
100	20
101	581
102	50
103	260
104	20
105	641
106	40
107	30
109	70
111	60
113	250
114	30
115	310
116	40
117	460
118	40
119	100
123	50
124	210
125	60
127	330
128	60
129	1221
130	150
131	410
132	40
141	290
142	90
143	380
144	60
145	1051
146	110
147	320
148	20
157	140
158	30
159	4244
160	561
161	180
163	40
171	110
173	871
174	100
175	80
185	150
186	20
187	40
199	90
200	20
201	2762
202	440
203	1571
204	230
205	50
213	20
215	140
216	20
217	160
229	991
230	160
231	240
232	20
243	200
244	30
255	20
257	120
271	9999
272	2112
273	761
274	100
285	120
286	761
287	160
288	30
