Mass Spectrum: Silane, dimethyl(4-ethylphenoxy)hexyloxy-
Formula: C16 H28 O2 Si
Molecular weight: 280
Origin: V.G. Zaikin, R.S.Borisov, TIPS RAS, Moscow, Russia
m/z	RELATIVE INTENSITY
26	40
27	260
29	370
39	210
41	691
42	100
43	1641
45	270
47	250
51	90
52	20
53	60
55	891
56	130
57	90
58	110
59	1141
60	70
61	380
63	50
65	100
67	20
73	651
74	120
75	4374
76	320
77	601
78	160
79	120
81	40
82	621
83	651
84	30
85	170
87	70
88	30
89	480
90	80
91	811
92	60
95	30
99	100
101	170
102	60
103	330
104	190
105	460
106	30
107	120
115	110
117	30
119	160
120	40
121	170
122	30
123	30
135	1281
136	140
137	340
143	30
145	40
147	550
148	190
149	1231
150	170
151	1011
152	110
153	240
159	651
160	60
161	1131
162	200
163	6316
164	991
165	2933
166	400
167	310
168	20
175	60
177	7977
178	7717
179	4464
180	811
181	2682
182	370
183	210
191	30
193	150
194	40
195	3113
196	1381
197	280
198	30
209	901
210	120
211	20
237	30
251	30
265	2783
266	561
267	110
280	9999
281	2212
282	550
283	40
