Mass Spectrum: Silane, dimethyl(4-acetylphenoxy)ethoxy-
Formula: C12 H18 O3 Si
Molecular weight: 238
Origin: V.G. Zaikin, R.S.Borisov, TIPS RAS, Moscow, Russia
m/z	RELATIVE INTENSITY
27	20
29	40
39	30
43	1021
45	200
47	120
50	40
51	30
53	20
57	50
58	20
59	300
60	50
61	70
62	40
63	50
64	20
65	60
71	30
73	50
74	70
75	951
76	160
77	240
78	30
79	40
85	40
87	20
89	671
90	330
91	400
92	50
93	30
95	30
101	20
103	1031
104	260
105	100
107	60
111	20
117	40
119	40
120	20
121	100
123	60
133	70
134	30
135	270
136	50
137	220
138	20
147	20
148	20
149	130
150	80
151	410
152	60
153	310
154	30
161	110
163	220
164	30
165	60
177	100
179	300
180	40
181	230
182	30
193	240
194	40
195	310
196	60
209	10
221	40
223	9999
224	1581
225	470
226	40
238	2572
239	470
240	130
