Mass Spectrum: Silane, dimethyl(3-methylbut-2-enyloxy)tridecyloxy-
Formula: C20 H42 O2 Si
Molecular weight: 342
Origin: V.G. Zaikin, R.S.Borisov, TIPS RAS, Moscow, Russia
m/z	RELATIVE INTENSITY
26	20
27	150
29	330
39	210
40	50
41	1241
42	210
43	1251
45	120
47	110
51	20
53	170
54	120
55	1331
56	210
57	1081
58	80
59	260
60	50
61	330
62	20
63	90
64	20
65	20
66	30
67	490
68	1501
69	2242
70	250
71	571
72	20
73	20
74	90
75	7136
76	530
77	3143
78	160
79	150
80	20
81	851
82	420
83	1341
84	110
85	110
87	90
88	40
89	891
90	90
91	440
92	20
93	190
94	20
95	390
96	280
97	1111
98	100
99	180
101	561
102	50
103	270
104	20
105	821
106	60
107	60
109	230
110	100
111	450
112	50
113	230
114	30
115	330
116	40
117	510
118	50
119	130
123	110
124	70
125	120
127	320
128	70
129	1241
130	130
131	460
132	30
133	60
137	40
141	280
142	90
143	450
144	70
145	1131
146	110
147	530
148	40
149	50
151	30
152	40
157	160
158	30
159	5275
160	691
161	240
163	120
171	120
172	20
173	1091
174	120
175	120
180	140
185	60
187	40
199	30
201	651
202	80
203	20
213	20
215	50
241	110
243	50
255	40
257	1301
258	270
259	1021
260	180
261	30
271	120
273	150
274	20
285	1121
286	230
287	230
288	30
289	20
299	120
317	40
327	9999
328	2752
329	781
330	110
341	120
342	641
343	180
344	40
