Mass Spectrum: Silane, dimethyl(dimethyl(3-phenylpro-2-enyloxy)silyloxy)heptyloxy-
Formula: C20 H36 O3 Si2
Molecular weight: 380
Origin: V.G. Zaikin, R.S.Borisov, TIPS RAS, Moscow, Russia
m/z	RELATIVE INTENSITY
27	50
29	70
39	70
41	210
42	30
43	280
50	20
51	40
52	10
55	210
56	50
57	1001
58	30
59	20
61	20
63	20
65	50
66	10
67	10
68	10
69	50
70	30
71	30
73	120
74	20
75	220
76	30
77	120
78	50
79	10
81	10
85	30
89	60
90	10
91	631
92	60
96	10
97	50
98	10
101	10
102	50
103	60
104	110
105	380
106	20
115	1922
116	1461
117	9999
118	2112
119	350
120	10
121	20
124	10
125	70
128	10
129	50
130	40
131	90
132	1481
133	2302
134	290
135	430
136	40
137	30
145	20
147	60
148	20
149	7196
150	1091
151	871
152	80
153	20
163	50
167	10
173	10
177	20
181	10
191	20
195	10
206	10
219	20
223	10
233	20
238	10
245	30
247	7927
248	1912
249	811
250	130
251	20
262	10
263	50
264	340
265	140
266	60
267	390
268	80
269	70
270	10
275	10
276	160
277	30
278	10
281	1191
282	300
283	90
334	10
380	120
381	30
