Mass Spectrum: Silane, dimethyl(2,5-dimethylphenoxy)butoxy-
Formula: C14 H24 O2 Si
Molecular weight: 252
Origin: V.G. Zaikin, R.S.Borisov, TIPS RAS, Moscow, Russia
m/z	RELATIVE INTENSITY
26	50
27	240
29	350
39	210
40	20
41	360
43	110
45	300
47	300
50	20
51	100
52	30
53	80
55	180
57	70
58	100
59	540
60	50
61	200
63	70
65	110
67	30
68	30
74	100
75	3183
76	230
77	821
78	160
79	300
81	250
82	751
83	50
85	30
87	30
88	40
89	1041
90	150
91	400
92	40
93	30
97	20
99	20
101	30
102	40
103	270
104	230
105	3663
106	320
107	100
115	120
116	20
117	70
119	300
120	30
121	210
122	80
123	20
131	641
132	60
133	20
135	110
137	30
145	40
147	180
148	100
149	681
150	90
151	200
161	280
162	210
163	3023
164	510
165	891
166	140
167	40
175	80
176	60
177	651
178	4244
179	3843
180	781
181	4464
182	641
183	240
193	180
194	30
195	1862
196	1081
197	210
198	30
205	20
209	1061
210	160
211	40
219	40
237	3553
238	681
239	180
251	30
252	9999
253	2152
254	571
255	60
