Mass Spectrum: Silane, dimethyl(4-heptyloxy)propoxy-
Formula: C12 H28 O2 Si
Molecular weight: 232
Origin: V.G. Zaikin, R.S.Borisov, TIPS RAS, Moscow, Russia
m/z	RELATIVE INTENSITY
26	40
27	380
29	350
39	240
40	30
41	741
42	110
43	591
45	601
47	480
55	380
56	190
57	140
58	350
59	991
60	120
61	571
62	20
63	180
69	100
70	50
71	20
72	40
73	60
74	150
75	8368
76	621
77	3073
78	130
79	70
83	30
85	60
87	80
88	180
89	751
90	80
91	110
93	90
97	20
98	20
99	130
101	470
102	40
103	180
105	260
113	30
115	270
116	30
117	8047
118	781
119	3253
120	230
121	90
129	60
131	3833
132	430
133	801
134	50
135	20
145	230
146	60
147	530
148	20
149	20
159	190
160	20
161	20
173	390
174	20
175	20
187	40
189	9999
190	1211
191	350
203	3123
204	540
205	120
217	420
218	50
231	70
