Mass Spectrum: Silane, dimethyldi(3-methylphenoxy)-
Formula: C16 H20 O2 Si
Molecular weight: 272
Origin: V.G. Zaikin, R.S.Borisov, TIPS RAS, Moscow, Russia
m/z	RELATIVE INTENSITY
39	130
41	20
43	20
45	120
47	40
50	30
51	110
52	50
53	50
59	180
61	70
62	20
63	120
64	30
65	510
66	30
67	20
75	540
76	50
77	450
78	160
79	240
82	40
83	30
85	40
89	190
90	110
91	1371
92	120
93	30
95	70
97	30
99	30
103	120
104	50
105	530
106	60
107	130
109	150
111	20
115	30
119	90
120	60
121	100
122	20
123	20
127	260
128	190
129	20
133	30
134	140
135	571
136	210
137	90
145	40
147	100
148	80
149	641
150	120
151	180
152	50
153	30
161	90
162	50
163	330
164	200
165	2242
166	400
167	150
168	20
175	20
178	80
179	130
180	60
181	50
182	50
193	20
195	50
196	20
197	50
209	80
211	50
213	20
216	30
223	70
224	80
225	70
226	20
227	420
228	70
229	40
237	90
238	50
239	9699
240	2082
241	751
242	140
243	30
253	30
255	80
256	50
257	2722
258	611
259	160
270	20
271	50
272	9999
273	2232
274	621
275	80
