Mass Spectrum: Silane, dimethyl(4-isopropoxyphenoxy)hexyloxy-
Formula: C17 H30 O3 Si
Molecular weight: 310
Origin: V.G. Zaikin, R.S.Borisov, TIPS RAS, Moscow, Russia
m/z	RELATIVE INTENSITY
27	20
39	20
41	90
42	20
43	190
55	50
56	20
59	20
75	430
76	30
77	70
85	20
89	20
91	30
110	30
135	20
136	160
137	50
149	30
151	881
152	120
153	140
165	30
166	9999
167	1932
168	681
169	230
170	20
193	30
209	90
252	30
253	80
310	1001
311	210
312	50
