Mass Spectrum: Silane, dimethyl(3-ethylphenoxy)isohexyloxy-
Formula: C16 H28 O2 Si
Molecular weight: 280
Origin: V.G. Zaikin, R.S.Borisov, TIPS RAS, Moscow, Russia
m/z	RELATIVE INTENSITY
26	10
27	150
29	150
39	160
41	641
42	50
43	851
45	150
47	120
51	50
53	50
55	1371
56	791
57	60
58	80
59	460
60	40
61	180
63	30
65	60
67	30
68	30
69	60
73	220
74	50
75	1391
76	120
77	300
78	80
79	170
81	30
82	500
83	6656
84	470
85	130
88	30
89	130
90	80
91	410
92	30
95	50
97	20
99	80
101	80
102	30
103	190
104	120
105	270
106	30
107	120
109	20
111	20
115	70
117	60
119	210
120	30
121	80
122	50
123	60
131	40
133	90
135	410
136	50
137	130
143	110
147	40
148	60
149	601
150	120
151	470
152	80
153	110
159	40
161	410
162	70
163	851
164	170
165	591
166	120
167	100
177	601
178	220
179	4534
180	821
181	3914
182	621
183	220
189	60
191	40
193	140
194	30
195	320
196	3713
197	751
198	200
199	20
205	20
207	30
209	1441
210	240
211	70
219	20
222	20
223	70
224	30
265	200
266	40
279	10
280	9999
281	2272
282	601
283	70
