Mass Spectrum: Silane, dimethyl(3-methylbut-2-enyloxy)heptadecyloxy-
Formula: C24 H50 O2 Si
Molecular weight: 398
Origin: V.G. Zaikin, R.S.Borisov, TIPS RAS, Moscow, Russia
m/z	RELATIVE INTENSITY
26	40
27	150
29	310
39	230
40	20
41	1201
42	220
43	1551
45	70
47	50
51	20
53	180
54	150
55	1471
56	300
57	1331
58	90
59	190
60	20
61	260
63	80
65	30
66	30
67	571
68	1441
69	2492
70	300
71	921
72	30
74	50
75	5775
76	410
77	2362
78	130
79	140
80	40
81	781
82	540
83	1281
84	170
85	450
86	20
87	60
88	20
89	701
91	440
92	30
93	220
94	20
95	410
96	370
97	1041
98	120
99	130
101	410
102	30
103	190
105	691
106	40
107	70
109	240
110	120
111	430
112	50
113	160
114	20
115	230
116	30
117	400
118	30
119	120
121	30
123	100
124	50
125	130
127	200
128	70
129	881
130	90
131	360
132	30
133	50
137	40
138	20
139	20
141	210
142	70
143	370
144	50
145	911
146	90
147	510
148	40
149	40
151	50
155	30
157	120
158	30
159	4644
160	591
161	220
163	120
171	90
172	20
173	1061
174	100
175	110
185	40
187	30
199	20
201	561
202	80
213	20
215	50
227	20
236	100
241	10
243	30
257	130
258	10
297	80
299	20
311	20
313	621
314	140
315	691
316	150
317	20
327	80
328	20
329	160
330	20
341	1321
342	360
343	250
344	30
355	90
383	9999
384	3123
385	821
386	120
397	90
398	601
399	240
400	50
