Mass Spectrum: Silane, dimethyl(3-methylbut-2-enyloxy)hexyloxy-
Formula: C13 H28 O2 Si
Molecular weight: 244
Origin: V.G. Zaikin, R.S.Borisov, TIPS RAS, Moscow, Russia
m/z	RELATIVE INTENSITY
27	130
29	120
39	210
40	50
41	891
43	450
45	350
47	330
53	230
55	350
58	130
59	641
60	150
61	500
62	30
63	160
64	220
65	30
67	380
68	1101
69	641
72	20
73	20
74	170
75	9048
76	751
77	4654
78	280
79	350
81	651
82	70
83	811
85	140
87	170
88	100
89	1161
90	150
91	430
92	40
93	100
95	80
99	230
100	20
101	801
102	70
103	430
104	30
105	791
106	50
109	20
113	330
114	40
115	1631
116	230
117	1351
118	130
119	140
125	60
127	631
128	100
129	2092
130	270
131	581
132	50
133	80
137	20
141	470
142	110
143	631
144	80
145	2112
146	250
147	230
155	30
157	290
158	80
159	9318
160	1321
161	3123
162	360
163	100
171	210
172	30
173	1041
174	150
175	340
176	40
185	50
187	891
188	130
189	270
190	20
199	30
201	861
202	130
203	30
215	70
229	9999
230	1862
231	390
232	30
243	130
244	811
245	160
246	30
