Mass Spectrum: Silane, dimethyl(3-methylpentyloxy)octyloxy-
Formula: C16 H36 O2 Si
Molecular weight: 288
Origin: V.G. Zaikin, R.S.Borisov, TIPS RAS, Moscow, Russia
m/z	RELATIVE INTENSITY
27	120
29	310
39	100
40	20
41	611
42	110
43	651
45	110
47	90
53	40
54	30
55	1121
56	360
57	440
58	80
59	270
60	60
61	290
63	70
67	110
68	60
69	1531
70	150
71	200
73	20
74	50
75	2402
76	180
77	1712
78	90
79	110
81	50
82	50
83	6326
84	731
85	310
86	20
87	160
88	90
89	1161
90	110
91	540
92	30
93	290
97	30
99	130
101	430
102	50
103	300
104	20
105	430
106	20
107	140
111	180
112	30
113	60
115	320
116	30
117	270
119	591
120	50
121	20
127	20
129	210
130	20
131	190
133	130
143	170
144	20
145	170
147	20
157	40
159	280
160	20
161	40
171	50
173	50
175	30
177	40
187	731
188	100
189	741
190	90
191	40
201	20
203	260
204	20
205	90
215	60
217	1241
218	200
219	50
231	20
243	20
257	60
273	9999
274	2032
275	520
276	50
287	30
