Mass Spectrum: Silane, dimethyl(2,5-dimethylphenoxy)hexyloxy-
Formula: C16 H28 O2 Si
Molecular weight: 280
Origin: V.G. Zaikin, R.S.Borisov, TIPS RAS, Moscow, Russia
m/z	RELATIVE INTENSITY
27	80
29	100
39	80
41	250
42	40
43	350
45	80
47	90
51	30
53	30
55	430
56	90
57	30
58	50
59	240
60	20
61	100
63	20
65	40
67	20
69	30
74	40
75	1692
76	130
77	410
78	80
79	150
81	90
82	260
83	470
84	40
85	30
87	30
88	30
89	500
90	80
91	220
92	20
93	20
99	60
101	80
103	180
104	120
105	2492
106	230
107	60
115	90
117	50
118	20
119	250
120	20
121	140
122	60
133	20
135	80
137	30
143	40
145	40
147	80
148	80
149	540
150	80
151	140
159	320
160	40
161	250
162	220
163	2162
164	400
165	591
166	100
167	40
175	100
176	20
177	601
178	3553
179	3383
180	711
181	3373
182	520
183	270
184	20
189	20
191	40
193	250
194	60
195	2392
196	1672
197	360
198	70
205	20
207	30
209	951
210	150
211	40
219	30
223	20
265	1732
266	360
267	80
279	20
280	9999
281	2202
282	571
283	70
