Mass Spectrum: Silane, dimethyl(hex-4-yn-3-yloxy)octyloxy-
Formula: C16 H32 O2 Si
Molecular weight: 284
Origin: V.G. Zaikin, R.S.Borisov, TIPS RAS, Moscow, Russia
m/z	RELATIVE INTENSITY
27	90
29	150
39	110
41	430
42	50
43	340
44	40
45	160
47	140
51	30
52	30
53	180
54	30
55	520
56	70
57	110
58	50
59	270
60	60
61	300
63	70
65	40
66	40
67	170
68	50
69	1491
70	100
71	120
73	70
74	60
75	4834
76	390
77	1591
78	110
79	330
80	80
81	340
82	40
83	160
84	30
85	190
87	150
88	50
89	621
90	60
91	160
92	40
93	480
94	40
95	130
96	50
97	2662
98	320
99	1722
100	170
101	731
102	60
103	150
105	721
106	50
107	410
108	30
109	100
111	220
112	30
113	591
114	80
115	681
116	80
117	480
118	50
119	470
120	40
121	150
123	50
125	320
126	130
127	2712
128	350
129	681
130	70
131	240
133	30
139	571
140	80
141	1732
142	390
143	871
144	120
145	170
153	60
154	30
155	761
156	621
157	3523
158	500
159	250
163	70
167	60
169	290
170	60
171	951
172	190
173	100
183	160
184	50
185	1581
186	240
187	2412
188	390
189	150
197	130
199	60
201	40
203	20
209	320
210	40
211	2612
212	500
213	240
215	30
225	140
226	20
227	100
229	711
230	100
231	30
241	40
255	9999
256	2212
257	641
258	60
269	3743
270	871
271	230
283	130
284	30
