Mass Spectrum: Silane, dimethyl(undec-2-enyloxy)isohexyloxy-
Formula: C19 H40 O2 Si
Molecular weight: 328
Origin: V.G. Zaikin, R.S.Borisov, TIPS RAS, Moscow, Russia
m/z	RELATIVE INTENSITY
27	170
29	300
39	210
40	30
41	1051
42	150
43	1401
45	120
47	100
53	130
54	360
55	1702
56	330
57	260
58	60
59	330
60	50
61	330
63	80
65	30
66	70
67	881
68	440
69	851
70	70
74	90
75	5525
76	440
77	2582
78	150
79	160
80	60
81	991
82	1071
83	9999
84	751
85	791
86	40
87	110
88	90
89	701
90	90
91	250
93	270
94	30
95	1021
96	651
97	360
98	60
99	400
100	50
101	811
102	80
103	310
104	20
105	701
106	50
107	50
109	550
110	330
111	260
113	420
114	100
115	1231
116	150
117	380
119	150
121	20
123	300
124	300
125	60
127	150
128	50
129	711
130	100
131	1421
132	150
133	240
137	40
141	100
142	20
143	410
144	100
145	661
146	80
147	60
151	180
152	490
153	70
155	50
157	370
158	70
159	2042
160	280
161	901
162	100
163	20
165	40
169	30
171	150
172	20
173	140
175	60
177	300
178	40
185	120
187	310
188	30
189	70
197	20
199	60
201	50
211	200
212	30
213	510
214	80
215	5195
216	901
217	240
226	30
227	160
228	20
229	1611
230	290
231	70
241	10
243	611
244	110
245	30
257	1321
258	260
259	280
260	40
271	1241
272	260
273	50
285	1702
286	380
287	90
299	130
300	20
313	2502
314	611
315	130
327	70
328	931
329	210
330	40
