Mass Spectrum: Silane, dimethyldi(2-methylbutoxy)-
Formula: C12 H28 O2 Si
Molecular weight: 232
Origin: V.G. Zaikin, R.S.Borisov, TIPS RAS, Moscow, Russia
m/z	RELATIVE INTENSITY
26	30
27	380
29	911
31	20
39	330
40	40
41	1051
42	190
43	711
45	420
47	320
53	70
55	400
56	80
57	430
58	420
59	530
60	180
61	410
62	30
63	110
69	1722
70	420
71	350
72	30
73	30
74	120
75	5765
76	440
77	4114
78	250
79	150
85	60
87	70
88	370
89	2182
90	290
91	701
92	40
93	90
99	90
101	160
102	20
103	781
104	90
105	380
106	20
107	821
108	50
109	20
113	20
115	110
117	230
118	20
119	1191
120	100
121	40
129	170
131	130
133	350
134	30
143	70
145	2602
146	320
147	1341
148	140
159	80
161	240
162	20
163	20
175	3914
176	561
177	180
203	30
217	9999
218	1772
219	510
220	40
231	20
