Mass Spectrum: Silane, dimethyl(2-methyloct-5-yn-4-yloxy)pentyloxy-
Formula: C16 H32 O2 Si
Molecular weight: 284
Origin: V.G. Zaikin, R.S.Borisov, TIPS RAS, Moscow, Russia
m/z	RELATIVE INTENSITY
27	110
29	220
39	140
41	500
42	60
43	340
45	160
47	150
51	30
52	20
53	90
55	170
57	80
58	60
59	290
60	40
61	250
63	50
65	80
66	30
67	130
69	380
71	60
74	50
75	4414
76	350
77	1401
78	100
79	350
80	50
81	150
83	140
85	160
87	60
88	30
89	500
90	40
91	260
92	20
93	450
94	30
95	70
96	20
97	180
99	20
101	320
102	30
103	100
105	671
106	60
107	410
108	20
109	110
111	1992
112	230
113	791
114	70
115	140
116	20
117	140
119	60
121	100
123	70
125	250
127	390
128	60
129	561
130	60
131	110
133	50
135	360
136	30
137	20
139	220
140	60
141	1932
142	310
143	450
144	40
145	2642
146	320
147	260
151	20
153	70
155	390
156	130
157	571
158	80
161	30
167	50
169	530
170	110
171	3313
172	490
173	240
174	20
181	460
182	60
183	1361
184	240
185	310
186	40
197	350
198	150
199	190
200	20
209	40
211	40
213	310
214	40
215	420
216	60
225	20
227	9999
228	1872
229	530
230	50
231	40
242	30
255	1231
256	230
257	60
269	1742
270	370
271	90
283	60
284	70
