Mass Spectrum: Silane, dimethyl(2-isopropylphenoxy)pentyloxy-
Formula: C16 H28 O2 Si
Molecular weight: 280
Origin: V.G. Zaikin, R.S.Borisov, TIPS RAS, Moscow, Russia
m/z	RELATIVE INTENSITY
26	80
27	280
29	430
39	290
41	1031
42	220
43	2762
44	80
45	280
47	290
50	20
51	90
53	40
55	320
56	30
57	50
58	90
59	1121
60	40
61	350
63	40
65	120
67	40
69	1131
70	110
71	591
73	1772
74	170
75	5085
76	330
77	761
78	130
79	60
81	70
82	80
83	20
85	50
88	30
89	1511
90	80
91	971
92	60
95	60
99	30
101	110
102	30
103	250
104	150
105	150
107	70
115	380
116	30
117	160
118	110
119	40
120	20
121	420
123	40
131	20
133	80
134	20
135	901
136	190
137	220
143	20
145	561
146	20
147	210
148	30
149	851
150	70
151	1641
152	140
153	200
161	1161
162	170
163	1531
164	180
165	240
167	120
175	360
176	30
177	9999
178	1601
179	6996
180	1001
181	1852
182	190
183	20
191	3033
192	1311
193	721
194	110
195	771
196	90
197	130
207	70
209	901
210	290
211	30
221	30
223	190
237	80
247	100
265	5605
266	1071
267	260
280	7437
281	1581
282	350
283	20
