Mass Spectrum: Silane, dimethyl(4-methoxyphenoxy)isobutoxy-
Formula: C13 H22 O3 Si
Molecular weight: 254
Origin: V.G. Zaikin, R.S.Borisov, TIPS RAS, Moscow, Russia
m/z	RELATIVE INTENSITY
59	20
75	1011
76	40
77	120
89	20
90	100
91	110
92	40
95	40
107	20
108	70
109	70
110	20
121	170
123	110
124	90
125	20
131	540
132	30
135	60
137	30
138	40
139	20
149	20
151	190
152	20
153	30
165	110
166	80
167	250
168	70
179	50
181	5125
182	761
183	4834
184	671
185	210
195	30
197	20
198	200
211	901
212	120
213	20
221	50
239	360
240	50
254	9999
255	1932
256	510
257	30
