Mass Spectrum: Silane, dimethyl(2-isopropylphenoxy)octyloxy-
Formula: C19 H34 O2 Si
Molecular weight: 322
Origin: V.G. Zaikin, R.S.Borisov, TIPS RAS, Moscow, Russia
m/z	RELATIVE INTENSITY
26	50
27	180
29	300
39	180
41	971
42	80
43	1361
45	60
47	90
51	30
53	40
54	20
55	1051
56	160
57	1431
58	30
59	540
60	20
61	170
65	40
67	100
68	30
69	2522
70	180
71	1021
72	10
73	561
74	60
75	2943
76	170
77	360
78	50
79	40
81	60
82	30
83	120
84	20
85	30
87	30
89	651
90	20
91	440
92	30
95	30
97	20
99	60
101	140
102	20
103	150
104	50
105	80
107	30
111	390
112	20
115	260
116	20
117	100
118	70
119	30
120	20
121	270
129	20
133	20
135	561
136	100
137	130
147	100
148	20
149	611
150	50
151	1411
152	150
153	180
161	881
162	120
163	1291
164	150
165	230
167	120
169	40
175	350
176	20
177	7307
178	1231
179	4364
180	601
181	1631
182	170
183	30
185	50
187	170
189	20
191	3573
192	1391
193	571
194	110
195	951
196	130
197	370
198	20
209	1161
210	540
211	80
221	10
223	70
279	30
289	40
307	3183
308	741
309	150
322	9999
323	2462
324	581
325	40
