Mass Spectrum: Silane, dimethyl(2,5-dichlorophenyloxy)butoxy-
Formula: C12 H18 Cl2 O2 Si
Molecular weight: 292
Origin: V.G. Zaikin, R.S.Borisov, TIPS RAS, Moscow, Russia
m/z	RELATIVE INTENSITY
26	30
27	240
29	440
36	70
38	30
39	170
41	430
43	220
45	430
47	260
50	40
51	50
53	60
57	90
58	260
59	420
60	60
61	80
62	80
63	961
64	40
65	440
67	60
73	80
74	150
75	3813
76	290
78	20
79	260
81	150
85	20
87	50
88	90
89	330
90	40
92	90
93	3894
94	330
95	4594
96	280
97	1041
98	140
99	140
100	30
105	30
109	881
110	611
111	240
112	20
113	130
115	280
121	60
123	60
124	40
125	390
126	150
127	150
128	60
131	1501
132	140
133	130
135	60
141	20
147	100
148	80
149	190
150	50
151	220
153	50
155	90
157	50
163	20
165	30
167	20
168	20
169	230
170	120
171	140
172	30
177	30
179	90
181	40
182	30
183	480
184	130
185	3163
186	581
187	1041
188	160
191	120
193	50
195	30
199	90
200	30
201	30
205	801
206	100
207	500
208	50
209	70
213	40
215	40
219	4354
220	721
221	5975
222	851
223	2632
224	300
225	390
226	20
233	40
235	40
236	80
238	40
249	110
251	60
257	160
258	20
259	50
277	9999
278	1712
279	6896
280	1121
281	1321
282	190
283	30
292	2893
293	520
294	1972
295	390
296	370
297	70
