Mass Spectrum: Silane, dimethyl(non-3-enyloxy)pentyloxy-
Formula: C16 H34 O2 Si
Molecular weight: 286
Origin: V.G. Zaikin, R.S.Borisov, TIPS RAS, Moscow, Russia
m/z	RELATIVE INTENSITY
27	140
29	290
39	150
41	601
42	130
43	290
45	170
47	120
51	10
53	90
54	250
55	390
56	10
57	50
58	140
59	360
60	60
61	260
62	10
63	30
65	30
66	60
67	520
68	781
69	591
70	20
71	20
72	10
73	10
74	40
75	3713
76	260
77	741
78	40
79	60
80	20
81	601
82	761
85	70
87	110
88	210
89	3643
90	310
91	200
95	490
96	280
97	80
99	230
100	30
101	571
102	50
103	280
104	10
105	310
106	10
107	170
108	10
109	70
110	10
111	70
112	30
113	180
114	30
115	260
116	20
117	140
118	10
119	1151
120	100
121	40
123	80
124	2022
125	180
127	220
128	30
129	310
130	20
131	190
132	10
137	70
141	40
142	40
143	130
144	10
145	5895
146	791
155	30
157	70
159	250
160	20
161	50
169	30
171	70
173	190
174	20
175	9999
176	1321
177	410
178	30
183	210
184	20
185	440
186	60
187	80
188	20
189	190
190	10
198	20
199	661
200	90
213	10
229	370
230	50
243	30
257	150
258	20
259	10
271	731
272	140
286	90
