Mass Spectrum: Malonic acid, 3,3-dimethylbut-2-yl ethyl ester
Formula: C11 H20 O4
Molecular weight: 216
Origin: V.G. Zaikin, R.S.Borisov, TIPS RAS, Moscow, Russia
m/z	RELATIVE INTENSITY
26	30
27	420
29	2192
30	50
31	40
39	220
41	1371
42	611
43	3223
45	390
53	60
54	20
55	330
56	220
57	2432
58	100
59	30
60	250
61	240
67	60
68	30
69	1441
70	280
71	80
73	200
83	80
84	801
85	2813
86	220
87	951
88	3073
89	170
100	20
101	1501
102	100
105	40
113	20
114	20
115	9999
116	581
117	170
132	260
133	591
134	30
144	100
159	80
160	1141
161	911
162	70
201	50
