Mass Spectrum: Silane, dimethyldi(4-methylpent-2-yloxy)-
Formula: C14 H32 O2 Si
Molecular weight: 260
Origin: V.G. Zaikin, R.S.Borisov, TIPS RAS, Moscow, Russia
m/z	RELATIVE INTENSITY
27	40
29	80
39	70
41	230
42	80
43	150
44	120
45	160
47	110
55	170
56	60
57	60
58	70
59	190
60	40
61	200
63	60
69	180
72	10
73	90
74	80
75	3934
76	310
77	2032
78	90
79	70
83	280
84	110
85	180
86	20
87	80
89	420
90	30
91	90
93	40
99	50
101	350
102	60
103	1842
104	130
105	671
106	30
107	40
115	140
117	90
119	200
129	20
131	260
143	110
145	390
147	80
157	20
159	1151
160	130
161	701
162	70
173	20
175	50
187	100
189	390
190	50
192	20
203	9999
204	1551
205	480
206	20
207	20
217	2182
218	360
219	80
245	1521
246	280
247	60
259	20
