Mass Spectrum: Silane, dimethyl(2-naphthoxy)undecyloxy-
Formula: C23 H36 O2 Si
Molecular weight: 372
Origin: V.G. Zaikin, R.S.Borisov, TIPS RAS, Moscow, Russia
m/z	RELATIVE INTENSITY
29	30
41	100
43	140
55	190
57	120
59	40
69	140
71	50
75	751
76	50
77	30
83	100
89	100
93	20
97	80
101	110
115	100
127	70
128	200
129	30
141	230
142	20
144	20
145	30
149	140
167	40
170	20
171	40
185	1141
186	210
187	200
188	20
199	30
200	40
201	1191
202	280
203	280
204	30
216	40
217	50
218	561
219	150
220	30
229	40
231	260
232	50
244	40
357	120
358	20
371	20
372	9999
373	3083
374	791
375	110
