Mass Spectrum: Silane, dimethyl(4-(2-phenylprop-2-yl)phenoxy)butoxy-
Formula: C21 H30 O2 Si
Molecular weight: 342
Origin: V.G. Zaikin, R.S.Borisov, TIPS RAS, Moscow, Russia
m/z	RELATIVE INTENSITY
41	20
75	360
76	20
77	30
88	50
89	40
91	170
103	120
115	20
119	470
120	40
127	530
128	150
131	60
135	20
142	40
151	30
152	20
165	60
177	20
178	70
179	60
181	30
197	100
212	20
237	20
239	40
253	80
255	70
265	350
266	70
267	20
269	30
271	40
325	30
326	20
327	9999
328	2783
329	711
330	100
342	2032
343	520
344	140
