Mass Spectrum: Silane, dimethyl(2-methoxyethoxy)nonyloxy-
Formula: C14 H32 O3 Si
Molecular weight: 276
Origin: V.G. Zaikin, R.S.Borisov, TIPS RAS, Moscow, Russia
m/z	RELATIVE INTENSITY
27	90
29	230
39	80
41	420
42	70
43	410
45	300
47	70
53	20
54	30
55	430
56	80
57	240
58	240
59	571
60	70
61	430
63	20
67	70
68	50
69	1221
70	90
71	60
74	50
75	2062
76	140
77	400
81	70
82	30
83	831
84	50
85	40
87	110
88	160
89	3343
90	300
91	3583
92	240
93	190
95	30
97	60
99	100
101	320
102	40
103	410
104	50
105	510
106	20
107	110
113	30
115	250
116	30
117	631
118	70
119	1021
120	80
121	50
124	40
129	100
131	160
132	170
133	6186
134	641
135	320
143	50
145	60
147	90
149	30
159	60
161	60
173	20
175	10
185	30
189	20
201	1061
202	150
203	60
217	751
218	100
219	20
229	30
231	1041
232	170
233	30
261	9999
262	1902
263	510
264	40
