Mass Spectrum: Silane, dimethyl(oct-3-en-2-yloxy)octyloxy-
Formula: C18 H38 O2 Si
Molecular weight: 314
Origin: V.G. Zaikin, R.S.Borisov, TIPS RAS, Moscow, Russia
m/z	RELATIVE INTENSITY
26	30
27	170
29	310
39	170
40	20
41	841
42	130
43	510
45	140
47	150
53	110
54	90
55	1501
56	150
57	470
58	60
59	390
60	60
61	350
62	20
63	100
65	20
66	30
67	340
68	250
69	2322
70	160
71	110
73	20
74	100
75	6946
76	561
77	3153
78	190
79	150
81	320
82	50
83	140
84	20
85	90
87	190
88	70
89	911
90	90
91	330
92	20
93	190
95	200
97	150
99	270
100	30
101	751
102	90
103	440
104	30
105	370
106	20
107	20
109	140
110	260
111	280
112	40
113	350
114	60
115	611
116	90
117	240
118	30
119	250
120	20
123	20
125	40
127	380
128	220
129	1341
130	210
131	460
132	120
133	40
141	160
142	70
143	671
144	100
145	841
146	100
147	60
155	40
157	220
158	30
159	460
160	60
161	20
169	20
171	721
172	100
173	550
174	90
175	30
184	80
185	290
186	140
187	4874
188	791
189	1922
190	270
191	70
199	70
201	601
202	100
203	60
213	230
214	50
215	891
216	150
217	50
227	20
229	1231
230	220
231	280
232	30
241	30
243	270
244	561
245	120
246	20
255	50
257	9999
258	2172
259	561
260	70
271	1892
272	480
273	100
285	230
286	40
299	3463
300	781
301	200
313	80
314	981
315	220
316	40
