Mass Spectrum: Silane, dimethyl(3-methylbut-3-enyloxy)isobutoxy-
Formula: C11 H24 O2 Si
Molecular weight: 216
Origin: V.G. Zaikin, R.S.Borisov, TIPS RAS, Moscow, Russia
m/z	RELATIVE INTENSITY
27	100
29	140
39	230
40	60
41	540
42	50
43	270
45	370
46	10
47	280
51	10
53	110
54	10
55	430
56	30
57	460
58	410
59	781
60	120
61	460
62	20
63	60
64	50
65	10
67	190
68	260
69	100
71	80
72	50
74	140
75	6606
76	510
77	1621
78	90
79	60
81	40
83	20
84	10
85	340
86	30
87	230
88	360
89	4124
90	360
91	310
92	10
93	20
95	10
97	210
98	30
99	210
100	20
101	2582
102	240
103	1441
104	100
105	861
106	50
107	160
109	40
111	100
112	10
113	941
114	130
115	781
116	80
117	320
118	20
119	40
125	80
126	10
127	631
128	110
129	781
130	80
131	5015
132	621
133	380
134	30
141	20
142	30
143	5375
144	691
145	1181
146	140
147	170
148	10
155	20
157	10
159	1091
160	140
161	9999
162	1291
163	460
164	10
171	180
172	20
173	611
174	70
175	20
201	1802
202	290
203	70
216	1802
217	290
218	70
