Mass Spectrum: Silane, dimethyl(2,6-dimethoxyphenoxy)ethoxy-
Formula: C12 H20 O4 Si
Molecular weight: 256
Origin: V.G. Zaikin, R.S.Borisov, TIPS RAS, Moscow, Russia
m/z	RELATIVE INTENSITY
27	20
29	30
31	140
36	20
39	140
41	170
42	40
43	110
45	70
51	50
52	30
55	340
56	50
57	90
59	80
65	40
67	200
68	170
69	100
70	50
75	430
77	170
79	240
81	240
83	80
84	20
91	90
93	200
95	70
96	70
97	30
103	170
105	60
107	150
109	20
111	80
119	20
121	30
123	80
125	20
135	80
137	70
138	120
139	500
147	20
151	130
153	360
154	1221
155	320
166	90
167	80
181	260
182	70
183	80
196	951
197	130
198	360
200	50
207	30
209	80
211	520
212	80
213	20
226	9999
227	1291
228	300
229	20
241	3453
242	360
243	40
256	3683
257	470
258	60
