Mass Spectrum: Silane, dimethyl(tetrahydrofurfuryloxy)hexyloxy-
Formula: C14 H30 O3 Si
Molecular weight: 274
Origin: V.G. Zaikin, R.S.Borisov, TIPS RAS, Moscow, Russia
m/z	RELATIVE INTENSITY
26	20
27	130
29	150
39	100
41	430
42	130
43	1401
45	170
47	120
53	40
54	20
55	320
56	50
57	50
58	160
59	410
60	100
61	280
62	10
63	40
67	190
69	190
70	1481
71	9999
72	490
73	40
74	40
75	2883
76	220
77	1241
78	70
79	50
81	30
82	40
83	340
84	300
85	210
87	130
88	160
89	851
90	120
91	300
92	10
93	120
95	40
99	230
100	30
101	540
102	50
103	571
104	50
105	190
107	621
108	40
109	30
111	20
113	100
114	120
115	410
116	140
117	480
118	70
119	230
121	40
125	30
127	50
129	370
130	871
131	400
132	460
133	220
134	20
141	290
142	40
143	360
144	40
145	1672
146	200
147	110
157	100
158	480
159	5725
160	831
161	1311
162	80
163	40
173	120
174	20
175	190
177	90
185	40
187	130
189	380
190	60
191	310
192	40
201	170
202	20
203	20
215	110
216	220
217	90
229	200
230	80
242	30
245	1541
246	270
247	80
