Mass Spectrum: Silane, dimethyl(2-hexyloxy)isohexyloxy-
Formula: C14 H32 O2 Si
Molecular weight: 260
Origin: V.G. Zaikin, R.S.Borisov, TIPS RAS, Moscow, Russia
m/z	RELATIVE INTENSITY
27	210
29	310
39	180
41	781
42	60
43	1201
45	230
47	210
53	40
55	771
56	220
57	40
58	210
59	460
60	110
61	380
62	20
63	100
67	70
69	250
72	20
73	80
74	110
75	4104
76	300
77	1762
78	90
79	50
82	20
83	7267
84	561
85	260
87	170
88	270
89	631
90	120
91	140
93	140
99	230
100	30
101	1231
102	180
103	1041
104	90
105	140
113	40
115	270
116	30
117	390
118	40
119	190
127	20
129	110
131	240
132	20
133	140
143	180
144	20
145	1221
146	180
147	50
157	50
158	20
159	1852
160	250
161	260
162	20
173	60
175	60
187	40
189	1651
190	220
191	40
203	9999
204	1561
205	410
206	20
215	10
245	3803
246	711
247	170
259	120
