Mass Spectrum: Silane, dimethyl(4-phenylphenoxy)ethoxy-
Formula: C16 H20 O2 Si
Molecular weight: 272
Origin: V.G. Zaikin, R.S.Borisov, TIPS RAS, Moscow, Russia
m/z	RELATIVE INTENSITY
27	40
29	60
39	30
41	20
43	140
45	250
47	180
50	20
51	30
55	70
56	20
57	90
58	40
59	490
60	40
61	70
63	70
65	20
69	40
70	20
71	70
73	90
74	40
75	1301
76	160
77	350
79	20
83	20
85	60
87	40
89	40
91	40
98	90
99	50
101	50
102	90
103	1131
104	80
105	90
106	30
113	1271
114	1441
115	651
116	30
119	10
121	10
123	30
126	70
127	120
128	240
129	60
133	30
139	190
140	30
141	350
142	50
146	40
149	50
150	60
151	280
152	1081
153	360
154	320
155	50
165	370
166	110
167	460
168	90
169	460
170	220
171	150
181	60
183	100
184	20
185	30
195	60
196	40
197	140
198	20
199	20
209	20
210	20
211	2572
212	510
213	2342
214	390
215	100
223	20
225	70
226	20
227	831
228	320
229	1451
230	250
231	70
239	30
242	40
243	20
244	20
255	70
257	2292
258	440
259	110
270	20
271	30
272	9999
273	2202
274	540
275	50
