Mass Spectrum: Silane, dimethyl(6-methyl-2-tert-butylphenoxy)undecyloxy-
Formula: C24 H44 O2 Si
Molecular weight: 392
Origin: V.G. Zaikin, R.S.Borisov, TIPS RAS, Moscow, Russia
m/z	RELATIVE INTENSITY
27	30
29	120
39	30
41	310
42	40
43	450
47	20
55	370
56	50
57	771
58	30
59	110
61	50
67	40
69	240
70	30
71	50
73	611
74	60
75	1131
76	70
77	160
79	20
81	30
83	210
84	20
85	20
87	20
89	170
91	140
97	180
99	40
101	80
103	90
105	90
111	40
115	100
116	30
117	30
119	20
121	20
128	20
129	60
131	60
133	60
135	50
143	20
145	20
147	70
148	20
149	220
150	30
151	200
152	20
161	40
163	150
164	50
165	500
166	70
167	110
175	100
176	20
177	280
178	40
179	70
181	30
182	30
183	60
189	240
190	40
191	350
192	60
193	80
195	420
196	50
203	30
204	70
205	9999
206	1892
207	991
208	130
209	40
219	60
220	1071
221	230
222	60
223	30
229	110
233	60
235	50
237	40
238	40
321	30
335	320
336	120
337	20
359	40
377	240
378	70
379	20
392	1932
393	550
394	170
395	30
