Mass Spectrum: Silane, dimethyl(4-phenoxybenzyloxy)isobutoxy-
Formula: C19 H26 O3 Si
Molecular weight: 330
Origin: V.G. Zaikin, R.S.Borisov, TIPS RAS, Moscow, Russia
m/z	RELATIVE INTENSITY
27	80
29	160
39	200
40	20
41	270
42	30
43	170
45	160
47	100
50	60
51	320
52	50
53	20
55	90
57	771
58	90
59	300
60	40
61	150
62	20
63	140
64	60
65	110
66	20
74	50
75	3123
76	280
77	1131
78	320
79	20
88	30
89	1171
90	540
91	410
92	30
93	20
94	30
102	20
103	40
104	30
105	110
106	30
107	90
113	40
114	20
115	450
116	60
117	50
119	30
120	20
121	50
127	230
128	1311
129	901
130	90
131	370
132	20
135	80
137	50
139	90
140	30
141	140
142	20
144	20
145	50
147	240
148	50
149	250
150	70
151	230
152	350
153	651
154	350
155	410
156	30
157	50
163	170
164	180
165	951
166	180
167	70
168	811
169	220
170	40
178	30
179	280
180	90
181	1491
182	621
183	8788
184	1361
185	100
195	70
196	60
197	240
198	340
199	40
211	911
212	170
213	240
214	20
222	110
223	70
225	220
226	30
227	2182
228	420
229	621
230	100
237	110
238	40
239	190
240	50
241	5755
242	1141
243	731
244	100
255	150
256	581
257	4184
258	901
259	1001
260	180
261	30
273	4964
274	1361
275	340
276	30
285	380
286	80
287	1321
288	280
289	70
315	731
316	150
317	30
329	100
330	9999
331	2442
332	621
333	70
