Mass Spectrum: Silane, dimethyl(dimethyl(non-5-yn-3-yloxy)silyloxy)isobutoxy-
Formula: C17 H36 O3 Si2
Molecular weight: 344
Origin: V.G. Zaikin, R.S.Borisov, TIPS RAS, Moscow, Russia
m/z	RELATIVE INTENSITY
28	10
41	20
57	80
66	20
67	110
73	20
79	30
81	450
82	20
91	20
93	40
95	60
117	90
119	170
123	50
133	1621
134	210
135	350
137	20
147	170
148	20
149	6146
150	931
151	1571
152	100
153	170
159	110
163	310
164	40
177	30
189	50
191	290
192	30
205	9999
206	1982
207	1281
208	160
213	120
215	20
243	320
244	40
263	581
264	80
265	20
271	571
272	110
301	60
329	310
330	60
