Mass Spectrum: Silane, dimethyl(undec-2-enyloxy)isobutoxy-
Formula: C17 H36 O2 Si
Molecular weight: 300
Origin: V.G. Zaikin, R.S.Borisov, TIPS RAS, Moscow, Russia
m/z	RELATIVE INTENSITY
26	30
27	220
29	450
39	290
40	40
41	1191
42	160
43	841
45	230
47	210
53	150
54	460
55	831
56	120
57	801
58	110
59	400
60	100
61	400
62	20
63	100
65	40
66	80
67	881
68	460
69	530
70	50
72	20
73	50
74	150
75	9999
76	791
77	5185
78	310
79	220
80	70
81	1001
82	851
83	530
84	40
85	110
87	90
88	130
89	781
90	130
91	270
92	20
93	460
94	50
95	1942
96	701
97	300
98	50
99	510
100	60
101	661
102	50
103	320
105	641
106	40
107	50
109	891
110	340
111	160
112	30
113	601
114	140
115	1521
116	190
117	641
118	60
119	761
120	50
121	40
123	230
124	310
125	70
127	190
128	150
129	1031
130	140
131	7617
132	811
133	4414
134	420
135	180
137	30
141	130
142	20
143	440
144	70
145	1221
146	250
147	220
149	310
150	20
151	270
152	460
153	40
155	60
157	210
158	30
159	651
160	60
161	320
162	20
165	60
169	150
171	170
172	20
173	200
174	150
175	40
177	410
178	60
179	60
183	30
185	110
187	8077
188	1221
189	360
190	20
197	30
199	90
200	20
201	1501
202	240
203	70
211	240
212	30
213	500
214	70
215	180
216	20
227	300
228	30
229	550
230	80
243	1702
244	300
245	70
255	20
257	2712
258	490
259	130
271	110
272	20
285	2362
286	470
287	100
299	90
300	1281
301	290
302	60
