Mass Spectrum: Silane, dimethyl(2-heptyloxy)propoxy-
Formula: C12 H28 O2 Si
Molecular weight: 232
Origin: V.G. Zaikin, R.S.Borisov, TIPS RAS, Moscow, Russia
m/z	RELATIVE INTENSITY
27	60
29	110
39	50
41	230
42	60
43	200
45	180
47	140
55	170
56	80
57	50
58	110
59	210
60	50
61	210
63	80
69	50
70	30
73	20
74	60
75	2913
76	240
77	1581
78	90
79	50
83	40
85	20
87	100
88	60
89	240
90	30
91	50
93	60
97	10
98	30
99	60
101	280
102	60
103	1141
104	100
105	100
115	110
117	4444
118	480
119	2412
120	200
121	70
129	50
131	110
133	70
145	150
146	10
147	40
159	370
160	40
161	9999
162	1251
163	410
173	310
174	40
203	831
204	120
205	30
217	1782
218	280
219	70
231	80
