Mass Spectrum: Fumaric acid, 3-heptyl nonyl ester
Formula: C20 H36 O4
Molecular weight: 340
Origin: V.G. Zaikin, R.S.Borisov, TIPS RAS, Moscow, Russia
m/z	RELATIVE INTENSITY
26	180
27	681
29	1051
30	20
31	40
39	400
40	70
41	2462
42	641
43	2803
45	60
53	320
54	871
55	3924
56	2813
57	4684
58	250
59	80
65	20
66	30
67	340
68	430
69	5305
70	1972
71	1962
72	180
73	60
80	20
81	671
82	1872
83	2923
84	581
85	1191
86	80
91	40
93	20
94	20
95	170
96	160
97	801
98	3833
99	3753
100	4084
101	671
102	50
109	60
110	80
111	460
112	110
113	110
114	40
115	250
116	80
117	1962
118	450
119	110
122	20
123	50
124	180
125	120
126	230
127	831
128	180
129	100
130	30
136	30
137	40
138	180
139	150
140	70
141	80
142	20
143	190
144	10
150	30
151	60
152	30
153	120
154	110
155	80
156	80
157	350
158	40
167	60
168	90
169	160
170	40
171	290
172	50
178	40
179	40
181	20
182	40
183	60
195	20
196	120
197	791
198	110
206	30
215	480
216	50
224	90
225	9999
226	1762
227	200
241	20
242	30
243	540
244	90
255	80
256	50
283	30
