Mass Spectrum: Fumaric acid, ethyl 3-methylbut-2-yl ester
Formula: C11 H18 O4
Molecular weight: 214
Origin: V.G. Zaikin, R.S.Borisov, TIPS RAS, Moscow, Russia
m/z	RELATIVE INTENSITY
26	170
27	480
29	550
30	20
39	130
40	20
41	340
42	180
43	931
44	40
45	200
53	220
54	410
55	921
56	30
69	60
70	2002
71	591
72	50
81	200
82	430
87	80
97	100
98	20
99	1541
100	480
101	30
117	70
123	40
127	9999
128	1732
129	150
142	20
145	20
169	731
170	100
171	50
199	30
