Mass Spectrum: Malonic acid, isohexyl 4-heptyl ester
Formula: C16 H30 O4
Molecular weight: 286
Origin: L.N.Kulikova, V.G. Zaikin, RPFU, Moscow, Russia
m/z	RELATIVE INTENSITY
26	50
27	581
28	350
29	871
30	40
31	60
39	360
40	60
41	1902
42	831
43	5045
44	180
45	70
53	120
54	160
55	1872
56	2102
57	4644
58	200
59	110
60	230
61	30
65	10
67	100
68	60
69	1802
70	741
71	661
72	180
73	260
81	20
82	20
83	390
84	3443
85	9999
86	691
87	3083
88	100
89	30
90	150
91	50
97	110
98	1371
99	621
100	170
101	360
102	40
105	5585
106	190
107	40
111	801
112	70
113	50
114	140
115	1631
116	130
117	30
118	1702
119	180
125	530
126	40
129	80
130	70
131	210
136	20
137	20
139	120
141	50
143	20
151	10
153	300
154	30
155	60
158	30
159	470
160	40
167	110
171	6306
172	611
173	60
185	320
186	30
188	80
189	100
243	130
257	30
