Mass Spectrum: Malonic acid, ethyl 4-heptyl ester
Formula: C12 H22 O4
Molecular weight: 230
Origin: L.N.Kulikova, V.G. Zaikin, RPFU, Moscow, Russia
m/z	RELATIVE INTENSITY
27	30
29	300
31	30
39	90
40	20
41	550
42	240
43	1431
44	90
45	70
53	30
54	50
55	510
56	671
57	1021
58	60
59	20
60	90
61	40
67	30
68	40
69	430
70	340
71	310
72	40
73	120
83	70
86	20
87	561
88	130
97	30
98	510
99	180
104	10
105	70
113	20
114	70
115	9999
116	601
117	80
125	90
130	40
132	20
133	931
134	50
139	30
159	60
167	30
185	80
187	320
188	30
