Mass Spectrum: Silane, dimethyl(dec-4-enyloxy)decyloxy-
Formula: C22 H46 O2 Si
Molecular weight: 370
Origin: V.G. Zaikin, R.S.Borisov, TIPS RAS, Moscow, Russia
m/z	RELATIVE INTENSITY
27	460
29	1161
38	10
39	651
41	3313
42	651
43	891
45	180
47	110
50	10
51	10
52	20
53	681
54	2572
55	4094
56	470
57	991
58	110
59	881
60	70
61	711
62	10
63	40
65	110
66	591
67	5085
68	9999
69	2803
70	400
71	260
74	70
75	7036
76	540
77	2983
78	150
79	751
80	340
81	6035
82	4564
83	2382
84	250
85	460
87	350
88	120
89	2032
90	170
91	561
92	20
93	631
94	110
95	3553
96	4424
97	1431
98	70
99	490
100	60
101	1782
102	190
103	711
104	40
105	1501
106	80
107	100
108	20
109	2062
110	2612
111	250
112	50
113	430
114	100
115	1161
116	140
117	410
118	60
119	270
121	40
123	190
125	40
127	460
128	130
129	791
130	90
131	1021
132	80
133	70
136	50
137	340
138	6766
139	751
140	30
141	290
142	30
143	621
144	70
145	540
146	20
155	140
157	260
158	20
159	340
160	20
169	70
171	160
173	100
183	60
185	50
187	40
197	490
198	50
199	1071
200	130
201	70
212	220
213	861
214	150
215	1631
216	200
217	2062
218	250
229	130
230	10
231	50
233	190
234	20
243	1071
244	170
245	591
246	50
258	10
259	10
269	20
271	1551
272	290
273	50
285	180
286	20
297	10
299	30
313	250
314	40
327	861
328	190
329	20
341	170
342	30
353	30
355	3323
356	831
368	40
369	30
370	861
371	210
372	40
