Mass Spectrum: Adipic acid, dodecyl 3-methylbutyl ester
Formula: C23 H44 O4
Molecular weight: 384
Origin: L.N.Kulikova, V.G. Zaikin, RPFU, Moscow, Russia
m/z	RELATIVE INTENSITY
26	40
27	220
29	480
31	20
39	210
40	40
41	1181
42	430
43	2793
44	70
45	30
53	80
54	190
55	2022
56	671
57	1441
58	60
59	120
60	30
61	50
67	200
68	240
69	961
70	1882
71	3483
72	190
73	210
81	100
82	220
83	871
84	500
85	571
86	110
87	861
88	30
95	60
96	110
97	410
98	200
99	240
100	771
101	1451
102	260
103	90
109	30
110	160
111	2252
112	440
113	120
114	20
115	60
124	20
125	80
126	110
127	110
128	220
129	9999
130	681
131	110
138	30
139	40
140	110
141	20
143	30
144	30
147	140
154	30
155	30
156	60
157	731
158	60
166	30
168	130
169	60
170	871
171	120
172	30
183	40
184	90
185	70
197	20
198	30
199	6466
200	821
201	80
213	270
214	40
217	731
218	80
240	40
254	90
255	220
256	30
257	20
268	110
269	20
283	40
296	40
297	1752
298	340
299	30
311	20
315	60
341	150
342	20
369	60
