Mass Spectrum: Malonic acid, nonyl 4-heptyl ester
Formula: C19 H36 O4
Molecular weight: 328
Origin: L.N.Kulikova, V.G. Zaikin, RPFU, Moscow, Russia
m/z	RELATIVE INTENSITY
26	60
27	430
28	280
29	711
31	40
39	260
40	80
41	2002
42	801
43	2813
44	180
45	40
53	100
54	250
55	2032
56	2232
57	5035
58	210
59	30
60	60
61	180
67	190
68	340
69	1882
70	1371
71	3733
72	230
73	70
79	20
81	110
82	380
83	781
84	490
85	2112
86	150
87	2212
89	20
95	50
96	110
97	520
98	2162
99	360
100	40
102	20
103	60
104	30
105	9999
106	340
107	90
113	60
114	240
115	1702
116	120
124	30
125	350
126	891
127	390
128	30
129	20
130	30
131	190
132	30
139	20
140	20
141	20
153	90
159	40
167	30
185	50
203	10
213	5385
214	681
215	60
231	210
232	20
285	40
