Mass Spectrum: Silane, dimethyl(dimethyl(but-3-enyloxy)silyloxy)octyloxy-
Formula: C16 H36 O3 Si2
Molecular weight: 332
Origin: V.G. Zaikin, R.S.Borisov, TIPS RAS, Moscow, Russia
m/z	RELATIVE INTENSITY
27	40
29	90
39	20
41	250
42	60
43	490
44	60
53	30
54	90
55	2082
56	220
57	861
66	50
67	70
68	50
69	280
70	130
71	791
73	80
75	100
81	50
82	20
83	60
84	80
85	160
96	20
99	30
101	20
103	40
111	20
112	30
115	50
117	160
119	440
120	30
121	50
131	50
133	3373
134	440
135	841
136	50
137	50
145	20
147	160
148	20
149	5795
150	851
151	3473
152	450
153	220
159	80
161	30
163	811
164	100
165	120
173	140
175	190
176	60
177	110
179	50
187	1011
188	160
189	330
190	30
191	30
203	3353
204	701
205	1381
206	200
207	130
208	20
217	20
220	20
221	70
259	30
261	9999
262	2282
263	1031
264	120
265	20
287	260
288	30
289	20
317	5765
318	1531
319	1231
320	330
321	80
