Mass Spectrum: Malonic acid, di(3,3-dimethylbut-2-yl) ester
Formula: C15 H28 O4
Molecular weight: 272
Origin: V.G. Zaikin, R.S.Borisov, TIPS RAS, Moscow, Russia
m/z	RELATIVE INTENSITY
27	80
29	190
39	120
41	631
42	210
43	1271
53	40
55	180
57	841
60	20
67	30
69	550
70	80
71	40
83	40
84	761
85	9999
86	611
87	480
88	20
101	581
102	20
104	90
105	80
115	40
116	50
132	1722
133	520
134	30
144	40
171	40
173	100
188	120
189	40
216	40
257	50
