Mass Spectrum: Fumaric acid, 3-methylbut-2-yl nonyl ester
Formula: C18 H32 O4
Molecular weight: 312
Origin: V.G. Zaikin, R.S.Borisov, TIPS RAS, Moscow, Russia
m/z	RELATIVE INTENSITY
25	20
26	310
27	1011
28	490
29	1241
30	60
31	30
39	581
40	130
41	2913
42	1221
43	5675
44	490
45	250
51	20
53	420
54	1171
55	5165
56	2112
57	1862
58	70
59	20
65	20
66	30
67	400
68	510
69	5625
70	9629
71	9999
72	611
73	80
79	40
80	20
81	711
82	2232
83	3443
84	1001
85	841
86	80
87	310
88	30
94	20
95	220
96	240
97	1211
98	591
99	4004
100	5595
101	761
102	60
109	60
110	20
111	50
112	50
113	80
114	210
115	50
117	871
118	500
119	70
122	20
123	130
124	260
125	160
126	460
127	380
128	40
137	20
138	30
139	120
140	100
141	360
142	621
143	470
144	70
150	20
151	20
152	20
153	140
154	110
157	400
158	40
159	20
164	20
165	10
167	30
168	80
169	1181
170	180
171	390
172	70
179	40
181	30
182	70
183	90
185	20
187	841
188	80
195	30
196	60
197	70
206	40
213	10
224	110
225	7777
226	1471
227	210
242	40
243	70
268	40
269	30
297	60
