Mass Spectrum: Fumaric acid, 2-butyl hexadecyl ester
Formula: C24 H44 O4
Molecular weight: 396
Origin: V.G. Zaikin, R.S.Borisov, TIPS RAS, Moscow, Russia
m/z	RELATIVE INTENSITY
26	50
27	250
29	691
37	20
38	20
39	390
40	100
41	2612
42	611
43	3553
44	360
45	90
50	30
51	40
53	300
54	881
55	5225
56	3683
57	6846
58	320
59	30
65	40
66	90
67	1111
68	1121
69	5705
70	1932
71	3333
72	290
73	360
74	30
77	50
78	20
79	190
80	110
81	1111
82	1962
83	6376
84	1411
85	2282
86	150
87	20
91	70
93	100
94	110
95	851
96	1341
97	5835
98	1031
99	4974
100	5975
101	1501
102	100
103	20
105	50
107	70
108	70
109	601
110	661
111	2973
112	651
113	450
114	90
115	70
116	50
117	9999
118	3023
119	1311
120	90
121	80
122	80
123	440
124	480
125	1311
126	410
127	741
128	180
129	100
130	70
131	40
133	30
135	80
136	100
137	370
138	390
139	631
140	260
141	581
142	110
143	90
144	20
145	20
147	20
149	60
150	80
151	220
152	320
153	601
154	390
155	1682
156	581
157	651
158	70
159	40
161	30
163	50
164	80
165	170
166	270
167	260
168	250
169	260
170	110
171	671
172	130
173	2212
174	330
175	110
177	30
178	70
179	130
180	170
181	220
182	300
183	300
184	70
185	40
186	20
187	40
189	20
191	30
192	50
193	80
194	190
195	210
196	290
197	390
198	70
199	70
200	20
205	50
206	30
207	80
208	70
209	190
210	170
211	270
212	80
213	130
214	70
215	30
216	20
219	30
220	50
221	100
222	571
223	360
224	280
225	520
226	130
227	120
228	50
229	30
233	40
234	30
235	40
236	40
237	310
238	190
239	320
240	80
241	120
242	20
247	30
249	20
250	20
251	330
252	220
253	110
254	40
255	60
259	20
261	30
262	60
263	50
265	300
266	280
267	80
268	20
269	80
275	20
276	40
277	130
278	40
279	190
280	340
281	300
282	70
283	60
293	90
294	270
295	130
296	20
297	40
304	170
305	120
311	30
321	30
322	681
323	1121
324	280
325	50
339	50
340	90
341	430
342	70
