Mass Spectrum: Fumaric acid, 3-heptyl pentyl ester
Formula: C16 H28 O4
Molecular weight: 284
Origin: V.G. Zaikin, R.S.Borisov, TIPS RAS, Moscow, Russia
m/z	RELATIVE INTENSITY
26	80
27	320
29	420
31	20
39	150
40	20
41	751
42	280
43	951
45	30
53	130
54	360
55	931
56	721
57	891
58	50
59	20
67	40
68	70
69	611
70	561
71	671
72	50
73	10
81	230
82	581
83	100
85	70
91	30
95	30
97	50
98	1151
99	1852
100	1081
101	70
110	20
111	170
112	80
113	20
114	20
115	70
117	1031
118	60
123	20
128	60
129	40
138	70
139	30
140	20
141	50
156	10
157	30
168	30
169	9999
170	1151
171	120
187	340
188	40
189	20
197	561
198	70
199	40
200	20
215	80
227	20
