Mass Spectrum: Fumaric acid, heptyl 3-heptyl ester
Formula: C18 H32 O4
Molecular weight: 312
Origin: V.G. Zaikin, R.S.Borisov, TIPS RAS, Moscow, Russia
m/z	RELATIVE INTENSITY
26	180
27	691
29	1031
30	20
31	40
39	320
40	70
41	1802
42	500
43	1451
44	20
45	60
53	260
54	731
55	3763
56	2202
57	4554
58	240
59	60
66	10
67	150
68	260
69	1511
70	1331
71	200
72	90
73	40
81	440
82	1211
83	250
85	50
86	10
95	50
96	90
97	540
98	2592
99	3093
100	2412
101	320
102	20
109	30
110	50
111	290
112	110
113	60
114	40
115	270
116	30
117	1351
118	150
119	30
123	40
126	40
127	20
128	100
129	70
130	20
138	110
139	80
140	20
141	40
143	20
150	30
151	40
152	20
153	20
154	60
155	60
156	40
157	140
158	20
159	20
167	20
168	50
169	130
170	20
171	60
178	20
196	60
197	9999
198	1381
199	140
211	50
215	550
216	70
227	30
228	20
255	30
