Mass Spectrum: Fumaric acid, di(3-ethylphenyl) ester
Formula: C20 H20 O4
Molecular weight: 324
Origin: V.G. Zaikin, R.S.Borisov, TIPS RAS, Moscow, Russia
m/z	RELATIVE INTENSITY
26	110
27	150
29	210
39	360
40	20
41	120
50	80
51	260
52	120
53	561
54	681
55	70
62	30
63	210
64	100
65	410
66	70
74	20
75	20
76	30
77	1732
78	621
79	651
80	40
81	110
82	1091
89	130
90	100
91	1521
92	190
93	160
94	140
95	50
102	50
103	1011
104	220
105	981
106	90
107	1531
108	120
115	130
116	40
117	50
118	100
119	290
120	60
121	350
122	3413
123	360
128	30
129	40
130	60
131	270
132	80
133	40
145	40
146	140
147	5435
148	571
149	40
159	80
160	70
161	130
162	20
173	330
174	350
175	4584
176	571
177	40
201	30
202	50
203	9999
204	1331
205	140
295	20
324	621
325	130
