Mass Spectrum: Fumaric acid, 3,3-dimethylbut-2-yl octadecyl ester
Formula: C28 H52 O4
Molecular weight: 452
Origin: V.G. Zaikin, R.S.Borisov, TIPS RAS, Moscow, Russia
m/z	RELATIVE INTENSITY
26	90
27	250
28	170
29	440
39	280
40	70
41	1732
42	370
43	3593
44	230
45	20
50	20
51	20
53	150
54	420
55	2492
56	861
57	4274
58	190
65	20
66	40
67	520
68	450
69	3083
70	791
71	1451
72	120
73	50
77	30
79	80
80	50
81	480
82	1181
83	2402
84	3733
85	9999
86	701
87	40
91	30
93	50
94	40
95	370
96	450
97	2142
98	370
99	1812
100	5665
101	851
102	70
105	20
107	30
108	20
109	240
110	220
111	1151
112	230
113	210
114	30
115	30
117	791
118	751
119	581
120	30
121	40
122	40
123	160
124	160
125	520
126	130
127	170
128	40
129	30
135	30
136	40
137	150
138	130
139	230
140	90
141	190
142	30
143	30
145	150
147	20
149	20
150	20
151	70
152	110
153	240
154	130
155	210
156	50
157	260
158	20
164	20
165	60
166	80
167	120
168	90
169	100
170	30
171	410
172	60
173	20
178	20
179	30
180	70
181	120
182	120
183	400
184	80
185	30
193	30
194	50
195	100
196	70
197	70
198	20
199	30
201	510
202	60
207	30
208	30
209	70
210	60
211	70
212	20
213	20
221	30
222	70
223	90
224	100
225	80
226	20
227	20
235	10
236	20
237	110
238	100
239	70
240	20
241	30
248	20
249	20
250	310
251	200
252	170
253	160
254	30
255	40
265	140
266	180
267	120
268	30
269	90
279	110
280	190
281	60
282	20
283	50
290	30
291	20
293	90
294	170
295	70
296	20
297	50
304	10
305	60
306	20
307	70
308	140
309	120
310	20
311	20
321	40
322	140
323	60
332	80
333	100
350	621
351	571
352	3413
353	821
354	100
368	170
369	70
397	100
398	20
437	410
438	120
