Mass Spectrum: Silane, dimethyl(but-2-enyloxy)nonyloxy-
Formula: C15 H32 O2 Si
Molecular weight: 272
Origin: V.G. Zaikin, R.S.Borisov, TIPS RAS, Moscow, Russia
m/z	RELATIVE INTENSITY
26	40
27	220
29	440
39	280
40	40
41	1021
42	180
43	1001
44	50
45	330
47	270
51	20
53	170
54	270
55	2332
56	330
57	861
58	140
59	530
60	130
61	701
62	30
63	190
66	30
67	410
68	400
69	3103
70	310
71	430
72	70
73	20
74	170
75	9999
76	781
77	6786
78	420
79	280
81	581
82	621
83	2102
84	180
85	440
86	30
87	300
88	120
89	1912
90	210
91	751
92	40
93	340
95	641
96	390
97	240
98	70
99	581
100	60
101	1241
102	140
103	651
104	40
105	591
106	30
107	20
109	110
111	130
112	50
113	881
114	160
115	2843
116	320
117	1161
118	120
119	140
123	140
124	731
125	80
127	250
128	550
129	2592
130	390
131	2762
132	300
133	1541
134	140
135	50
137	30
141	150
143	520
144	80
145	9378
146	1521
147	581
148	30
149	80
155	20
157	190
158	30
159	7957
160	1041
161	1141
162	100
169	20
171	100
173	170
174	40
183	50
185	621
186	90
187	2562
188	400
189	100
199	120
200	80
201	2913
202	510
203	741
204	80
213	20
215	170
216	20
217	70
227	270
228	40
229	4884
230	951
231	330
243	390
244	50
257	7327
258	1411
259	360
260	30
271	160
272	1461
273	300
274	70
