Mass Spectrum: Fumaric acid, 3-heptyl tetradecyl ester
Formula: C25 H46 O4
Molecular weight: 410
Origin: V.G. Zaikin, R.S.Borisov, TIPS RAS, Moscow, Russia
m/z	RELATIVE INTENSITY
25	20
26	210
27	771
29	1261
30	30
31	40
39	530
40	120
41	3373
42	881
43	4784
44	50
45	80
50	10
51	20
53	380
54	1091
55	6406
56	3703
57	9999
58	510
59	120
65	40
66	80
67	971
68	1031
69	7066
70	2783
71	3213
72	290
73	110
74	20
77	30
79	110
80	90
81	1071
82	2522
83	6486
84	1161
85	2112
86	150
87	30
91	40
93	80
94	80
95	681
96	971
97	6015
98	5625
99	4934
100	6566
101	1521
102	100
105	30
107	70
108	60
109	410
110	540
111	3863
112	631
113	641
114	140
115	410
116	140
117	3673
118	2032
119	751
120	50
121	70
122	70
123	330
124	380
125	1581
126	360
127	420
128	160
129	140
130	60
131	30
136	60
137	260
138	470
139	741
140	260
141	440
142	80
143	40
149	40
150	90
151	190
152	220
153	390
154	300
155	330
156	160
157	611
158	90
159	20
163	30
164	70
165	110
166	250
167	170
168	370
169	410
170	120
171	811
172	120
173	50
178	80
179	70
180	90
181	150
182	220
183	180
184	50
185	40
186	20
192	40
193	60
194	520
195	270
196	340
197	1702
198	300
199	80
200	20
205	20
206	20
209	120
210	90
211	240
212	50
213	210
214	30
215	971
216	130
217	20
221	30
223	160
224	110
225	80
226	50
227	40
231	30
234	50
235	50
237	200
238	170
239	90
240	50
241	50
248	30
249	110
250	30
251	180
252	250
253	200
254	30
255	80
265	100
266	220
267	120
268	20
269	40
270	20
276	120
277	90
283	20
293	30
294	621
295	2853
296	801
297	120
310	20
311	30
312	170
313	480
314	100
325	30
326	40
352	40
353	30
