Mass Spectrum: Fumaric acid, 3-heptyl isobutyl ester
Formula: C15 H26 O4
Molecular weight: 270
Origin: V.G. Zaikin, R.S.Borisov, TIPS RAS, Moscow, Russia
m/z	RELATIVE INTENSITY
26	100
27	360
29	510
31	20
39	190
40	30
41	871
42	120
43	450
45	30
53	130
54	450
55	871
56	931
57	2312
58	110
59	100
67	20
68	40
69	420
70	330
71	100
72	50
73	20
81	260
82	911
83	80
85	40
87	30
97	60
98	1001
99	2592
100	1121
101	110
109	30
110	20
111	150
112	20
114	40
115	80
117	641
118	30
126	20
127	40
128	60
129	40
135	30
138	70
142	30
154	20
155	9999
156	1011
157	110
168	20
169	30
170	20
173	260
174	30
197	1361
198	160
213	20
215	30
