Mass Spectrum: Fumaric acid, 3-methylbut-3-enyl octyl ester
Formula: C17 H28 O4
Molecular weight: 296
Origin: L.N.Kulikova, V.G. Zaikin, RPFU, Moscow, Russia
m/z	RELATIVE INTENSITY
26	80
27	270
29	350
39	240
40	110
41	1261
42	260
43	691
45	20
53	300
54	330
55	1021
56	310
57	621
58	20
65	20
66	30
67	1011
68	9999
69	3423
70	520
71	460
72	30
81	220
82	430
83	240
84	150
85	20
93	40
95	30
99	871
100	300
101	90
109	50
110	30
111	60
112	70
113	30
117	130
121	20
126	20
129	10
138	50
139	30
153	20
157	30
166	30
167	20
168	20
169	20
171	20
211	460
212	60
229	40
