Mass Spectrum: Silane, dimethyl(pent-4-en-2-yloxy)isohexyloxy-
Formula: C13 H28 O2 Si
Molecular weight: 244
Origin: V.G. Zaikin, R.S.Borisov, TIPS RAS, Moscow, Russia
m/z	RELATIVE INTENSITY
26	10
27	90
29	110
39	190
40	30
41	681
42	60
43	721
45	280
47	220
51	10
53	50
55	981
56	320
57	110
58	230
59	510
60	70
61	470
62	10
63	60
66	10
67	130
68	30
69	601
70	20
71	70
73	170
74	90
75	4264
76	280
77	911
78	30
79	30
81	80
82	50
83	9999
84	671
85	360
86	30
87	210
88	220
89	671
90	50
91	50
93	10
97	50
99	891
100	90
101	1491
102	30
103	1872
104	100
105	470
106	20
107	10
111	20
113	90
114	10
115	741
116	80
117	240
118	10
119	350
121	20
125	10
127	70
129	1511
130	170
131	390
132	30
133	240
134	10
141	30
143	1491
144	150
145	480
149	10
157	70
158	10
159	2132
160	270
161	110
173	350
174	30
175	20
185	390
186	40
187	130
188	10
189	10
201	250
202	10
203	5945
204	871
205	240
206	10
217	10
229	1291
230	240
231	40
243	30
