Mass Spectrum: D-Alanine, N-(4-anisoyl)-, undecyl ester
Formula: C22 H35 N O4
Molecular weight: 377
Origin: V.G. Zaikin, R.S.Borisov, TIPS RAS, Moscow, Russia
m/z	RELATIVE INTENSITY
27	40
28	20
29	70
39	40
41	170
42	70
43	230
44	150
51	30
55	130
56	60
57	110
63	20
64	30
65	20
67	20
69	40
70	20
71	30
76	30
77	520
78	50
79	40
92	200
93	20
104	20
105	80
106	20
120	80
121	110
134	50
135	9999
136	871
137	70
150	20
178	4494
179	571
180	50
205	50
206	70
224	30
244	30
377	90
378	20
