Mass Spectrum: Malonic acid, 2-ethylbutyl nonyl ester
Formula: C18 H34 O4
Molecular weight: 314
Origin: L.N.Kulikova, V.G. Zaikin, RPFU, Moscow, Russia
m/z	RELATIVE INTENSITY
26	20
27	150
28	110
29	280
31	20
39	100
40	20
41	611
42	330
43	1792
44	100
53	50
54	150
55	901
56	821
57	821
58	30
59	20
60	70
61	80
67	190
68	280
69	1601
70	871
71	1551
72	110
73	30
79	20
81	120
82	320
83	841
84	3964
85	6286
86	440
87	921
88	30
89	20
90	120
95	60
96	100
97	601
98	581
99	110
100	90
101	180
102	20
104	30
105	9999
106	360
107	80
111	140
112	30
114	20
115	20
118	1391
119	240
124	30
125	150
126	530
127	200
129	20
132	60
140	30
141	60
142	10
153	50
159	100
171	80
189	210
190	20
213	300
214	30
229	40
231	190
232	20
244	30
285	60
