Mass Spectrum: Fumaric acid, 3-oxobut-2-yl undecyl ester
Formula: C19 H32 O5
Molecular weight: 340
Origin: L.N.Kulikova, V.G. Zaikin, RPFU, Moscow, Russia
m/z	RELATIVE INTENSITY
27	50
29	120
39	130
40	30
41	1201
42	410
43	3463
44	20
45	120
53	320
54	861
55	4374
56	1081
57	2732
58	130
65	20
66	30
67	470
68	470
69	4414
70	1131
71	3853
72	1211
73	70
80	40
81	641
82	3883
83	4584
84	561
85	701
86	90
87	230
88	40
89	601
90	20
91	30
93	30
94	40
95	340
96	290
97	4704
98	631
99	3553
100	8838
101	1151
102	100
107	20
108	10
109	160
110	160
111	1151
112	190
113	90
114	30
115	50
117	30
118	60
121	30
122	40
123	340
124	180
125	130
126	220
127	80
128	20
136	20
137	50
138	140
139	230
140	60
141	30
142	90
143	120
149	20
150	130
151	40
152	180
153	360
154	260
155	360
156	30
163	20
164	20
165	50
166	100
167	80
168	100
169	290
170	390
171	210
172	10
177	20
179	30
180	40
181	80
182	200
183	20
187	1692
188	180
189	30
193	20
195	110
196	60
197	40
206	20
208	50
210	40
211	60
223	40
224	90
225	40
227	70
234	40
235	60
236	20
251	50
252	170
253	3984
254	9999
255	1702
256	190
296	110
297	20
298	50
307	20
