Mass Spectrum: Fumaric acid, hexadecyl 2-methylpent-3-yl ester
Formula: C26 H48 O4
Molecular weight: 424
Origin: L.N.Kulikova, V.G. Zaikin, RPFU, Moscow, Russia
m/z	RELATIVE INTENSITY
25	10
26	170
27	550
29	821
30	20
39	400
40	90
41	2422
42	611
43	5665
44	220
45	80
53	230
54	661
55	4004
56	1611
57	4134
58	220
59	140
65	20
66	50
67	721
68	611
69	5225
70	1091
71	2352
72	200
73	70
77	20
79	40
80	60
81	741
82	1692
83	4374
84	6366
85	9999
86	691
87	20
91	20
93	60
94	50
95	500
96	621
97	4094
98	581
99	2322
100	4364
101	1111
102	80
105	30
107	40
108	30
109	320
110	300
111	2152
112	370
113	320
114	120
115	20
117	1151
118	1061
119	530
120	30
121	50
122	40
123	200
124	220
125	1021
126	260
127	280
128	60
129	60
130	20
135	20
136	60
137	210
138	190
139	480
140	150
141	300
142	290
143	190
144	90
145	20
147	20
149	30
150	30
151	90
152	120
153	360
154	200
155	280
156	70
157	290
158	30
163	20
164	40
165	80
166	110
167	170
168	100
169	100
170	30
171	470
172	70
178	30
179	50
180	70
181	120
182	170
183	530
184	100
185	30
192	20
193	30
194	90
195	100
196	120
197	90
198	20
199	40
201	581
202	70
209	70
210	70
211	90
212	20
213	20
220	20
221	40
222	300
223	190
224	120
225	360
226	70
227	30
229	40
235	20
237	120
238	100
239	130
240	30
241	110
251	130
252	130
253	50
254	20
255	40
259	30
262	20
263	30
265	120
266	170
267	50
268	30
269	50
276	20
277	100
278	30
279	90
280	190
281	110
282	20
283	30
293	50
294	140
295	80
296	20
297	20
304	70
305	140
306	20
321	20
322	440
323	1341
324	470
325	80
340	120
341	90
342	20
366	120
367	60
368	20
395	60
409	30
