Mass Spectrum: Fumaric acid, heptyl trans-hex-3-enyl ester
Formula: C17 H28 O4
Molecular weight: 296
Origin: L.N.Kulikova, V.G. Zaikin, RPFU, Moscow, Russia
m/z	RELATIVE INTENSITY
26	100
27	340
29	330
39	240
40	50
41	1171
42	240
43	601
45	20
53	200
54	490
55	2012
56	430
57	1171
58	40
65	40
66	40
67	3313
68	280
69	470
70	310
71	90
72	30
77	20
79	50
80	50
81	550
82	9999
83	1431
84	70
95	20
96	30
97	160
98	110
99	961
100	360
101	80
107	30
109	50
111	20
112	20
115	20
117	170
118	20
123	20
139	30
145	20
153	10
157	20
181	140
182	20
197	631
198	70
199	30
215	30
