Mass Spectrum: Silane, dimethyl(trans-3,7-dimethyl-2,6-octadien-1-yloxy)heptyloxy-
Formula: C19 H38 O2 Si
Molecular weight: 326
Origin: V.G. Zaikin, R.S.Borisov, TIPS RAS, Moscow, Russia
m/z	RELATIVE INTENSITY
26	40
27	240
29	330
39	390
40	100
41	2522
42	240
43	641
45	190
47	190
50	20
51	30
52	30
53	450
54	90
55	2012
56	250
57	921
58	80
59	430
60	50
61	370
62	10
63	100
65	80
66	50
67	831
68	1521
69	5345
70	380
73	20
74	120
75	9999
76	731
77	3974
78	220
79	460
80	1651
81	1261
82	280
83	80
84	20
85	110
87	130
88	50
89	1531
90	130
91	540
92	1021
93	5235
94	1031
95	871
96	100
97	1201
98	110
99	190
101	1381
102	110
103	280
104	20
105	851
106	70
107	1802
108	480
109	300
110	190
113	270
114	30
115	350
116	40
117	290
118	20
119	300
120	30
121	8538
122	1231
123	3053
124	270
125	140
126	20
127	751
128	160
129	791
130	120
131	320
133	400
134	90
135	400
136	3063
137	410
138	20
141	240
142	90
143	3173
144	390
145	571
146	60
147	100
149	1091
150	170
151	330
152	30
153	20
155	490
156	80
157	400
158	130
159	661
160	70
161	20
165	10
167	20
169	110
170	40
171	681
172	240
173	4604
174	621
175	1621
176	190
177	70
185	220
186	20
187	140
189	160
191	40
195	60
197	50
199	160
200	130
201	190
202	30
203	270
204	20
210	30
211	20
213	190
214	20
215	50
217	20
227	160
228	20
229	50
231	1201
232	190
236	70
237	20
241	330
242	50
243	1201
244	831
245	180
246	30
255	400
256	290
257	250
258	30
269	350
270	70
271	50
283	911
284	200
285	40
311	741
312	130
313	20
325	40
326	611
327	130
328	10
