Mass Spectrum: Fumaric acid, 2,4-dimethylpent-3-yl tetradecyl ester
Formula: C25 H46 O4
Molecular weight: 410
Origin: V.G. Zaikin, R.S.Borisov, TIPS RAS, Moscow, Russia
m/z	RELATIVE INTENSITY
25	20
26	180
27	661
29	681
30	30
31	20
37	30
39	470
40	110
41	2552
42	611
43	4614
44	260
45	90
51	20
53	240
54	721
55	4094
56	1722
57	9999
58	440
59	20
65	30
66	50
67	661
68	490
69	4444
70	1391
71	2242
72	280
73	270
77	30
79	120
80	50
81	601
82	1732
83	6466
84	851
85	1181
86	80
91	40
93	50
94	40
95	410
96	460
97	4504
98	2813
99	6596
100	4744
101	991
102	70
103	20
105	40
107	40
108	20
109	250
110	210
111	2512
112	370
113	290
114	220
115	250
116	30
117	671
118	691
119	300
120	20
121	40
122	30
123	160
124	180
125	1201
126	290
127	290
128	40
135	20
136	30
137	140
138	130
139	370
140	120
141	160
142	561
143	460
144	160
145	20
149	20
150	50
151	90
152	100
153	260
154	170
155	210
156	30
157	290
158	30
163	20
164	30
165	50
166	110
167	70
168	160
169	210
170	40
171	601
172	100
173	60
178	30
179	50
180	30
181	100
182	100
183	50
184	20
191	40
192	20
193	30
194	280
195	190
196	150
197	1121
198	170
199	50
209	70
210	50
211	90
212	20
213	150
214	20
215	550
216	70
221	20
223	70
224	60
225	50
226	20
227	20
228	240
231	30
234	30
235	20
237	100
238	90
239	60
240	30
241	30
248	20
249	80
250	20
251	90
252	140
253	120
254	40
255	50
265	50
266	140
267	90
268	30
269	20
276	70
277	100
293	20
294	460
295	3173
296	1231
297	210
298	20
312	150
313	80
338	210
339	330
340	270
341	30
367	711
368	170
369	20
395	20
