Mass Spectrum: Malonic acid, 2-ethylbutyl pentyl ester
Formula: C14 H26 O4
Molecular weight: 258
Origin: L.N.Kulikova, V.G. Zaikin, RPFU, Moscow, Russia
m/z	RELATIVE INTENSITY
26	70
27	661
29	1131
30	20
31	50
39	450
40	80
41	1992
42	2012
43	8468
44	490
45	50
53	150
54	170
55	2492
56	1712
57	681
59	120
60	581
61	260
67	110
68	110
69	2883
70	1992
71	3133
72	260
82	30
83	170
84	6896
85	5885
86	410
87	2492
88	80
89	50
90	440
97	510
98	80
99	160
100	250
101	390
102	60
104	50
105	9999
106	350
107	80
111	400
112	40
113	20
117	60
118	2993
119	360
120	30
125	90
129	20
130	150
131	50
132	40
139	50
141	70
145	20
153	70
157	1641
158	160
159	120
171	390
172	40
175	591
176	40
188	310
189	70
229	30
