Mass Spectrum: Fumaric acid, 2-butyl octadecyl ester
Formula: C26 H48 O4
Molecular weight: 424
Origin: V.G. Zaikin, R.S.Borisov, TIPS RAS, Moscow, Russia
m/z	RELATIVE INTENSITY
25	20
26	200
27	611
29	1031
30	30
31	20
36	30
37	20
39	621
40	120
41	3673
42	801
43	4874
44	220
45	130
50	50
51	60
53	390
54	1011
55	6236
56	4024
57	8448
58	380
59	30
65	60
66	120
67	1311
68	1291
69	6075
70	1922
71	3743
72	320
73	390
74	40
77	60
78	40
79	180
80	140
81	1401
82	2352
83	6656
84	1371
85	2632
86	170
87	20
91	90
93	130
94	120
95	1051
96	1561
97	6156
98	1061
99	4844
100	5905
101	1872
102	120
103	30
104	30
105	60
107	90
108	80
109	711
110	711
111	3183
112	631
113	561
114	90
115	70
116	40
117	9999
118	3193
119	1762
120	120
121	110
122	120
123	490
124	540
125	1471
126	420
127	721
128	190
129	90
130	70
131	40
133	30
135	90
136	130
137	430
138	420
139	631
140	280
141	621
142	110
143	70
145	30
147	40
149	60
150	100
151	240
152	350
153	651
154	410
155	1631
156	561
157	611
158	70
159	20
161	20
163	50
164	60
165	170
166	290
167	310
168	260
169	280
170	90
171	661
172	120
173	2152
174	290
175	150
177	40
178	80
179	130
180	200
181	320
182	300
183	230
184	70
185	40
191	30
192	50
193	90
194	150
195	270
196	230
197	330
198	80
199	80
200	20
205	20
206	40
207	80
208	90
209	220
210	200
211	270
212	80
213	120
219	40
220	40
221	90
222	190
223	260
224	260
225	300
226	80
227	120
228	30
233	30
234	20
235	50
236	50
237	350
238	240
239	280
240	70
241	60
242	20
247	40
248	40
249	80
250	601
251	540
252	340
253	470
254	100
255	80
256	30
261	50
262	20
263	30
264	20
265	360
266	320
267	280
268	70
269	120
275	40
276	20
279	290
280	330
281	120
282	30
283	80
287	30
289	30
290	60
291	60
293	220
294	270
295	100
296	30
297	90
304	40
305	140
306	50
307	160
308	230
309	330
310	60
311	60
321	70
322	250
323	120
324	20
325	40
331	20
332	170
333	210
334	30
339	30
349	40
350	861
351	1061
352	260
353	40
367	40
368	100
369	370
370	70
