Mass Spectrum: Fumaric acid, 2-methylpentyl undecyl ester
Formula: C21 H38 O4
Molecular weight: 354
Origin: V.G. Zaikin, R.S.Borisov, TIPS RAS, Moscow, Russia
m/z	RELATIVE INTENSITY
25	30
26	310
27	1071
29	1341
30	40
31	70
37	20
39	651
40	30
41	3934
42	931
43	7156
45	150
53	450
54	1271
55	6226
56	2152
57	4104
58	230
59	260
65	30
66	50
67	701
68	631
69	7727
70	1551
71	2362
72	260
73	80
80	30
81	921
82	3013
83	5505
84	8868
85	9999
86	691
87	20
93	30
94	30
95	360
96	390
97	5665
98	801
99	4044
100	6736
101	1261
102	100
107	20
108	20
109	210
110	220
111	1541
112	310
113	280
114	240
115	60
117	951
118	851
119	190
122	20
123	120
124	190
125	200
126	330
127	180
128	90
129	80
130	20
136	40
137	110
138	80
139	160
140	80
141	190
142	671
143	380
144	100
145	20
150	20
151	40
152	370
153	260
154	410
155	911
156	140
157	510
158	50
164	40
165	20
166	40
167	20
168	60
169	110
170	20
171	821
172	130
179	20
180	10
181	90
182	50
183	1021
184	170
185	30
192	20
193	20
195	90
196	40
197	40
198	20
199	50
201	881
202	90
206	10
209	40
210	40
211	130
212	20
213	20
223	50
224	150
225	110
226	20
227	20
234	70
235	20
241	40
252	310
253	7797
254	1952
255	260
256	30
270	100
271	200
272	40
283	50
284	30
295	10
296	170
297	150
298	80
325	170
326	30
339	40
