Mass Spectrum: Fumaric acid, pent-4-en-2-yl propyl ester
Formula: C12 H18 O4
Molecular weight: 226
Origin: L.N.Kulikova, V.G. Zaikin, RPFU, Moscow, Russia
m/z	RELATIVE INTENSITY
26	140
27	400
29	150
31	20
39	280
40	80
41	851
42	130
43	460
44	20
45	90
53	240
54	370
55	480
56	40
57	20
59	10
65	20
67	320
68	951
69	470
70	60
71	180
72	20
81	360
82	380
83	40
93	20
95	90
97	30
99	2672
100	250
101	20
111	30
112	50
113	30
117	100
127	30
139	50
140	100
141	9999
142	781
143	180
145	20
159	20
167	1001
168	90
169	20
185	40
