Mass Spectrum: Silane, dimethyl(trans-3,7-dimethyl-2,6-octadien-1-yloxy)pentyloxy-
Formula: C17 H34 O2 Si
Molecular weight: 298
Origin: V.G. Zaikin, R.S.Borisov, TIPS RAS, Moscow, Russia
m/z	RELATIVE INTENSITY
27	70
29	110
39	230
40	70
41	1331
42	140
43	410
45	120
47	120
51	20
53	350
54	50
55	430
56	50
57	60
58	40
59	340
60	30
61	280
63	70
65	60
66	40
67	741
68	1341
69	5295
70	400
71	130
73	50
74	100
75	9228
76	741
77	3894
78	190
79	430
80	1361
81	1121
82	270
83	70
84	30
85	70
87	70
88	30
89	1471
90	160
91	581
92	901
93	5225
94	1001
95	801
96	80
97	30
99	140
101	1461
102	120
103	290
104	20
105	941
106	100
107	1702
108	470
109	260
110	190
111	110
113	270
114	20
115	270
116	30
117	290
118	20
119	310
120	30
121	8878
122	1311
123	3443
124	320
125	140
127	891
128	160
129	1171
130	190
131	390
132	20
133	220
134	40
135	370
136	3273
137	460
138	20
139	20
141	300
142	170
143	4254
144	581
145	9999
146	1361
147	3583
148	400
149	350
151	20
153	20
154	20
155	761
156	100
157	430
158	120
159	921
160	110
161	410
162	20
163	70
165	20
167	30
169	160
170	20
171	951
172	611
173	671
174	70
175	691
176	70
177	20
185	460
186	60
187	170
189	20
195	120
197	100
199	240
200	30
201	150
203	2142
204	310
205	90
210	50
211	30
213	901
214	150
215	2913
216	1631
217	380
218	50
227	1011
228	721
229	601
230	100
241	841
242	180
243	110
255	1892
256	430
257	70
283	1772
284	400
285	70
297	120
298	1772
299	450
300	90
