Mass Spectrum: Fumaric acid, 3,3-dimethylbut-2-yl ethyl ester
Formula: C12 H20 O4
Molecular weight: 228
Origin: V.G. Zaikin, R.S.Borisov, TIPS RAS, Moscow, Russia
m/z	RELATIVE INTENSITY
26	220
27	621
28	400
29	1011
30	30
37	20
39	260
40	50
41	1481
42	160
43	1401
44	100
45	260
53	330
54	611
55	991
56	340
57	3633
58	160
67	70
68	30
69	1461
70	170
71	300
72	100
73	20
81	280
82	801
83	140
84	1021
85	1051
86	60
97	10
99	3363
100	1682
101	220
105	30
117	130
127	9999
128	9008
129	671
130	60
145	250
155	70
172	60
173	430
174	30
183	1011
184	100
213	110
