Mass Spectrum: Fumaric acid, 2-decyl dodecyl ester
Formula: C26 H48 O4
Molecular weight: 424
Origin: V.G. Zaikin, R.S.Borisov, TIPS RAS, Moscow, Russia
m/z	RELATIVE INTENSITY
25	40
26	330
27	1191
29	1832
30	40
31	30
37	20
38	80
39	901
40	190
41	5185
42	1762
43	8638
44	440
45	230
50	20
51	40
53	550
54	1481
55	9939
56	5405
57	9999
58	601
59	50
65	60
66	120
67	1391
68	1531
69	9148
70	4994
71	6866
72	420
73	140
74	30
77	60
79	110
80	90
81	1401
82	3513
83	8207
84	3563
85	6216
86	430
87	40
91	40
93	90
94	90
95	741
96	1611
97	9068
98	3123
99	6216
100	8758
101	1702
102	130
107	60
108	60
109	480
110	751
111	5175
112	1782
113	881
114	180
115	80
116	320
117	3823
118	2062
119	1111
120	60
121	60
122	70
123	390
124	520
125	851
126	290
127	530
128	90
129	30
131	20
135	30
136	80
137	430
138	591
139	450
140	5275
141	2322
142	340
143	160
144	30
145	20
149	50
150	100
151	180
152	290
153	651
154	450
155	280
156	240
157	1111
158	120
159	40
163	30
164	90
165	180
166	981
167	1591
168	681
169	1241
170	230
171	1231
172	210
173	20
177	30
178	80
179	90
180	100
181	190
182	270
183	370
184	110
185	330
186	60
187	40
192	40
193	150
194	180
195	270
196	180
197	290
198	100
199	80
200	30
205	10
206	60
209	170
210	260
211	380
212	190
213	130
214	50
220	160
221	140
222	50
223	210
224	200
225	370
226	60
227	40
237	210
238	490
239	1161
240	270
241	70
248	180
249	50
251	20
255	40
257	1471
258	240
259	30
265	40
266	971
267	7637
268	2122
269	330
270	30
282	70
283	90
284	340
285	1722
286	500
287	170
297	70
309	260
310	140
311	40
323	20
324	20
325	30
339	250
340	50
353	70
365	30
380	50
381	40
406	30
