Mass Spectrum: Silane, dimethyl(dimethyl(but-3-enyloxy)silyloxy)butoxy-
Formula: C12 H28 O3 Si2
Molecular weight: 276
Origin: V.G. Zaikin, R.S.Borisov, TIPS RAS, Moscow, Russia
m/z	RELATIVE INTENSITY
26	30
27	120
29	450
39	200
40	20
41	731
42	110
43	240
44	120
45	100
47	30
51	20
53	160
54	400
55	6416
56	500
57	861
58	40
59	150
61	160
66	671
67	170
69	40
71	30
73	581
74	60
75	651
76	30
77	150
81	1051
82	20
83	230
87	40
88	20
89	170
94	180
95	20
96	410
97	20
99	30
101	140
102	40
103	190
104	40
105	110
115	270
117	591
118	60
119	1211
120	110
121	130
129	20
131	110
132	40
133	6116
134	811
135	1401
136	80
137	80
143	30
145	60
147	360
148	60
149	8688
150	1191
151	3743
152	450
153	220
157	30
159	160
161	50
163	811
164	70
165	120
173	250
174	20
175	170
177	150
178	20
179	40
185	20
187	811
188	100
189	290
190	20
191	80
192	140
203	3433
204	631
205	9999
206	1892
207	901
208	90
209	20
231	350
232	20
261	3153
262	601
263	210
264	180
