Mass Spectrum: Fumaric acid, 4-methylpent-2-yl pentadecyl ester
Formula: C25 H46 O4
Molecular weight: 410
Origin: V.G. Zaikin, R.S.Borisov, TIPS RAS, Moscow, Russia
m/z	RELATIVE INTENSITY
26	50
27	170
28	60
29	150
39	220
40	60
41	1371
42	440
43	3303
44	340
45	50
50	20
51	20
53	180
54	500
55	2823
56	1231
57	2973
58	160
59	30
65	20
66	50
67	611
68	601
69	5155
70	1121
71	1722
72	140
73	70
77	30
78	10
79	70
80	70
81	671
82	3023
83	4054
84	7136
85	9999
86	691
87	30
91	40
93	60
94	60
95	500
96	761
97	3633
98	681
99	2813
100	4494
101	971
102	80
105	30
107	50
108	40
109	360
110	410
111	2422
112	500
113	400
114	70
115	50
116	90
117	1902
118	1351
119	711
120	40
121	50
122	60
123	260
124	320
125	1041
126	270
127	320
128	60
129	30
131	20
133	20
135	40
136	70
137	280
138	300
139	550
140	290
141	440
142	80
143	60
144	20
145	20
147	20
149	30
150	60
151	150
152	240
153	480
154	370
155	320
156	130
157	641
158	120
159	50
161	20
163	40
164	70
165	120
166	180
167	200
168	190
169	200
170	70
171	821
172	130
173	20
177	30
178	50
179	80
180	200
181	190
182	370
183	1201
184	290
185	70
186	20
187	20
191	20
192	30
193	70
194	70
195	170
196	150
197	180
198	50
199	80
200	30
201	1361
202	180
203	40
205	20
206	50
207	60
208	550
209	320
210	250
211	490
212	120
213	70
214	30
219	30
220	30
221	30
222	40
223	200
224	180
225	290
226	80
227	190
228	40
229	30
233	20
234	20
235	40
236	20
237	270
238	190
239	120
240	60
241	120
242	20
243	20
245	30
247	10
248	70
249	60
251	300
252	280
253	110
254	50
255	110
256	20
261	20
262	50
263	150
264	50
265	240
266	430
267	340
268	60
269	100
277	40
279	150
280	360
281	160
282	30
283	60
290	200
291	180
292	20
297	30
307	60
308	1081
309	2662
310	871
311	150
324	30
325	70
326	250
327	581
328	140
329	20
351	40
366	40
367	170
368	30
395	470
396	100
