Mass Spectrum: Fumaric acid, di(trans-hex-3-enyl) ester
Formula: C16 H24 O4
Molecular weight: 280
Origin: L.N.Kulikova, V.G. Zaikin, RPFU, Moscow, Russia
m/z	RELATIVE INTENSITY
26	90
27	250
29	180
39	370
40	50
41	1241
42	90
43	60
45	20
51	30
53	300
54	601
55	1541
56	40
65	90
66	80
67	4814
68	280
69	180
71	40
77	40
79	120
80	40
81	981
82	9999
83	1521
84	40
93	50
95	50
98	30
99	591
100	70
107	130
109	180
111	60
123	20
125	20
135	70
153	30
181	230
182	20
