Mass Spectrum: Fumaric acid, butyl 3-heptyl ester
Formula: C15 H26 O4
Molecular weight: 270
Origin: V.G. Zaikin, R.S.Borisov, TIPS RAS, Moscow, Russia
m/z	RELATIVE INTENSITY
26	110
27	390
29	601
31	20
39	170
40	20
41	841
42	100
43	350
45	30
53	150
54	410
55	901
56	931
57	1211
58	60
67	30
68	50
69	420
70	390
71	100
72	50
73	20
81	280
82	601
83	120
85	20
97	70
98	1001
99	2012
100	881
101	50
109	20
110	30
111	170
112	20
114	30
115	70
117	991
118	40
126	20
127	70
128	70
129	40
138	60
154	20
155	9999
156	1091
157	120
169	50
170	30
173	390
174	40
185	20
186	20
197	701
198	80
213	20
215	40
