Mass Spectrum: D-Alanine, N-(4-anisoyl)-, ethyl ester
Formula: C13 H17 N O4
Molecular weight: 251
Origin: V.G. Zaikin, R.S.Borisov, TIPS RAS, Moscow, Russia
m/z	RELATIVE INTENSITY
27	40
28	30
29	80
39	30
42	40
44	100
50	30
51	90
63	60
64	100
65	40
75	20
76	80
77	921
78	90
79	50
89	30
92	410
93	40
104	20
105	90
118	70
120	120
121	90
133	20
134	40
135	9999
136	751
137	60
178	2642
179	290
180	20
206	70
251	20
