Mass Spectrum: Fumaric acid, butyl 2-hexyl ester
Formula: C14 H24 O4
Molecular weight: 256
Origin: L.N.Kulikova, V.G. Zaikin, RPFU, Moscow, Russia
m/z	RELATIVE INTENSITY
26	40
27	170
29	280
31	10
39	150
40	30
41	791
42	410
43	1241
44	30
45	80
53	160
54	430
55	1381
56	1281
57	921
58	70
59	20
67	50
68	50
69	621
70	170
71	180
72	80
73	60
81	370
82	691
83	220
84	2102
85	631
86	40
95	20
96	20
97	110
98	70
99	2532
100	1451
101	140
109	50
110	50
111	370
112	60
113	40
114	60
115	40
117	2432
118	120
119	20
125	20
126	30
127	140
128	30
137	20
138	140
139	30
140	20
141	80
153	20
154	70
155	9999
156	1371
157	160
159	50
169	80
170	70
171	20
172	20
173	811
174	90
183	1421
184	160
185	10
201	180
