Mass Spectrum: Fumaric acid, decyl 2-heptyl ester
Formula: C21 H38 O4
Molecular weight: 354
Origin: V.G. Zaikin, R.S.Borisov, TIPS RAS, Moscow, Russia
m/z	RELATIVE INTENSITY
25	40
26	440
27	1471
29	1902
30	80
31	40
37	30
39	851
40	130
41	4834
42	1551
43	6045
45	260
50	30
51	50
53	520
54	1451
55	7567
56	5855
57	9999
58	510
59	40
65	40
66	60
67	711
68	941
69	6075
70	3763
71	2793
72	250
73	70
77	30
79	100
80	40
81	1011
82	2282
83	5715
84	1151
85	2032
86	130
91	50
93	40
94	50
95	310
96	510
97	3233
98	5645
99	7767
100	6216
101	961
102	70
104	20
105	20
107	40
108	40
109	190
110	280
111	561
112	430
113	210
114	100
115	230
116	160
117	3623
118	981
119	350
121	20
122	30
123	130
124	180
125	901
126	200
127	160
128	40
136	40
137	90
138	400
139	230
140	390
141	741
142	200
143	90
144	20
150	50
151	100
152	410
153	370
154	220
155	220
156	60
157	701
158	70
159	50
165	30
166	30
167	50
168	150
169	280
170	170
171	591
172	90
173	40
178	50
179	30
181	80
182	100
183	70
184	30
193	40
195	60
196	110
197	1201
198	200
199	60
209	40
210	100
211	110
212	20
215	911
216	90
220	60
238	230
239	6816
240	1361
241	190
254	40
255	60
257	581
258	100
310	20
311	70
