Mass Spectrum: Fumaric acid, hexadecyl 2-methylpentyl ester
Formula: C26 H48 O4
Molecular weight: 424
Origin: L.N.Kulikova, V.G. Zaikin, RPFU, Moscow, Russia
m/z	RELATIVE INTENSITY
26	140
27	470
29	591
31	30
39	350
40	30
41	2192
42	571
43	5285
44	180
45	70
51	20
53	220
54	621
55	3803
56	1471
57	4104
58	210
59	130
65	20
66	50
67	711
68	611
69	5095
70	1041
71	2262
72	200
73	70
79	60
80	60
81	751
82	1742
83	4414
84	6726
85	9999
86	721
87	30
91	30
93	60
94	50
95	520
96	681
97	4264
98	601
99	2412
100	4614
101	1131
102	80
105	20
107	50
108	40
109	350
110	320
111	2292
112	390
113	340
114	140
115	50
116	20
117	1201
118	1141
119	571
120	40
121	50
122	50
123	230
124	250
125	1121
126	290
127	300
128	70
129	60
130	20
131	20
135	30
136	60
137	240
138	220
139	550
140	180
141	350
142	340
143	230
144	120
145	30
147	20
149	30
150	40
151	110
152	140
153	390
154	230
155	330
156	80
157	360
158	30
163	30
164	50
165	80
166	130
167	200
168	130
169	120
170	40
171	611
172	90
177	20
178	30
179	60
180	90
181	150
182	190
183	701
184	140
185	30
192	20
193	40
194	120
195	120
196	150
197	110
198	30
199	60
200	20
201	711
202	90
206	20
209	70
210	90
211	90
212	30
213	40
219	20
220	30
221	50
222	440
223	260
224	170
225	470
226	100
227	40
229	20
235	20
236	20
237	160
238	150
239	170
240	50
241	150
242	20
249	20
251	180
252	180
253	60
254	30
255	60
256	20
259	40
262	40
263	30
265	150
266	230
267	80
268	50
269	70
276	20
277	140
278	40
279	130
280	280
281	120
282	30
283	40
293	70
294	210
295	130
296	40
297	30
304	120
305	200
306	40
321	20
322	691
323	2082
324	751
325	130
339	20
340	190
341	130
342	30
366	190
367	100
368	50
395	100
396	20
409	40
