Mass Spectrum: Silane, dimethyl(trans-3,7-dimethyl-2,6-octadien-1-yloxy)hexyloxy-
Formula: C18 H36 O2 Si
Molecular weight: 312
Origin: V.G. Zaikin, R.S.Borisov, TIPS RAS, Moscow, Russia
m/z	RELATIVE INTENSITY
26	40
27	240
29	280
38	20
39	360
40	110
41	2512
42	250
43	1051
45	200
47	210
50	20
51	50
52	30
53	460
54	90
55	1171
56	220
57	170
58	70
59	430
60	50
61	390
63	100
65	80
66	40
67	911
68	1591
69	5485
70	310
73	20
74	100
75	9999
76	751
77	4074
78	220
79	480
80	1581
81	1261
82	350
83	1241
84	120
85	170
87	100
88	30
89	1571
90	140
91	540
92	921
93	5115
94	921
95	791
96	60
97	30
99	150
101	1261
102	110
103	280
105	841
106	70
107	1571
108	390
109	240
110	150
111	70
113	240
114	20
115	300
116	20
117	260
119	260
120	30
121	7297
122	1061
123	2722
124	240
125	110
127	631
128	130
129	721
130	120
131	290
133	170
134	30
135	280
136	2602
137	370
141	210
142	80
143	2993
144	380
145	510
146	40
147	60
149	80
153	10
154	10
155	490
156	80
157	410
158	130
159	5805
160	811
161	1922
162	210
163	60
169	80
171	550
172	190
173	300
174	20
175	190
177	20
185	250
186	150
187	240
189	370
190	20
195	50
197	60
199	240
200	20
201	50
210	30
213	100
215	60
217	1281
218	200
227	490
228	70
229	1541
230	981
231	200
232	30
241	530
242	410
243	350
244	50
255	460
256	100
257	50
269	1181
270	240
271	50
297	1051
298	240
299	50
311	60
312	1071
313	230
314	40
