Mass Spectrum: Fumaric acid, 2-hexyl octadecyl ester
Formula: C28 H52 O4
Molecular weight: 452
Origin: L.N.Kulikova, V.G. Zaikin, RPFU, Moscow, Russia
m/z	RELATIVE INTENSITY
25	40
26	350
27	1051
28	571
29	1431
30	30
31	30
37	20
38	40
39	801
40	210
41	4174
42	1962
43	9999
44	390
45	230
50	50
51	50
52	60
53	440
54	1221
55	8127
56	3914
57	8037
58	440
59	40
61	20
65	70
66	130
67	1471
68	1401
69	7507
70	2122
71	4534
72	320
73	180
74	50
75	20
77	90
78	50
79	250
80	180
81	1411
82	2833
83	7407
84	6045
85	6906
86	460
87	40
89	10
91	90
92	20
93	130
94	150
95	1121
96	1601
97	6586
98	1071
99	4644
100	6846
101	2362
102	160
103	30
105	70
106	20
107	90
108	100
109	751
110	811
111	4014
112	711
113	681
114	140
115	110
116	160
117	6366
118	3013
119	2082
120	120
121	120
122	130
123	520
124	540
125	1641
126	440
127	490
128	90
129	50
131	40
133	30
135	70
136	150
137	480
138	591
139	841
140	380
141	751
142	140
143	80
144	30
145	40
147	40
148	20
149	70
150	90
151	240
152	310
153	641
154	430
155	621
156	270
157	621
158	120
161	30
163	50
164	90
165	190
166	280
167	380
168	250
169	280
170	90
171	741
172	120
173	20
175	20
177	40
178	70
179	130
180	200
181	340
182	380
183	1111
184	300
185	80
186	20
191	20
192	60
193	110
194	160
195	280
196	220
197	240
198	60
199	80
200	30
201	1411
202	190
203	60
205	30
206	50
207	120
208	70
209	200
210	200
211	230
212	60
213	50
219	40
220	40
221	110
222	200
223	260
224	270
225	300
226	90
227	80
233	30
234	30
235	60
236	60
237	320
238	240
239	240
240	80
241	110
242	30
247	50
248	50
249	80
250	751
251	540
252	360
253	591
254	130
255	130
256	50
261	50
262	30
263	40
264	40
265	370
266	380
267	310
268	80
269	180
270	30
275	40
276	30
277	40
279	300
280	400
281	120
282	40
283	100
284	20
287	30
289	30
290	60
291	60
292	10
293	230
294	340
295	130
296	40
297	110
298	20
303	20
304	50
305	170
306	50
307	180
308	260
309	340
310	60
311	50
321	90
322	310
323	130
324	30
325	30
332	200
333	340
334	60
339	30
349	40
350	1151
351	1852
352	550
353	100
355	20
367	50
368	200
369	410
370	100
371	20
408	50
409	20
423	30
