Mass Spectrum: Fumaric acid, butyl 3-ethylphenyl ester
Formula: C16 H20 O4
Molecular weight: 276
Origin: V.G. Zaikin, R.S.Borisov, TIPS RAS, Moscow, Russia
m/z	RELATIVE INTENSITY
26	180
27	470
29	741
38	30
39	370
40	30
41	881
42	40
43	70
45	60
50	40
51	170
52	60
53	480
54	681
55	1281
56	100
57	3713
58	170
62	10
63	110
64	50
65	220
66	40
67	20
71	370
72	20
76	10
77	961
78	350
79	220
80	40
81	701
82	911
89	60
90	30
91	661
92	80
93	90
94	250
95	40
98	20
99	9999
100	420
101	90
102	20
103	350
104	60
105	210
106	20
107	1541
108	120
109	20
115	20
117	50
119	50
120	40
121	290
122	4504
123	510
124	20
125	20
127	40
131	50
135	30
137	20
145	20
146	40
147	550
148	50
155	8618
156	771
157	80
173	30
174	320
175	500
176	60
178	110
191	60
192	20
202	20
203	1081
204	160
219	20
276	260
277	40
