Mass Spectrum: Fumaric acid, dodecyl 2-hexyl ester
Formula: C22 H40 O4
Molecular weight: 368
Origin: L.N.Kulikova, V.G. Zaikin, RPFU, Moscow, Russia
m/z	RELATIVE INTENSITY
25	20
26	210
27	741
28	500
29	1261
30	60
31	40
39	661
40	160
41	4104
42	1882
43	8698
44	220
45	250
50	20
51	30
53	510
54	1411
55	9028
56	5215
57	7056
58	410
59	40
65	50
66	100
67	1201
68	1371
69	9539
70	3003
71	4134
72	370
73	170
74	30
77	50
79	80
80	90
81	1441
82	3603
83	8097
84	9178
85	8878
86	621
87	40
91	40
93	80
94	100
95	701
96	1181
97	7277
98	1591
99	7487
100	9999
101	2042
102	150
105	20
107	60
108	80
109	540
110	781
111	5245
112	961
113	891
114	180
115	90
116	210
117	9158
118	2762
119	941
120	60
121	50
122	80
123	380
124	430
125	921
126	420
127	591
128	200
129	130
131	30
135	40
136	110
137	410
138	801
139	601
140	651
141	601
142	140
143	120
144	20
145	200
146	30
147	30
149	40
150	90
151	130
152	250
153	651
154	671
155	731
156	400
157	1181
158	190
159	80
163	40
164	130
165	150
166	871
167	300
168	530
169	1191
170	210
171	1241
172	220
173	110
177	30
178	60
179	70
180	110
181	230
182	400
183	2202
184	520
185	410
186	60
187	80
189	10
191	30
192	30
193	60
194	40
195	230
196	130
197	160
198	80
199	100
200	40
201	2292
202	290
203	70
205	20
206	70
207	30
209	220
210	110
211	150
212	80
213	80
214	20
219	20
220	60
221	130
222	40
223	210
224	230
225	430
226	60
227	80
237	220
238	350
239	260
240	50
241	120
242	20
248	200
249	60
251	30
255	60
256	30
265	60
266	741
267	7176
268	1702
269	230
270	20
282	60
283	70
284	210
285	1231
286	210
287	30
309	20
324	60
325	50
339	60
