Mass Spectrum: Malonic acid, 4-heptyl pentyl ester
Formula: C15 H28 O4
Molecular weight: 272
Origin: L.N.Kulikova, V.G. Zaikin, RPFU, Moscow, Russia
m/z	RELATIVE INTENSITY
26	40
27	350
28	230
29	591
31	30
39	230
40	50
41	1281
42	891
43	3423
44	130
45	40
53	80
54	100
55	1211
56	1111
57	2522
58	140
59	30
60	140
61	230
67	70
68	110
69	891
70	1651
71	3914
72	260
73	130
83	130
86	60
87	3423
88	120
89	20
97	831
98	1321
99	370
100	60
101	20
102	40
103	50
104	40
105	5445
106	200
107	60
111	130
113	60
114	190
115	2042
116	160
117	20
125	150
130	80
131	180
132	20
139	160
141	20
145	20
155	40
157	9999
158	891
159	100
167	70
172	40
173	30
175	561
176	40
185	220
186	20
201	40
229	220
230	20
