Mass Spectrum: Fumaric acid, 2-butyl eicosyl ester
Formula: C28 H52 O4
Molecular weight: 452
Origin: V.G. Zaikin, R.S.Borisov, TIPS RAS, Moscow, Russia
m/z	RELATIVE INTENSITY
25	30
26	290
27	681
28	470
29	1171
30	30
31	30
37	30
38	20
39	631
40	150
41	3753
42	891
43	5475
44	480
45	120
50	50
51	70
52	20
53	360
54	1071
55	6216
56	4064
57	8778
58	400
59	20
65	40
66	110
67	1431
68	1351
69	6126
70	1932
71	4154
72	260
73	400
74	50
77	60
78	50
79	260
80	170
81	1431
82	2302
83	6736
84	1351
85	2783
86	180
87	20
91	100
92	20
93	120
94	150
95	1151
96	1631
97	6286
98	1011
99	4584
100	5745
101	2182
102	140
103	20
105	50
107	90
108	90
109	801
110	771
111	3273
112	641
113	581
114	90
115	100
116	60
117	9999
118	3453
119	2312
120	130
121	120
122	150
123	581
124	540
125	1551
126	420
127	761
128	180
129	110
130	70
131	50
133	50
135	90
136	150
137	510
138	450
139	761
140	280
141	781
142	120
143	80
144	20
145	30
147	50
149	70
150	90
151	250
152	350
153	671
154	420
155	1571
156	550
157	621
158	70
159	30
161	30
163	50
164	70
165	190
166	310
167	360
168	240
169	250
170	90
171	601
172	120
173	2152
174	290
175	200
177	30
178	70
179	140
180	210
181	340
182	310
183	260
184	60
185	40
189	20
191	50
192	50
193	90
194	160
195	340
196	260
197	400
198	90
199	70
200	20
205	40
206	50
207	110
208	100
209	260
210	210
211	230
212	80
213	130
214	20
219	40
220	40
221	140
222	140
223	330
224	220
225	260
226	90
227	120
228	30
233	30
234	30
235	90
236	110
237	410
238	260
239	300
240	80
241	70
247	50
248	30
249	70
250	180
251	430
252	360
253	300
254	90
255	90
261	60
262	30
263	50
264	50
265	420
266	400
267	290
268	90
269	140
270	30
275	60
276	50
277	90
278	711
279	571
280	510
281	440
282	120
283	130
284	40
289	40
290	20
291	40
292	30
293	320
294	360
295	330
296	80
297	170
298	20
303	30
305	40
307	260
308	280
309	110
310	30
311	100
312	20
315	20
317	20
318	60
319	60
321	200
322	220
323	90
324	30
325	90
331	20
332	50
333	170
334	60
335	150
336	180
337	390
338	60
339	60
349	70
350	300
351	130
352	20
353	20
360	230
361	290
362	50
367	10
377	50
378	1211
379	1251
380	320
381	50
395	60
396	120
397	340
398	60
