Mass Spectrum: Malonic acid, 2-ethylbutyl tridecyl ester
Formula: C22 H42 O4
Molecular weight: 370
Origin: L.N.Kulikova, V.G. Zaikin, RPFU, Moscow, Russia
m/z	RELATIVE INTENSITY
26	30
27	190
28	160
29	410
31	20
39	190
40	40
41	1221
42	571
43	3743
44	230
45	10
53	90
54	250
55	2082
56	1391
57	2472
58	110
59	30
60	90
61	70
66	20
67	330
68	380
69	2142
70	991
71	1471
72	100
73	20
79	20
81	190
82	631
83	1441
84	3613
85	6266
86	430
87	701
88	20
89	30
90	60
95	100
96	180
97	1081
98	390
99	260
100	70
101	110
102	20
104	40
105	9999
106	350
107	80
109	40
110	100
111	641
112	250
113	140
114	20
118	791
119	400
120	20
123	20
124	50
125	280
126	140
127	100
132	40
138	20
139	60
140	60
141	50
153	30
154	290
155	30
159	60
171	40
181	50
182	310
183	90
189	350
190	30
269	30
287	80
341	30
