Mass Spectrum: Malonic acid, butyl 3-methylbutyl ester
Formula: C12 H22 O4
Molecular weight: 230
Origin: L.N.Kulikova, V.G. Zaikin, RPFU, Moscow, Russia
m/z	RELATIVE INTENSITY
26	60
27	661
28	571
29	1431
30	80
31	100
39	460
40	60
41	2222
42	1301
43	3113
44	390
45	120
46	20
53	100
54	40
55	2442
56	1792
57	2953
58	110
60	400
61	150
70	6666
71	8327
72	510
73	180
85	20
86	120
87	3053
88	110
89	110
90	20
99	40
100	50
101	90
103	60
104	80
105	9999
106	350
107	70
113	120
114	80
115	100
116	80
117	60
118	90
129	20
131	220
132	240
133	150
141	40
143	1501
144	100
157	1842
158	170
159	120
160	20
161	881
162	50
175	230
187	490
188	50
201	30
