Mass Spectrum: Fumaric acid, 2-methylpent-3-yl tetradecyl ester
Formula: C24 H44 O4
Molecular weight: 396
Origin: L.N.Kulikova, V.G. Zaikin, RPFU, Moscow, Russia
m/z	RELATIVE INTENSITY
26	100
27	350
28	220
29	550
30	30
31	20
39	310
40	70
41	1992
42	490
43	4524
44	280
45	70
53	210
54	621
55	3673
56	1451
57	3853
58	220
59	140
65	30
66	50
67	631
68	591
69	5565
70	1161
71	2092
72	200
73	80
77	20
79	60
80	50
81	741
82	1892
83	4654
84	6806
85	9999
86	701
87	20
91	30
93	50
94	50
95	430
96	601
97	4434
98	711
99	2843
100	4994
101	1181
102	80
105	30
107	40
108	30
109	300
110	320
111	2642
112	460
113	400
114	170
115	60
117	1171
118	1101
119	400
120	20
121	40
122	40
123	200
124	240
125	1261
126	310
127	300
128	80
129	60
130	20
133	20
135	50
136	60
137	250
138	230
139	500
140	170
141	300
142	440
143	290
144	130
145	30
149	20
150	40
151	90
152	140
153	320
154	250
155	370
156	90
157	440
158	40
163	20
164	60
165	80
166	170
167	100
168	200
169	130
170	40
171	691
172	100
177	30
178	30
179	50
180	60
181	120
182	240
183	801
184	140
185	40
192	30
193	50
194	390
195	250
196	180
197	540
198	90
199	50
200	20
201	871
202	100
206	20
209	100
210	70
211	180
212	40
213	180
214	20
221	20
223	120
224	90
225	60
226	30
227	40
231	20
234	40
235	40
237	150
238	140
239	80
240	40
241	70
248	20
249	100
250	30
251	150
252	210
253	170
254	40
255	40
265	90
266	200
267	120
268	40
269	20
276	110
277	100
293	20
294	571
295	2953
296	1021
297	160
312	160
313	140
314	40
325	20
326	20
338	200
339	120
340	60
367	130
368	20
381	50
