Mass Spectrum: Fumaric acid, 2-methylpentyl pentadecyl ester
Formula: C25 H46 O4
Molecular weight: 410
Origin: L.N.Kulikova, V.G. Zaikin, RPFU, Moscow, Russia
m/z	RELATIVE INTENSITY
26	100
27	330
29	420
30	30
31	20
39	280
40	60
41	1962
42	500
43	4444
44	20
45	70
53	210
54	591
55	3613
56	1461
57	3623
58	210
59	130
65	20
66	50
67	621
68	561
69	5265
70	1091
71	2252
72	200
73	70
77	10
79	70
80	50
81	741
82	1772
83	4564
84	6506
85	9999
86	711
87	20
91	20
93	60
94	50
95	450
96	611
97	4124
98	641
99	2532
100	4794
101	1091
102	90
105	30
107	40
108	30
109	320
110	310
111	2412
112	430
113	360
114	150
115	50
117	1091
118	1071
119	520
120	30
121	40
122	40
123	230
124	250
125	1161
126	300
127	330
128	70
129	50
130	20
131	10
135	30
136	50
137	220
138	210
139	540
140	180
141	300
142	380
143	250
144	110
145	30
149	30
150	60
151	130
152	160
153	390
154	240
155	340
156	80
157	390
158	40
163	20
164	50
165	80
166	110
167	120
168	120
169	120
170	40
171	641
172	100
177	20
178	30
179	50
180	140
181	130
182	230
183	711
184	150
185	30
192	20
193	20
194	40
195	110
196	110
197	100
198	30
199	50
200	20
201	771
202	100
205	20
206	30
208	390
209	210
210	160
211	500
212	90
213	30
220	20
221	20
222	20
223	120
224	100
225	170
226	40
227	160
228	20
235	20
237	140
238	140
239	70
240	40
241	50
245	30
248	40
249	30
251	160
252	180
253	70
254	40
255	60
262	30
263	120
264	40
265	130
266	270
267	200
268	50
269	50
279	70
280	220
281	50
282	20
283	20
290	110
291	140
292	20
297	20
307	20
308	611
309	2432
310	851
311	140
325	20
326	190
327	140
328	40
339	20
340	20
352	190
353	110
354	50
381	120
382	20
395	40
