Mass Spectrum: Malonic acid, isobutyl 4-heptyl ester
Formula: C14 H26 O4
Molecular weight: 258
Origin: L.N.Kulikova, V.G. Zaikin, RPFU, Moscow, Russia
m/z	RELATIVE INTENSITY
26	30
27	520
28	410
29	1031
31	80
37	20
39	330
40	60
41	1862
42	761
43	1451
44	120
45	20
53	60
54	90
55	891
56	2042
57	9999
58	480
59	70
60	180
61	30
67	30
68	110
69	761
70	671
71	550
72	150
73	160
82	40
83	711
84	80
86	20
87	2692
88	80
89	20
90	20
97	170
98	1021
99	611
100	110
101	60
102	20
105	3173
106	100
107	30
111	30
113	50
114	150
115	1581
116	140
117	30
118	220
125	621
126	90
127	60
130	110
131	180
132	40
139	110
143	8227
144	641
145	180
158	20
160	30
161	250
167	150
185	500
186	50
215	260
216	20
