Mass Spectrum: Fumaric acid, di(2-methylpentyl) ester
Formula: C16 H28 O4
Molecular weight: 284
Origin: L.N.Kulikova, V.G. Zaikin, RPFU, Moscow, Russia
m/z	RELATIVE INTENSITY
26	130
27	470
29	330
31	40
39	230
41	911
42	100
43	1822
45	60
53	180
54	691
55	1061
56	110
57	250
58	30
59	90
67	40
69	1001
70	20
71	30
72	30
81	260
82	1501
83	210
84	1521
85	4764
86	320
95	20
97	50
99	4184
100	1161
101	260
109	50
111	10
112	20
114	40
115	20
123	20
125	90
126	50
129	30
135	20
137	60
142	190
143	110
144	50
157	60
182	20
183	9999
184	1051
185	120
201	30
227	50
255	60
