Mass Spectrum: Silane, dimethyl(but-2-enyloxy)octyloxy-
Formula: C14 H30 O2 Si
Molecular weight: 258
Origin: V.G. Zaikin, R.S.Borisov, TIPS RAS, Moscow, Russia
m/z	RELATIVE INTENSITY
26	40
27	280
29	530
39	320
40	20
41	1001
42	150
43	821
45	430
47	320
53	190
54	210
55	2052
56	210
57	460
58	170
59	571
60	150
61	731
62	30
63	180
66	30
67	390
68	220
69	3283
70	210
71	400
72	80
73	20
74	170
75	9999
76	751
77	6996
78	400
79	260
81	410
82	190
83	180
85	160
86	20
87	320
88	150
89	1732
90	200
91	701
92	30
93	220
95	220
99	561
100	50
101	1221
102	110
103	611
104	30
105	530
106	20
107	10
109	230
110	711
111	420
112	70
113	811
114	140
115	2672
116	300
117	1061
118	90
119	120
123	60
127	210
128	440
129	2272
130	310
131	2412
132	250
133	1201
134	90
135	30
141	130
143	330
144	50
145	7647
146	1261
147	420
148	20
157	140
158	20
159	6636
160	861
161	901
162	70
169	40
171	530
172	70
173	140
174	40
185	130
186	80
187	4804
188	741
189	881
190	90
199	20
201	290
202	40
203	80
213	230
214	20
215	4384
216	741
217	250
229	180
243	6246
244	1211
245	280
246	20
257	150
258	1281
259	230
260	40
