Mass Spectrum: Fumaric acid, 3-hexyl isobutyl ester
Formula: C14 H24 O4
Molecular weight: 256
Origin: V.G. Zaikin, R.S.Borisov, TIPS RAS, Moscow, Russia
m/z	RELATIVE INTENSITY
26	90
27	340
29	380
30	20
31	30
39	190
40	30
41	761
42	310
43	971
44	80
45	40
53	160
54	500
55	981
56	841
57	1591
58	80
59	40
67	20
69	360
70	60
71	140
72	60
73	20
81	320
82	951
83	90
84	1351
85	460
86	30
97	130
99	3293
100	1361
101	160
109	40
114	40
117	1061
118	50
124	30
125	20
126	20
127	40
128	50
129	40
137	20
141	120
142	80
143	30
154	50
155	9999
156	941
157	120
161	40
173	300
174	30
182	20
183	1702
184	200
185	50
199	30
201	50
