Mass Spectrum: Fumaric acid, 2,4-dimethylpent-3-yl propyl ester
Formula: C14 H24 O4
Molecular weight: 256
Origin: V.G. Zaikin, R.S.Borisov, TIPS RAS, Moscow, Russia
m/z	RELATIVE INTENSITY
26	30
27	170
29	60
39	80
41	350
42	60
43	601
44	30
45	30
53	80
54	230
55	400
56	130
57	360
58	20
59	20
67	20
69	60
70	30
71	120
72	50
73	90
81	180
82	470
83	550
84	50
97	150
98	240
99	1672
100	801
101	50
113	30
114	70
115	60
117	70
125	20
141	9999
142	1391
143	170
159	20
169	20
184	50
185	130
186	80
197	701
198	80
213	490
214	50
215	20
