Mass Spectrum: Silane, dimethyl(pent-4-en-2-yloxy)isobutoxy-
Formula: C11 H24 O2 Si
Molecular weight: 216
Origin: V.G. Zaikin, R.S.Borisov, TIPS RAS, Moscow, Russia
m/z	RELATIVE INTENSITY
27	30
29	40
39	90
40	50
41	210
42	20
43	50
45	50
47	90
53	30
55	40
57	140
58	100
59	230
61	150
67	30
74	20
75	4064
76	250
77	561
79	20
85	30
87	40
88	60
89	200
90	20
91	10
99	751
100	40
101	801
102	40
103	1211
104	60
105	30
113	20
114	20
115	1101
116	70
117	340
119	400
120	10
121	10
127	10
128	20
129	1601
130	130
131	5335
132	601
133	260
137	10
143	2092
144	220
145	300
146	30
147	40
149	140
151	110
157	1011
158	100
159	500
160	10
161	20
173	741
174	90
175	9999
176	1361
177	440
191	50
201	1601
202	210
203	40
215	10
