Mass Spectrum: Fumaric acid, heptadecyl 3-heptyl ester
Formula: C28 H52 O4
Molecular weight: 452
Origin: V.G. Zaikin, R.S.Borisov, TIPS RAS, Moscow, Russia
m/z	RELATIVE INTENSITY
25	20
26	240
27	771
29	1191
30	40
31	40
37	20
39	571
40	120
41	3433
42	891
43	5135
44	140
45	70
50	30
51	40
53	320
54	971
55	6045
56	3493
57	9999
58	500
59	110
65	50
66	90
67	1101
68	1051
69	6246
70	2422
71	3473
72	250
73	130
74	30
77	50
78	20
79	170
80	110
81	1101
82	1892
83	5935
84	1001
85	2422
86	160
87	50
91	70
93	110
94	100
95	851
96	1131
97	5625
98	4554
99	6015
100	5625
101	1601
102	120
103	20
105	60
107	80
108	60
109	561
110	561
111	3333
112	561
113	540
114	120
115	320
116	110
117	3403
118	2122
119	1191
120	70
121	90
122	90
123	400
124	380
125	1431
126	320
127	370
128	130
129	120
130	60
131	30
133	50
135	90
136	90
137	340
138	430
139	691
140	240
141	530
142	90
143	50
144	20
145	20
147	30
149	60
150	110
151	270
152	250
153	571
154	320
155	420
156	150
157	480
158	80
159	20
161	20
163	50
164	60
165	130
166	190
167	320
168	270
169	380
170	120
171	631
172	100
173	30
177	30
178	80
179	130
180	150
181	260
182	220
183	210
184	50
185	50
191	30
192	40
193	60
194	110
195	190
196	260
197	771
198	160
199	70
200	20
201	20
205	20
206	30
207	30
208	100
209	150
210	170
211	190
212	50
213	60
215	781
216	110
217	20
219	20
220	30
221	50
222	50
223	170
224	160
225	170
226	50
227	40
233	20
234	40
235	70
236	540
237	410
238	250
239	821
240	170
241	60
247	30
248	20
249	30
250	20
251	270
252	250
253	230
254	60
255	170
256	30
257	20
261	30
263	30
265	240
266	320
267	100
268	40
269	100
270	20
273	40
275	20
276	50
277	40
279	210
280	330
281	100
282	30
283	100
284	20
289	20
290	30
291	170
292	50
293	150
294	310
295	250
296	40
297	60
307	80
308	240
309	130
310	20
311	20
318	150
319	300
320	50
335	40
336	871
337	2082
338	631
339	120
353	40
354	210
355	350
356	90
357	20
368	30
394	30
395	20
