Mass Spectrum: Fumaric acid, hexadecyl 3-hexyl ester
Formula: C26 H48 O4
Molecular weight: 424
Origin: V.G. Zaikin, R.S.Borisov, TIPS RAS, Moscow, Russia
m/z	RELATIVE INTENSITY
25	30
26	300
27	1021
28	611
29	1541
30	50
31	70
38	90
39	791
40	190
41	4384
42	1882
43	9999
44	601
45	110
50	20
51	50
53	530
54	1511
55	9649
56	4064
57	8738
58	450
59	180
65	60
66	140
67	1601
68	1401
69	9168
70	2302
71	5275
72	450
73	200
74	30
77	60
79	190
80	160
81	1692
82	3673
83	9398
84	7847
85	8578
86	561
87	30
91	60
92	20
93	130
94	150
95	1221
96	1732
97	9048
98	1431
99	6926
100	9469
101	2722
102	200
103	30
105	70
107	100
108	100
109	821
110	811
111	4984
112	851
113	901
114	140
116	60
117	7827
118	3853
119	1732
120	120
121	140
122	130
123	510
124	701
125	2272
126	571
127	721
128	190
129	160
130	100
131	60
133	30
135	100
136	200
137	561
138	550
139	1071
140	390
141	951
142	210
143	140
144	130
145	30
147	40
149	90
150	100
151	270
152	410
153	891
154	641
155	881
156	240
157	801
158	90
159	30
161	30
163	50
164	170
165	260
166	370
167	460
168	330
169	370
170	130
171	1171
172	180
173	30
175	20
177	30
178	100
179	170
180	240
181	340
182	571
183	1541
184	350
185	100
186	30
187	20
191	30
192	70
193	120
194	310
195	300
196	370
197	350
198	90
199	70
200	20
201	1852
202	250
203	40
205	40
206	50
208	70
209	260
210	250
211	320
212	90
213	100
214	30
215	20
219	40
220	70
221	130
222	911
223	571
224	370
225	1361
226	270
227	100
228	30
233	50
234	40
235	60
236	60
237	420
238	330
239	440
240	120
241	300
242	50
243	30
245	20
247	50
248	20
249	60
250	30
251	460
252	380
253	130
254	80
255	140
256	40
259	70
261	40
262	100
263	90
264	20
265	410
266	540
267	200
268	80
269	170
270	30
275	30
276	70
277	260
278	80
279	290
280	611
281	380
282	80
283	110
284	30
293	160
294	470
295	230
296	50
297	70
304	240
305	350
306	70
307	20
311	40
321	60
322	1331
323	3523
324	1071
325	190
326	20
339	70
340	350
341	801
342	190
343	20
352	20
353	40
354	50
366	50
367	50
368	20
406	20
