Mass Spectrum: Silane, dimethyl(but-2-enyloxy)pentyloxy-
Formula: C11 H24 O2 Si
Molecular weight: 216
Origin: V.G. Zaikin, R.S.Borisov, TIPS RAS, Moscow, Russia
m/z	RELATIVE INTENSITY
26	40
27	330
29	490
39	340
40	20
41	641
42	160
43	681
45	701
46	20
47	500
51	20
53	180
54	180
55	881
57	180
58	240
59	671
60	210
61	721
62	40
63	210
64	30
67	110
68	40
69	1211
70	100
71	110
72	180
73	40
74	180
75	9999
76	771
77	7987
78	500
79	300
81	40
85	170
86	20
87	190
88	170
89	1862
90	190
91	771
92	30
93	70
95	30
97	60
98	20
99	500
100	50
101	791
102	70
103	370
104	20
105	400
109	40
111	120
112	40
113	711
114	120
115	2422
116	250
117	510
118	30
119	60
127	180
128	370
129	2412
130	290
131	1812
132	190
133	110
141	100
143	150
144	70
145	7847
146	1071
147	1792
148	170
157	70
159	5525
160	651
161	510
162	30
171	240
172	30
173	3213
174	420
175	190
187	2612
188	330
189	80
201	4934
202	721
215	110
216	841
217	110
218	20
