Mass Spectrum: Fumaric acid, butyl 2-butyl ester
Formula: C12 H20 O4
Molecular weight: 228
Origin: V.G. Zaikin, R.S.Borisov, TIPS RAS, Moscow, Russia
m/z	RELATIVE INTENSITY
26	190
27	591
29	1021
30	20
31	40
39	250
40	30
41	1221
42	80
43	210
45	140
53	210
54	571
55	961
56	2292
57	1862
58	80
59	40
71	260
72	90
73	220
81	380
82	691
83	70
97	30
98	90
99	2222
100	1271
101	70
108	30
109	70
117	3433
118	160
119	30
126	50
127	290
128	120
133	40
154	100
155	9999
156	1141
157	120
172	20
173	1281
174	110
185	20
