Mass Spectrum: Fumaric acid, pentadecyl pent-4-enyl ester
Formula: C24 H42 O4
Molecular weight: 394
Origin: L.N.Kulikova, V.G. Zaikin, RPFU, Moscow, Russia
m/z	RELATIVE INTENSITY
26	120
27	390
29	591
30	20
39	400
40	130
41	2582
42	520
43	2522
45	30
53	410
54	540
55	2993
56	981
57	2362
58	100
65	40
66	80
67	1982
68	9999
69	7056
70	1171
71	2432
72	160
80	40
81	500
82	1121
83	2362
84	721
85	791
86	60
87	230
93	50
94	40
95	340
96	440
97	1852
98	380
99	1431
100	1391
101	380
102	20
107	20
108	30
109	220
110	250
111	851
112	220
113	240
114	40
117	1001
118	140
119	70
121	40
122	40
123	180
124	160
125	320
126	140
127	110
128	20
136	30
137	120
138	230
139	591
140	240
141	140
142	30
143	30
149	20
150	30
151	90
152	110
153	270
154	120
155	80
156	40
157	60
164	20
165	50
166	490
167	190
168	470
169	581
170	70
171	40
178	20
179	40
180	70
181	70
182	120
183	350
184	330
185	400
186	120
187	100
193	20
194	30
195	80
196	50
197	70
206	20
208	50
209	190
210	90
211	100
212	20
221	20
222	20
223	120
224	60
225	150
226	20
235	20
237	120
238	60
239	110
240	20
249	40
251	120
252	60
253	20
262	20
263	40
264	20
265	90
266	90
267	140
268	20
279	60
280	80
290	40
291	20
293	10
308	160
309	110
310	60
327	20
353	100
354	20
394	50
