Mass Spectrum: Fumaric acid, 3,3-dimethylbut-2-yl undecyl ester
Formula: C21 H38 O4
Molecular weight: 354
Origin: V.G. Zaikin, R.S.Borisov, TIPS RAS, Moscow, Russia
m/z	RELATIVE INTENSITY
25	30
26	340
27	1001
29	1712
30	30
31	30
37	30
39	711
40	150
41	4534
42	931
43	7026
44	480
45	140
50	30
51	30
53	380
54	1011
55	4824
56	1912
57	7547
58	330
65	30
66	40
67	581
68	571
69	5205
70	1531
71	1581
72	190
73	70
77	20
79	40
80	30
81	1111
82	2062
83	3153
84	3743
85	9999
86	671
87	50
91	30
93	20
94	20
95	220
96	280
97	2692
98	490
99	3343
100	9609
101	931
102	90
109	120
110	140
111	741
112	180
113	150
114	20
117	561
118	561
119	160
123	80
124	110
125	130
126	190
127	110
128	20
136	20
137	50
138	30
139	100
140	50
141	90
143	30
145	170
151	20
152	210
153	160
154	230
155	240
156	40
157	330
158	30
165	20
166	20
167	30
168	30
169	60
170	20
171	520
172	70
181	50
182	70
183	540
184	80
185	20
195	40
197	30
199	20
201	490
202	50
207	20
209	20
210	20
211	70
223	10
224	60
225	40
234	30
241	20
252	140
253	1551
254	4124
255	641
256	60
270	40
271	50
299	130
339	220
340	30
