Mass Spectrum: Silane, dimethyl(but-3-enyloxy)decyloxy-
Formula: C16 H34 O2 Si
Molecular weight: 286
Origin: V.G. Zaikin, R.S.Borisov, TIPS RAS, Moscow, Russia
m/z	RELATIVE INTENSITY
26	20
27	120
29	250
39	190
41	591
42	110
43	641
45	210
47	130
53	70
54	140
55	901
56	140
57	641
58	150
59	450
60	60
61	470
62	20
63	40
67	210
68	120
69	1241
70	170
71	380
72	40
73	20
74	50
75	3783
76	280
77	931
78	50
79	90
81	210
82	110
83	3023
84	250
85	340
86	20
87	290
88	140
89	2702
90	230
91	360
95	200
96	40
97	1391
98	120
99	831
100	120
101	2572
102	250
103	731
104	60
105	591
106	40
107	510
108	30
109	60
110	20
111	70
112	30
113	330
114	50
115	3033
116	300
117	500
118	40
119	1021
120	90
121	30
125	20
127	130
128	20
129	2272
130	270
131	781
132	70
133	250
134	20
137	20
141	90
143	200
144	20
145	641
146	80
147	160
155	20
157	160
159	1071
160	120
171	30
173	30
175	90
187	130
199	90
201	70
213	150
214	20
215	3323
216	591
217	50
229	90
231	150
241	440
242	70
243	601
244	120
245	9999
246	1832
247	500
248	40
271	3243
272	681
273	190
