Mass Spectrum: Fumaric acid, pentyl 2-propylphenyl ester
Formula: C18 H24 O4
Molecular weight: 304
Origin: V.G. Zaikin, R.S.Borisov, TIPS RAS, Moscow, Russia
m/z	RELATIVE INTENSITY
26	150
27	450
28	160
29	400
39	270
40	40
41	851
42	230
43	2282
44	170
45	40
50	30
51	120
52	70
53	300
54	571
55	1531
56	100
57	110
61	30
63	60
65	180
66	30
67	60
68	50
69	520
70	170
71	6786
72	380
73	40
77	480
78	250
79	240
80	20
81	601
82	1051
83	100
84	60
87	30
89	60
90	30
91	921
92	100
93	20
94	100
95	100
96	20
97	70
98	110
99	6786
100	440
101	140
102	20
103	110
104	30
105	80
106	30
107	3163
108	290
109	20
111	60
112	90
115	240
116	70
117	100
118	50
119	120
120	230
121	70
123	20
125	20
126	20
127	40
128	20
129	50
131	80
132	20
133	90
134	120
135	1571
136	3273
137	410
138	20
139	30
140	90
141	40
143	20
144	10
145	30
147	500
148	50
155	90
159	50
160	30
161	30
169	9999
170	1201
171	140
172	40
174	50
175	210
176	20
177	20
185	20
187	30
188	110
189	230
190	40
205	30
206	90
216	90
217	821
218	180
219	20
233	20
235	20
275	50
286	40
304	350
305	70
