Mass Spectrum: Malonic acid, hexyl 3-methylbutyl ester
Formula: C14 H26 O4
Molecular weight: 258
Origin: L.N.Kulikova, V.G. Zaikin, RPFU, Moscow, Russia
m/z	RELATIVE INTENSITY
26	70
27	510
28	270
29	681
39	300
40	50
41	1832
42	1261
43	5535
44	190
45	40
53	120
54	190
55	2512
56	2082
57	581
58	40
60	150
61	240
67	180
68	80
69	1021
70	4524
71	9879
72	591
73	20
82	120
83	100
84	871
85	1151
86	180
87	1722
88	50
89	60
99	30
100	40
101	70
102	30
103	50
104	60
105	9999
106	360
107	80
111	150
113	60
114	60
115	80
118	70
125	30
129	30
131	170
132	300
133	170
141	20
153	20
157	941
158	70
159	140
171	721
172	60
175	1031
176	80
189	380
190	20
201	20
215	510
216	60
243	20
