Mass Spectrum: Fumaric acid, 2-ethylbutyl pentadecyl ester
Formula: C25 H46 O4
Molecular weight: 410
Origin: V.G. Zaikin, R.S.Borisov, TIPS RAS, Moscow, Russia
m/z	RELATIVE INTENSITY
26	60
27	180
28	190
29	480
31	20
36	20
39	280
40	70
41	1712
42	641
43	4814
44	330
45	40
50	20
51	20
52	20
53	220
54	661
55	4594
56	2202
57	3883
58	170
59	30
65	40
66	70
67	811
68	871
69	5695
70	1692
71	2452
72	250
73	90
77	30
78	30
79	120
80	90
81	831
82	2262
83	4644
84	9839
85	9999
86	701
87	30
91	40
93	80
94	80
95	641
96	1071
97	3934
98	891
99	3423
100	6045
101	1611
102	120
105	30
107	50
108	70
109	440
110	591
111	2072
112	530
113	410
114	150
115	120
116	30
117	4974
118	1942
119	1381
120	80
121	60
122	80
123	360
124	490
125	961
126	380
127	350
128	80
129	60
130	40
131	220
132	40
133	40
135	70
136	100
137	410
138	390
139	490
140	310
141	500
142	110
143	70
144	30
145	30
147	20
149	60
150	80
151	220
152	380
153	661
154	500
155	671
156	170
157	520
158	60
159	20
161	20
163	40
164	120
165	200
166	280
167	230
168	300
169	360
170	110
171	530
172	100
173	40
177	30
178	80
179	140
180	300
181	280
182	641
183	2242
184	701
185	160
186	30
187	20
191	30
192	50
193	80
194	100
195	250
196	260
197	390
198	80
199	90
200	50
201	2082
202	410
203	170
204	20
205	40
206	80
207	30
208	430
209	350
210	380
211	540
212	130
213	70
214	40
215	20
219	40
220	50
221	70
222	80
223	340
224	190
225	681
226	130
227	140
228	30
229	20
231	20
233	50
234	20
235	60
236	30
237	470
238	230
239	210
240	70
241	210
242	30
245	20
247	40
248	80
249	100
250	20
251	440
252	280
253	140
254	50
255	220
256	60
261	40
262	60
263	130
264	50
265	350
266	420
267	621
268	110
269	60
279	210
280	380
281	150
282	40
283	40
290	260
291	90
293	20
297	30
307	20
308	991
309	571
310	530
311	140
325	60
326	90
327	210
328	30
339	50
341	60
353	20
381	360
382	80
410	80
