Mass Spectrum: Fumaric acid, di(3-methylbut-2-yl) ester
Formula: C14 H24 O4
Molecular weight: 256
Origin: V.G. Zaikin, R.S.Borisov, TIPS RAS, Moscow, Russia
m/z	RELATIVE INTENSITY
26	110
27	340
29	220
39	190
40	20
41	540
42	180
43	1381
44	20
45	100
53	140
54	480
55	1071
56	50
69	110
70	2162
71	3453
72	190
81	210
82	861
83	40
87	210
95	40
97	60
99	3723
100	1361
101	70
114	60
115	50
117	30
123	50
125	30
126	20
141	80
142	290
143	40
168	20
169	9999
170	871
171	110
187	30
213	20
241	30
