Mass Spectrum: Silane, dimethyl(but-3-enyloxy)octyloxy-
Formula: C14 H30 O2 Si
Molecular weight: 258
Origin: V.G. Zaikin, R.S.Borisov, TIPS RAS, Moscow, Russia
m/z	RELATIVE INTENSITY
27	70
29	150
39	150
41	420
42	80
43	330
45	190
47	140
53	50
54	100
55	841
56	140
57	270
58	160
59	460
60	60
61	450
62	20
63	40
67	150
68	70
69	2692
70	240
71	270
72	30
73	40
74	60
75	3753
76	280
77	1021
78	50
79	120
81	100
82	50
83	190
84	80
85	170
86	20
87	320
88	160
89	2772
90	260
91	370
93	20
95	40
97	90
99	791
100	130
101	2642
102	270
103	791
104	60
105	550
106	30
107	380
108	20
109	60
110	20
111	510
112	50
113	320
114	50
115	2953
116	350
117	510
118	40
119	1101
120	100
121	40
127	100
129	2412
130	290
131	781
132	70
133	190
141	60
143	130
144	10
145	520
146	60
147	20
155	20
157	30
159	1261
160	150
161	70
171	130
173	20
185	180
186	20
187	4194
188	711
189	360
190	30
201	100
203	20
213	631
214	110
215	891
216	130
217	9999
218	1802
219	510
220	40
243	3093
244	591
245	280
246	50
