Mass Spectrum: Fumaric acid, ethyl 4-phenylphenyl ester
Formula: C18 H16 O4
Molecular weight: 296
Origin: V.G. Zaikin, R.S.Borisov, TIPS RAS, Moscow, Russia
m/z	RELATIVE INTENSITY
27	20
29	50
39	20
41	40
45	20
51	20
53	30
54	60
55	500
56	40
57	50
63	50
65	20
71	40
73	110
75	30
76	80
77	90
81	80
82	120
88	20
89	60
91	30
99	2112
100	120
101	591
102	80
113	50
114	60
115	921
116	100
126	40
127	4434
128	350
129	290
131	20
139	390
140	100
141	1031
142	160
150	10
151	80
152	300
153	140
154	20
155	641
156	50
165	40
167	30
168	30
169	581
170	9999
171	1181
172	80
178	40
179	30
181	20
198	350
199	50
223	350
224	60
251	581
252	100
253	90
296	1481
297	310
298	50
