Mass Spectrum: Fumaric acid, di(2-heptyl) ester
Formula: C18 H32 O4
Molecular weight: 312
Origin: V.G. Zaikin, R.S.Borisov, TIPS RAS, Moscow, Russia
m/z	RELATIVE INTENSITY
26	70
27	260
29	310
39	160
40	20
41	711
42	200
43	641
45	80
53	130
54	340
55	1161
56	1031
57	1792
58	100
67	40
68	80
69	571
70	500
71	120
72	50
81	250
82	621
83	150
96	40
97	240
98	1551
99	3823
100	1481
101	110
111	20
113	20
114	30
115	290
116	30
117	931
118	90
123	20
124	40
125	300
126	50
129	20
140	20
141	30
142	200
143	110
151	30
152	200
153	50
154	20
155	30
168	60
169	130
170	160
171	90
196	50
197	9999
198	1041
199	130
214	20
215	360
216	40
269	20
