Mass Spectrum: Fumaric acid, butyl 2-heptyl ester
Formula: C15 H26 O4
Molecular weight: 270
Origin: V.G. Zaikin, R.S.Borisov, TIPS RAS, Moscow, Russia
m/z	RELATIVE INTENSITY
26	150
27	540
29	751
30	30
31	70
39	260
40	40
41	1401
42	330
43	1011
45	60
53	210
54	520
55	1672
56	2052
57	2102
58	110
67	80
68	180
69	901
70	871
71	180
72	80
73	40
81	380
82	711
83	340
84	90
85	30
95	20
96	40
97	280
98	1892
99	2532
100	1451
101	100
109	40
111	50
112	20
113	30
114	80
115	80
117	1932
118	90
123	20
124	70
125	380
126	60
127	150
128	20
142	30
151	20
152	160
153	50
154	50
155	9999
156	1321
157	150
168	20
169	70
170	100
172	20
173	771
174	90
197	1221
198	160
199	20
215	130
227	30
