Mass Spectrum: Fumaric acid, di(2,3-dimethylphenyl) ester
Formula: C20 H20 O4
Molecular weight: 324
Origin: V.G. Zaikin, R.S.Borisov, TIPS RAS, Moscow, Russia
m/z	RELATIVE INTENSITY
26	100
27	110
39	300
40	40
41	140
50	60
51	230
52	110
53	380
54	520
62	20
63	120
64	40
65	350
66	50
67	520
74	20
75	20
76	20
77	1581
78	440
79	480
80	30
82	1071
89	60
90	20
91	1641
92	260
93	180
94	50
102	50
103	450
104	220
105	2152
106	200
107	961
108	80
115	210
116	180
117	130
118	40
119	831
120	160
121	1101
122	6306
123	540
124	30
128	60
129	180
130	200
131	310
132	180
133	40
145	100
146	200
147	380
148	40
159	40
160	130
161	170
162	40
163	20
173	60
174	400
175	9999
176	1091
177	100
187	90
188	20
201	20
202	110
203	9118
204	1091
205	150
324	440
325	90
326	40
