Mass Spectrum: Fumaric acid, di(3,3-dimethylbut-2-yl) ester
Formula: C16 H28 O4
Molecular weight: 284
Origin: V.G. Zaikin, R.S.Borisov, TIPS RAS, Moscow, Russia
m/z	RELATIVE INTENSITY
26	180
27	440
29	741
39	430
40	70
41	2272
42	220
43	2602
44	90
45	130
53	250
54	901
55	1081
56	190
57	4034
58	190
59	20
67	110
68	30
69	1561
70	280
71	120
72	50
81	250
82	1712
83	250
84	1011
85	7787
86	540
87	110
95	70
97	20
98	20
99	5485
100	9999
101	791
102	90
109	90
111	20
115	30
123	50
127	30
137	130
141	20
144	20
145	50
147	10
155	120
156	30
165	90
182	20
183	8037
184	2692
185	340
186	30
200	40
201	60
228	30
229	230
230	20
269	450
270	70
