Mass Spectrum: Fumaric acid, decyl 3-hexyl ester
Formula: C20 H36 O4
Molecular weight: 340
Origin: V.G. Zaikin, R.S.Borisov, TIPS RAS, Moscow, Russia
m/z	RELATIVE INTENSITY
25	20
26	250
27	911
29	1241
30	30
31	70
39	530
40	110
41	2993
42	1391
43	5665
44	340
45	90
51	20
53	430
54	1141
55	5985
56	2983
57	3823
58	210
59	130
65	30
66	40
67	561
68	621
69	5015
70	1611
71	2442
72	260
73	100
77	20
79	30
80	40
81	971
82	2552
83	5885
84	5775
85	4824
86	330
93	40
94	40
95	290
96	360
97	3513
98	651
99	5025
100	5665
101	1201
102	90
105	20
107	20
108	20
109	200
110	230
111	530
112	440
113	190
114	70
115	30
116	30
117	4214
118	981
119	240
121	20
122	20
123	80
124	140
125	110
126	140
127	160
128	170
129	120
130	50
136	70
137	130
138	340
139	260
140	330
141	1111
142	210
143	170
144	50
145	30
150	40
151	40
152	90
153	240
154	310
155	430
156	110
157	701
158	70
159	110
160	20
164	60
165	40
166	40
167	50
168	60
169	80
170	50
171	571
172	90
173	60
178	30
179	20
181	90
182	230
183	1251
184	220
185	40
187	20
192	20
193	60
194	20
195	60
196	50
197	140
198	20
199	40
201	1071
202	130
209	40
210	110
211	130
212	20
220	70
221	20
227	20
238	220
239	9999
240	2022
241	320
242	30
257	681
258	110
259	10
269	80
270	60
283	70
284	20
