Mass Spectrum: Fumaric acid, butyl dec-4-enyl ester
Formula: C18 H30 O4
Molecular weight: 310
Origin: L.N.Kulikova, V.G. Zaikin, RPFU, Moscow, Russia
m/z	RELATIVE INTENSITY
25	20
26	240
27	861
29	1421
30	30
31	40
39	651
40	110
41	3113
42	370
43	661
45	70
51	30
53	721
54	3743
55	3493
56	811
57	891
58	30
65	150
66	460
67	5005
68	9999
69	1732
70	20
71	1341
72	130
77	160
78	30
79	781
80	370
81	7567
82	4574
83	821
84	20
91	100
93	160
94	90
95	3533
96	3503
97	581
98	30
99	2142
100	931
101	40
107	30
108	30
109	1852
110	2412
111	140
117	550
118	20
123	140
127	130
136	30
137	210
138	3143
139	350
155	1241
156	791
157	70
173	380
174	30
181	711
182	70
208	20
209	811
210	110
236	90
237	60
