Mass Spectrum: Fumaric acid, dec-4-enyl hexyl ester
Formula: C20 H34 O4
Molecular weight: 338
Origin: L.N.Kulikova, V.G. Zaikin, RPFU, Moscow, Russia
m/z	RELATIVE INTENSITY
25	20
26	200
27	751
29	961
30	20
31	20
39	530
40	100
41	2652
42	691
43	2472
45	50
51	30
53	621
54	3393
55	3853
56	1011
57	360
65	130
66	450
67	4514
68	9999
69	2142
70	90
71	1061
72	100
77	150
78	30
79	731
80	380
81	7106
82	4884
83	1391
84	300
85	310
86	20
91	40
93	150
94	110
95	3573
96	3924
97	781
98	50
99	1772
100	1051
101	100
107	40
108	40
109	2002
110	2582
111	170
117	440
118	20
123	180
137	210
138	3803
139	450
143	20
153	30
154	20
155	90
157	20
181	370
182	50
183	661
184	621
185	60
201	280
202	30
208	20
209	420
210	50
236	90
237	40
295	40
