Mass Spectrum: Fumaric acid, propyl trans-hex-3-enyl ester
Formula: C13 H20 O4
Molecular weight: 240
Origin: L.N.Kulikova, V.G. Zaikin, RPFU, Moscow, Russia
m/z	RELATIVE INTENSITY
26	260
27	811
29	60
30	30
31	50
39	460
40	70
41	1561
42	250
43	691
45	120
51	30
53	440
54	871
55	1391
56	100
57	80
59	30
65	90
66	80
67	5865
68	410
69	370
70	30
71	230
72	60
77	20
79	60
80	40
81	1001
82	9999
83	1031
84	40
85	20
91	30
93	30
95	40
97	30
98	50
99	2522
100	400
101	40
107	60
109	130
111	40
113	60
117	470
118	20
123	10
135	50
141	3023
142	280
143	30
153	30
159	80
181	891
182	90
