Mass Spectrum: Silane, dimethyl(but-2-enyloxy)pentadecyloxy-
Formula: C21 H44 O2 Si
Molecular weight: 356
Origin: V.G. Zaikin, R.S.Borisov, TIPS RAS, Moscow, Russia
m/z	RELATIVE INTENSITY
26	70
27	260
29	581
39	410
40	70
41	1591
42	350
43	2362
45	170
47	120
51	30
53	220
54	450
55	3453
56	581
57	2342
58	120
59	360
60	50
61	571
62	20
63	130
66	70
67	911
68	911
69	2452
70	420
71	1281
72	40
73	40
74	100
75	9789
76	691
77	5815
78	300
79	210
80	70
81	1001
82	1421
83	2762
84	330
85	761
86	40
87	180
88	70
89	1712
90	140
91	781
92	20
93	871
94	90
95	1131
96	1191
97	2172
98	240
99	390
100	30
101	1011
102	80
103	500
104	30
105	771
106	40
107	50
109	621
110	390
111	851
112	120
113	691
114	110
115	2262
116	230
117	951
118	70
119	120
121	20
123	320
124	240
125	210
126	40
127	220
128	530
129	2342
130	300
131	2582
132	260
133	2082
134	190
135	80
137	140
138	100
139	40
141	160
143	510
144	100
145	9999
146	1702
147	621
148	40
149	280
150	20
152	60
155	50
157	200
158	30
159	7917
160	981
161	1271
162	110
165	20
166	30
169	30
171	120
173	170
174	40
180	70
183	20
185	90
187	2322
188	330
189	60
193	20
199	40
201	180
202	20
207	100
208	280
209	50
213	20
225	110
227	20
229	90
241	20
243	320
244	40
257	60
267	20
269	430
270	50
271	30
281	140
283	40
285	851
286	170
287	180
299	80
301	40
311	60
313	3623
314	771
315	190
341	4374
342	1041
343	130
355	160
356	1231
357	360
358	50
