Mass Spectrum: Fumaric acid, 2-heptyl tridecyl ester
Formula: C24 H44 O4
Molecular weight: 396
Origin: V.G. Zaikin, R.S.Borisov, TIPS RAS, Moscow, Russia
m/z	RELATIVE INTENSITY
25	20
26	230
27	761
29	1191
30	20
31	20
39	581
40	100
41	3513
42	1101
43	5165
45	160
50	20
51	40
53	410
54	1131
55	6536
56	4564
57	9999
58	540
59	30
65	40
66	80
67	911
68	1081
69	7066
70	3433
71	2953
72	260
73	110
74	20
77	30
79	110
80	80
81	1091
82	2532
83	5805
84	1271
85	2002
86	140
87	20
91	40
93	70
94	70
95	611
96	1001
97	5405
98	6186
99	5275
100	6976
101	1361
102	100
105	30
107	50
108	60
109	380
110	490
111	2873
112	611
113	601
114	140
115	280
116	200
117	4574
118	2012
119	821
120	50
121	50
122	70
123	360
124	490
125	2072
126	450
127	440
128	70
129	30
131	10
135	30
136	80
137	270
138	270
139	380
140	260
141	420
142	190
143	110
144	20
145	20
149	30
150	100
151	210
152	691
153	641
154	510
155	370
156	120
157	721
158	80
159	30
163	20
164	60
165	80
166	140
167	120
168	330
169	470
170	240
171	1021
172	190
173	80
177	20
178	90
179	110
180	701
181	320
182	410
183	841
184	160
185	40
186	30
187	20
192	30
193	30
194	60
195	170
196	220
197	1511
198	330
199	300
200	50
201	40
205	20
209	160
210	100
211	100
212	60
213	70
214	20
215	1431
216	190
217	40
220	60
221	40
223	200
224	140
225	110
226	60
227	70
234	40
235	100
236	40
237	240
238	240
239	320
240	50
241	60
251	160
252	320
253	170
254	40
255	100
262	160
263	50
269	50
270	20
279	40
280	771
281	4064
282	1071
283	150
296	50
297	50
298	210
299	811
300	160
301	30
352	60
353	100
354	10
