Mass Spectrum: Fumaric acid, isohexyl trans-hex-3-enyl ester
Formula: C16 H26 O4
Molecular weight: 282
Origin: L.N.Kulikova, V.G. Zaikin, RPFU, Moscow, Russia
m/z	RELATIVE INTENSITY
26	110
27	300
29	260
30	20
39	300
40	40
41	1311
42	160
43	1251
45	20
51	20
53	240
54	550
55	2162
56	250
57	90
65	60
66	60
67	3984
68	230
69	470
71	50
72	30
77	20
79	60
80	40
81	731
82	9999
83	2052
84	751
85	781
86	40
93	20
95	20
99	1501
100	430
101	30
107	50
109	100
117	520
118	20
135	30
153	20
180	40
181	230
182	40
183	841
184	90
199	40
201	20
267	20
