Mass Spectrum: Fumaric acid, heptyl tridecyl ester
Formula: C24 H44 O4
Molecular weight: 396
Origin: L.N.Kulikova, V.G. Zaikin, RPFU, Moscow, Russia
m/z	RELATIVE INTENSITY
25	20
26	210
27	731
28	480
29	1221
30	60
31	40
36	30
39	520
40	130
41	3333
42	1281
43	5315
44	440
45	70
50	20
51	30
53	320
54	961
55	6516
56	3743
57	9999
58	440
65	40
66	80
67	931
68	1301
69	5435
70	3483
71	2943
72	210
73	120
74	20
77	30
79	130
80	70
81	791
82	1591
83	4024
84	1712
85	2012
86	140
87	30
91	70
92	20
93	50
94	60
95	460
96	961
97	3303
98	1892
99	2672
100	3723
101	1922
102	110
103	20
105	20
107	40
108	50
109	290
110	430
111	1441
112	520
113	480
114	90
115	60
116	40
117	4164
118	711
119	641
120	30
121	40
122	50
123	270
124	310
125	581
126	300
127	360
128	80
129	70
131	20
133	20
135	40
136	140
137	230
138	220
139	550
140	250
141	240
142	70
143	80
145	50
147	20
149	30
150	70
151	180
152	270
153	651
154	440
155	350
156	80
157	240
158	30
163	30
164	40
165	80
166	130
167	120
168	240
169	400
170	110
171	120
172	20
173	50
177	20
178	80
179	80
180	200
181	170
182	370
183	410
184	70
185	70
187	110
188	30
189	20
191	20
192	30
193	30
194	60
195	130
196	170
197	961
198	631
199	230
200	30
201	30
205	20
206	20
207	40
208	20
209	110
210	70
211	120
212	30
213	20
215	1351
216	350
217	230
218	20
220	30
221	60
223	140
224	70
225	90
226	30
227	20
229	30
234	20
235	50
236	20
237	150
238	100
239	430
240	70
241	40
243	20
251	110
252	130
253	130
254	40
255	180
256	20
257	20
262	70
263	20
265	30
269	150
270	30
279	30
280	260
281	230
282	120
283	60
297	20
299	500
300	100
301	20
311	20
325	50
339	100
353	20
396	20
