Mass Spectrum: Fumaric acid, 3,3-dimethylbut-2-yl dodecyl ester
Formula: C22 H40 O4
Molecular weight: 368
Origin: V.G. Zaikin, R.S.Borisov, TIPS RAS, Moscow, Russia
m/z	RELATIVE INTENSITY
25	30
26	320
27	931
29	1641
30	30
31	30
39	651
40	160
41	4394
42	871
43	6786
44	410
45	140
50	20
51	30
53	360
54	961
55	4724
56	1752
57	7377
58	320
59	20
65	30
66	50
67	601
68	591
69	5175
70	1381
71	1481
72	180
73	60
77	20
79	40
80	40
81	450
82	1912
83	2963
84	3613
85	9999
86	641
87	50
91	20
93	30
94	20
95	220
96	320
97	2392
98	480
99	2833
100	8097
101	891
102	80
107	10
109	130
110	160
111	1151
112	230
113	160
114	20
117	601
118	571
119	190
123	90
124	90
125	230
126	90
127	110
128	20
137	70
138	90
139	110
140	110
141	100
142	20
143	20
145	150
151	20
152	40
153	120
154	110
155	170
156	40
157	270
158	20
164	20
165	30
166	190
167	60
168	110
169	100
170	20
171	360
172	50
173	30
181	40
182	70
183	420
184	60
185	100
195	40
196	20
197	20
199	20
201	410
202	30
209	30
210	20
211	20
221	20
223	20
224	30
225	50
237	20
238	60
239	40
248	20
266	140
267	811
268	2853
269	450
270	40
284	40
285	30
313	90
353	170
354	20
