Mass Spectrum: Fumaric acid, 3,3-dimethylbut-2-yl pentadecyl ester
Formula: C25 H46 O4
Molecular weight: 410
Origin: V.G. Zaikin, R.S.Borisov, TIPS RAS, Moscow, Russia
m/z	RELATIVE INTENSITY
26	170
27	490
29	881
30	30
39	410
40	90
41	2622
42	540
43	4874
44	260
45	80
51	20
53	220
54	601
55	3123
56	1131
57	5165
58	230
65	20
66	40
67	530
68	490
69	3673
70	951
71	1521
72	140
73	50
77	20
79	50
80	40
81	440
82	1421
83	2742
84	3513
85	9999
86	691
87	40
91	20
93	30
94	30
95	300
96	410
97	2242
98	390
99	2232
100	6686
101	831
102	80
107	20
108	20
109	180
110	200
111	1121
112	230
113	180
114	30
115	20
117	731
118	731
119	350
120	20
121	20
122	20
123	130
124	140
125	480
126	140
127	160
128	30
129	20
135	10
136	20
137	110
138	110
139	220
140	90
141	150
142	30
143	30
144	20
145	160
150	20
151	60
152	100
153	210
154	140
155	190
156	50
157	280
158	20
164	20
165	50
166	70
167	70
168	80
169	70
170	20
171	450
172	70
173	30
178	20
179	30
180	80
181	80
182	140
183	460
184	90
185	30
188	150
189	20
193	10
194	20
195	70
196	60
197	60
199	30
201	550
202	60
205	100
206	20
208	260
209	110
210	100
211	140
212	30
213	20
223	60
224	60
225	100
226	20
227	110
237	90
238	80
239	40
240	20
241	30
248	20
249	20
251	100
252	110
253	40
254	20
255	30
263	50
265	80
266	160
267	110
268	20
269	20
279	40
280	140
281	40
290	70
291	40
308	440
309	631
310	3703
311	821
312	100
326	130
327	70
355	130
356	30
373	30
395	380
396	100
