Mass Spectrum: Fumaric acid, isobutyl 3-methylbut-3-enyl ester
Formula: C13 H20 O4
Molecular weight: 240
Origin: L.N.Kulikova, V.G. Zaikin, RPFU, Moscow, Russia
m/z	RELATIVE INTENSITY
26	150
27	380
29	440
30	20
39	380
40	170
41	1511
42	70
43	20
53	390
54	530
55	180
56	170
57	991
58	30
65	20
66	30
67	1311
68	9999
69	3523
70	50
71	80
72	10
81	260
82	500
93	60
99	1631
100	200
101	40
109	100
117	160
121	40
138	50
155	2192
156	180
157	20
166	30
167	100
173	60
225	20
