Mass Spectrum: Fumaric acid, heptyl myrtenyl ester
Formula: C21 H32 O4
Molecular weight: 348
Origin: L.N.Kulikova, V.G. Zaikin, RPFU, Moscow, Russia
m/z	RELATIVE INTENSITY
26	70
27	240
28	50
29	130
39	260
40	50
41	1041
42	230
43	901
44	90
45	40
50	50
51	80
52	40
53	240
54	210
55	1231
56	440
57	1361
58	60
63	30
65	170
66	60
67	250
68	190
69	510
70	240
71	100
72	50
73	30
77	530
78	390
79	1091
80	140
81	330
82	260
83	130
84	60
85	60
91	9999
92	3793
93	1291
94	130
95	110
96	60
97	180
98	80
99	1121
100	1171
101	130
102	20
103	90
104	70
105	901
106	500
107	430
108	110
109	130
110	20
111	40
112	20
115	130
116	30
117	530
118	110
119	4134
120	440
121	230
122	20
123	50
127	20
129	30
131	60
132	60
133	260
134	2783
135	571
136	60
137	20
139	20
145	40
147	30
149	40
151	110
152	50
155	30
157	40
159	20
161	150
162	100
163	30
170	20
171	20
183	20
188	20
189	20
197	360
198	120
205	20
215	30
