Mass Spectrum: Fumaric acid, 2-ethylbutyl undecyl ester
Formula: C21 H38 O4
Molecular weight: 354
Origin: V.G. Zaikin, R.S.Borisov, TIPS RAS, Moscow, Russia
m/z	RELATIVE INTENSITY
25	20
26	290
27	861
28	450
29	1131
30	80
31	50
38	20
39	540
40	140
41	3303
42	1241
43	7407
44	440
45	70
50	20
51	30
53	350
54	961
55	5745
56	3253
57	3543
58	150
59	50
65	30
66	50
67	611
68	721
69	5655
70	1972
71	1942
72	240
73	70
77	40
79	100
80	40
81	631
82	1822
83	3203
84	9999
85	7227
86	460
87	20
91	40
93	40
94	30
95	300
96	480
97	2552
98	611
99	2803
100	4784
101	761
102	70
107	20
108	20
109	200
110	250
111	871
112	270
113	220
114	80
115	30
117	2692
118	791
119	380
122	20
123	110
124	170
125	280
126	320
127	150
128	30
129	30
131	100
135	20
136	40
137	110
138	80
139	170
140	110
141	190
142	40
143	30
144	20
150	20
151	70
152	270
153	320
154	430
155	390
156	50
157	310
158	50
164	30
165	40
166	60
167	40
168	60
169	150
170	50
171	290
172	50
179	20
181	80
182	170
183	1401
184	340
185	50
193	20
195	70
196	20
197	30
199	30
201	1011
202	150
203	20
209	50
210	20
211	160
223	40
224	80
225	130
234	40
241	50
252	130
253	500
254	250
255	80
271	110
285	20
325	50
