Mass Spectrum: Fumaric acid, butyl 2-ethylbutyl ester
Formula: C14 H24 O4
Molecular weight: 256
Origin: V.G. Zaikin, R.S.Borisov, TIPS RAS, Moscow, Russia
m/z	RELATIVE INTENSITY
39	120
40	20
41	711
42	340
43	1932
44	170
45	70
50	20
51	10
52	20
53	350
54	891
55	2552
56	2913
57	1601
58	70
59	70
67	100
68	70
69	3313
70	400
71	480
72	250
73	60
81	661
82	1461
83	330
84	9999
85	2903
86	270
87	20
95	30
96	20
97	100
98	90
99	4734
100	4194
101	310
102	30
105	20
109	130
110	30
111	50
112	50
113	70
114	40
117	2923
118	170
119	40
123	20
124	20
125	90
126	90
127	300
128	70
131	170
137	90
139	20
141	40
142	20
143	20
153	30
154	170
155	7937
156	1722
157	190
164	20
172	30
173	460
174	40
182	40
183	4114
184	480
185	50
187	30
201	661
202	70
227	110
