Mass Spectrum: Fumaric acid, 3-hexyl undecyl ester
Formula: C21 H38 O4
Molecular weight: 354
Origin: V.G. Zaikin, R.S.Borisov, TIPS RAS, Moscow, Russia
m/z	RELATIVE INTENSITY
25	20
26	220
27	991
29	1391
30	30
31	70
38	20
39	631
40	140
41	3673
42	1631
43	7247
44	410
45	110
51	30
53	520
54	1391
55	7957
56	3493
57	5075
58	260
59	180
65	40
66	60
67	851
68	871
69	7036
70	1972
71	3273
72	350
73	140
77	30
79	50
80	50
81	1261
82	3273
83	6756
84	7557
85	6226
86	430
87	20
91	50
93	50
94	60
95	520
96	661
97	7176
98	1101
99	6496
100	7837
101	1702
102	130
107	40
108	40
109	340
110	360
111	2042
112	480
113	540
114	120
115	50
116	40
117	6005
118	1762
119	430
120	30
121	30
122	40
123	210
124	380
125	350
126	460
127	270
128	200
129	170
130	70
131	20
136	120
137	220
138	150
139	290
140	190
141	380
142	170
143	210
144	80
145	20
149	20
150	50
151	90
152	571
153	480
154	731
155	1661
156	300
157	761
158	90
159	110
160	10
164	100
165	80
166	100
167	90
168	120
169	280
170	90
171	1151
172	170
173	110
174	20
178	30
179	40
180	40
181	150
182	340
183	1611
184	310
185	60
186	20
187	50
192	40
193	40
195	160
196	80
197	110
198	50
199	80
200	30
201	1541
202	180
203	20
206	40
207	60
208	20
209	100
210	80
211	230
212	40
213	60
223	110
224	220
225	180
226	40
227	50
234	120
235	30
237	20
241	80
251	20
252	440
253	9999
254	2072
255	290
256	40
269	20
270	130
271	1061
272	190
273	20
283	90
284	70
285	30
297	80
298	30
