Mass Spectrum: Fumaric acid, decyl 4-heptyl ester
Formula: C21 H38 O4
Molecular weight: 354
Origin: V.G. Zaikin, R.S.Borisov, TIPS RAS, Moscow, Russia
m/z	RELATIVE INTENSITY
25	20
26	180
27	631
29	641
30	30
31	30
37	20
39	350
40	60
41	2222
42	611
43	2712
45	50
51	20
53	270
54	691
55	4014
56	2432
57	4724
58	210
59	20
65	20
66	30
67	390
68	440
69	3743
70	1812
71	1551
72	190
73	80
77	20
79	70
80	30
81	631
82	1581
83	4144
84	661
85	1201
86	80
93	40
94	30
95	220
96	260
97	2552
98	3793
99	3393
100	4154
101	701
102	50
105	20
107	20
108	40
109	130
110	160
111	320
112	250
113	140
114	90
115	270
116	40
117	1932
118	611
119	160
121	40
122	20
123	80
124	160
125	100
126	130
127	140
128	20
136	60
137	60
138	260
139	170
140	210
141	931
142	170
143	240
144	90
145	10
150	50
151	80
152	80
153	180
154	140
155	170
156	40
157	520
158	50
165	20
166	30
167	20
168	110
169	190
170	60
171	470
172	70
173	20
178	50
179	30
181	70
182	70
183	40
184	20
185	20
193	30
194	20
195	60
196	110
197	881
198	130
199	40
209	40
210	90
211	90
215	631
216	70
220	50
238	210
239	9999
240	2112
241	280
255	30
256	50
257	621
258	110
283	170
284	110
