Mass Spectrum: Fumaric acid, 2,4-dimethylpent-3-yl ethyl ester
Formula: C13 H22 O4
Molecular weight: 242
Origin: V.G. Zaikin, R.S.Borisov, TIPS RAS, Moscow, Russia
m/z	RELATIVE INTENSITY
26	140
27	490
29	540
39	130
40	20
41	510
42	50
43	741
44	60
45	100
53	200
54	370
55	661
56	160
57	470
58	20
67	20
69	40
70	20
71	230
72	60
73	100
81	170
82	430
83	631
84	30
97	160
98	220
99	1181
100	320
101	20
114	20
115	50
117	30
125	20
127	9999
128	1491
129	120
142	20
145	30
170	60
171	130
172	70
197	300
198	30
199	520
200	50
