Mass Spectrum: Silane, dimethyl(3-methylbut-3-enyloxy)pentyloxy-
Formula: C12 H26 O2 Si
Molecular weight: 230
Origin: V.G. Zaikin, R.S.Borisov, TIPS RAS, Moscow, Russia
m/z	RELATIVE INTENSITY
26	10
27	130
29	230
30	10
39	190
40	40
41	571
42	80
43	510
45	420
46	10
47	280
53	100
54	10
55	170
57	30
58	300
59	791
60	110
61	571
62	30
63	60
64	100
65	10
67	170
68	230
69	1141
70	80
71	230
72	60
73	60
74	130
75	5305
76	390
77	1732
78	90
79	90
81	10
83	10
85	300
86	40
87	290
88	300
89	4694
90	390
91	270
93	10
97	180
98	20
99	360
100	30
101	1672
102	150
103	1081
104	90
105	410
106	20
107	210
109	30
111	100
112	10
113	591
114	90
115	350
116	30
117	330
118	30
119	1371
120	110
121	20
125	60
126	10
127	651
128	80
129	1131
130	110
131	160
132	10
141	20
142	40
143	2742
144	340
145	7937
146	1031
147	881
148	80
159	410
160	50
161	120
171	10
173	2002
174	230
175	9999
176	1291
177	380
178	20
185	300
186	30
187	20
201	651
202	90
203	20
215	2192
216	330
217	80
230	400
231	60
