Mass Spectrum: Fumaric acid, cis-non-3-enyl isobutyl ester
Formula: C17 H28 O4
Molecular weight: 296
Origin: L.N.Kulikova, V.G. Zaikin, RPFU, Moscow, Russia
m/z	RELATIVE INTENSITY
25	20
26	320
27	1011
29	1752
30	60
39	891
40	180
41	3693
42	470
43	611
45	60
51	30
53	791
54	9999
55	3823
56	791
57	2813
58	130
65	200
66	490
67	6376
68	7577
69	2692
70	90
72	100
73	30
77	140
79	400
80	440
81	6736
82	8548
83	1121
91	70
93	190
94	120
95	5335
96	5085
99	5135
100	1401
101	160
105	20
107	100
109	881
110	40
117	460
119	20
121	50
122	30
123	2542
124	8047
125	731
127	110
135	40
149	70
151	30
153	30
155	3914
156	420
157	40
159	40
163	30
165	30
167	30
169	40
177	120
179	30
195	340
205	70
223	500
224	70
281	110
