Mass Spectrum: Fumaric acid, butyl 2-decyl ester
Formula: C18 H32 O4
Molecular weight: 312
Origin: V.G. Zaikin, R.S.Borisov, TIPS RAS, Moscow, Russia
m/z	RELATIVE INTENSITY
26	140
27	561
29	871
30	10
31	20
39	290
40	50
41	1601
42	430
43	1561
45	60
53	230
54	530
55	2102
56	1742
57	1892
58	120
67	170
68	180
69	1131
70	1111
71	651
72	100
73	50
81	430
82	891
83	951
84	731
85	520
86	30
95	70
96	200
97	1231
98	651
99	2662
100	1702
101	160
109	60
110	70
111	591
112	380
113	60
114	110
115	50
117	2132
118	130
119	30
123	50
124	90
125	60
126	40
127	190
128	20
137	70
138	60
139	40
140	1071
141	150
142	30
152	30
153	60
154	60
155	9999
156	1461
157	210
165	20
166	20
167	300
168	50
169	20
170	80
171	30
172	30
173	971
174	180
175	30
183	20
193	30
194	20
197	100
198	60
210	20
211	70
212	30
227	50
239	671
240	100
241	20
257	110
