Mass Spectrum: D-Alanine, N-(4-anisoyl)-, hexyl ester
Formula: C17 H25 N O4
Molecular weight: 307
Origin: V.G. Zaikin, R.S.Borisov, TIPS RAS, Moscow, Russia
m/z	RELATIVE INTENSITY
27	40
28	20
29	50
39	30
41	90
42	50
43	150
44	100
51	50
55	30
56	20
63	30
64	50
65	20
76	40
77	641
78	70
79	30
92	270
93	20
105	70
120	80
121	90
133	20
134	40
135	9999
136	881
137	60
174	30
178	2953
179	350
180	30
206	60
307	50
