Mass Spectrum: Fumaric acid, decyl 2-ethylbutyl ester
Formula: C20 H36 O4
Molecular weight: 340
Origin: V.G. Zaikin, R.S.Borisov, TIPS RAS, Moscow, Russia
m/z	RELATIVE INTENSITY
26	200
27	651
29	861
30	60
31	40
39	480
40	110
41	2803
42	1151
43	6496
44	400
45	70
50	20
51	40
52	20
53	370
54	911
55	5095
56	3203
57	3073
58	140
59	50
65	30
66	40
67	520
68	641
69	5245
70	2072
71	1682
72	210
73	50
77	40
79	100
80	30
81	540
82	1672
83	3373
84	9999
85	6776
86	450
87	20
91	30
93	30
94	30
95	240
96	340
97	1782
98	561
99	3033
100	4814
101	691
102	50
107	30
108	20
109	200
110	220
111	581
112	470
113	160
114	60
115	20
117	2672
118	701
119	290
121	20
122	30
123	70
124	50
125	110
126	120
127	130
128	30
129	20
130	20
131	100
135	20
136	50
137	120
138	230
139	200
140	390
141	240
142	50
143	30
150	20
151	40
152	80
153	270
154	210
155	320
156	70
157	370
158	40
164	30
165	40
166	30
167	50
168	50
169	60
170	30
171	240
172	40
173	20
179	30
181	90
182	160
183	1471
184	350
185	50
193	40
195	50
197	170
198	20
199	20
201	1111
202	160
203	20
209	30
210	80
211	100
220	40
225	30
227	20
238	130
239	911
240	410
241	140
257	150
271	20
311	100
