Mass Spectrum: Malonic acid, heptyl 3-methylpentyl ester
Formula: C16 H30 O4
Molecular weight: 286
Origin: V.G. Zaikin, R.S.Borisov, TIPS RAS, Moscow, Russia
m/z	RELATIVE INTENSITY
26	30
27	300
29	831
30	30
39	250
40	60
41	1792
42	851
43	3363
45	30
53	120
54	270
55	2913
56	2412
57	5225
58	200
60	110
61	130
67	200
68	310
69	2983
70	1331
81	90
82	40
83	350
84	3573
85	9489
86	711
87	1351
88	50
89	40
96	30
97	150
98	490
99	170
100	40
101	90
102	20
104	50
105	9999
106	360
107	80
113	20
114	80
115	60
118	30
125	50
131	80
132	310
133	140
141	30
143	10
159	210
171	300
172	20
185	290
186	20
189	661
190	60
203	591
204	50
215	30
229	430
230	60
257	140
