Mass Spectrum: Fumaric acid, di(3-heptyl) ester
Formula: C18 H32 O4
Molecular weight: 312
Origin: V.G. Zaikin, R.S.Borisov, TIPS RAS, Moscow, Russia
m/z	RELATIVE INTENSITY
26	90
27	320
29	450
31	20
39	150
40	20
41	751
42	110
43	380
45	30
53	140
54	410
55	1301
56	691
57	1521
58	90
59	60
67	40
68	40
69	480
70	310
71	100
72	40
81	290
82	831
83	100
87	80
96	20
97	170
98	951
99	5315
100	1161
101	80
109	20
111	180
112	30
113	10
115	360
116	30
117	631
118	50
123	30
128	100
129	110
130	30
138	150
139	50
140	20
151	20
155	20
156	90
157	210
158	20
168	40
169	70
170	20
185	200
186	20
196	40
197	9999
198	1101
199	120
215	210
216	20
