Mass Spectrum: Fumaric acid, 2-methylpentyl octyl ester
Formula: C18 H32 O4
Molecular weight: 312
Origin: V.G. Zaikin, R.S.Borisov, TIPS RAS, Moscow, Russia
m/z	RELATIVE INTENSITY
26	140
27	500
29	591
30	20
31	40
39	300
40	20
41	1782
42	480
43	2712
45	70
53	230
54	681
55	2582
56	921
57	1672
58	100
59	110
66	20
67	220
68	200
69	4614
70	811
71	1281
72	130
73	40
81	440
82	1551
83	771
84	4074
85	3163
86	220
95	50
97	180
98	20
99	2452
100	3373
101	561
102	40
109	40
110	110
111	210
112	250
113	500
114	170
115	30
117	350
118	160
119	20
123	20
125	20
126	40
127	30
128	50
129	170
130	20
137	50
138	20
139	50
140	20
141	50
142	490
143	250
144	30
153	50
154	80
155	140
156	30
157	190
165	20
169	30
171	160
172	20
183	621
184	80
192	10
201	320
202	30
210	50
211	9999
212	1742
213	200
229	110
230	20
241	60
242	20
254	20
255	80
256	50
283	110
