Mass Spectrum: Fumaric acid, 3-methylbut-3-enyl undecyl ester
Formula: C20 H34 O4
Molecular weight: 338
Origin: L.N.Kulikova, V.G. Zaikin, RPFU, Moscow, Russia
m/z	RELATIVE INTENSITY
26	70
27	220
29	310
39	210
40	90
41	1281
42	230
43	981
53	260
54	280
55	1331
56	400
57	741
58	30
65	20
66	30
67	911
68	9999
69	3713
70	681
71	410
72	30
81	240
82	450
83	781
84	200
85	200
93	40
95	90
96	70
97	691
98	120
99	711
100	400
101	110
109	80
110	40
111	180
112	50
113	30
117	220
118	40
121	20
123	30
124	30
125	30
126	70
127	20
128	20
138	70
139	40
140	20
141	40
152	40
153	50
154	50
155	30
157	50
166	50
167	40
168	50
169	40
171	70
185	20
211	20
225	30
226	20
252	20
253	140
254	20
271	30
