Mass Spectrum: Fumaric acid, butyl myrtenyl ester
Formula: C18 H26 O4
Molecular weight: 306
Origin: L.N.Kulikova, V.G. Zaikin, RPFU, Moscow, Russia
m/z	RELATIVE INTENSITY
26	80
27	230
28	80
29	220
31	20
38	30
39	210
40	50
41	701
42	60
43	420
44	50
45	30
50	30
51	50
52	40
53	230
54	130
55	440
56	230
57	440
58	20
63	20
65	130
66	60
67	210
68	100
69	260
70	40
71	70
72	30
77	440
78	330
79	891
80	180
81	300
82	250
83	90
85	20
89	20
90	20
91	9999
92	3523
93	1431
94	150
95	130
96	40
97	50
98	30
99	2082
100	1211
101	90
102	20
103	140
104	80
105	1101
106	571
107	561
108	100
109	210
110	20
111	30
115	140
116	50
117	821
118	120
119	5595
120	641
121	400
122	50
123	90
127	40
128	20
129	40
131	80
132	80
133	420
134	3263
135	671
136	100
137	30
141	60
143	20
144	30
145	90
147	40
149	40
151	130
152	60
155	1722
156	550
157	60
159	60
160	20
161	230
162	130
163	50
173	90
177	40
187	20
188	30
189	30
191	20
205	60
233	90
