Mass Spectrum: Silane, dimethyl(trans-3,7-dimethyl-2,6-octadien-1-yloxy)isohexyloxy-
Formula: C18 H36 O2 Si
Molecular weight: 312
Origin: V.G. Zaikin, R.S.Borisov, TIPS RAS, Moscow, Russia
m/z	RELATIVE INTENSITY
27	170
29	140
39	330
40	100
41	2092
42	190
43	1391
45	200
47	200
51	50
52	30
53	390
54	60
55	1722
56	350
57	200
58	100
59	420
60	50
61	380
62	20
63	90
65	80
66	50
67	751
68	1311
69	5155
70	330
71	50
74	130
75	8628
76	661
77	2883
78	170
79	450
80	1501
81	1351
82	370
83	9999
84	741
85	701
86	40
87	90
88	90
89	881
90	120
91	460
92	951
93	4984
94	961
95	871
96	80
97	20
99	180
101	1421
102	130
103	240
104	20
105	661
106	80
107	1641
108	440
109	270
110	180
111	90
113	260
114	20
115	290
116	40
117	260
118	20
119	200
120	30
121	7967
122	1191
123	3073
124	300
125	150
127	801
128	160
129	791
130	210
131	330
132	20
133	60
134	30
135	350
136	2772
137	500
138	30
141	240
142	120
143	3563
144	460
145	601
146	70
147	70
155	581
156	110
157	490
158	140
159	1992
160	270
161	400
162	20
167	30
169	130
170	10
171	691
172	190
173	350
174	50
175	100
177	50
185	220
186	100
187	200
189	100
195	70
197	70
199	450
200	50
201	90
203	20
210	20
211	30
213	130
215	20
217	1531
218	250
227	380
228	60
229	1471
230	1031
231	240
232	40
241	571
242	581
243	410
244	60
255	550
256	120
257	70
269	1481
270	300
271	70
297	1281
298	290
299	50
311	100
312	1181
313	290
314	50
