Mass Spectrum: Fumaric acid, 3,3-dimethylbut-2-yl isobutyl ester
Formula: C14 H24 O4
Molecular weight: 256
Origin: V.G. Zaikin, R.S.Borisov, TIPS RAS, Moscow, Russia
m/z	RELATIVE INTENSITY
27	50
29	110
39	240
40	50
41	1411
42	150
43	1321
44	90
45	90
53	210
54	711
55	911
56	821
57	4284
58	210
59	20
67	60
68	20
69	1281
70	180
71	140
72	140
73	40
81	360
82	1391
83	120
84	1221
85	2873
86	210
87	30
95	30
97	20
99	4994
100	7437
101	520
102	60
109	70
113	20
117	240
123	20
126	60
127	90
137	50
141	20
145	150
154	40
155	9999
156	5725
157	601
158	50
165	30
173	80
183	2813
184	310
185	30
200	40
201	350
202	30
241	200
242	20
