Mass Spectrum: Fumaric acid, 3-methylbut-3-enyl pentyl ester
Formula: C14 H22 O4
Molecular weight: 254
Origin: L.N.Kulikova, V.G. Zaikin, RPFU, Moscow, Russia
m/z	RELATIVE INTENSITY
26	150
27	480
29	430
39	390
40	150
41	1321
42	330
43	831
45	30
53	460
54	540
55	701
65	20
66	30
67	1191
68	9999
69	1972
70	280
71	420
72	30
81	280
82	480
93	40
95	40
98	30
99	1381
100	230
101	20
109	50
112	30
117	190
138	40
139	20
141	20
167	40
169	2072
170	230
171	20
187	80
225	20
