Mass Spectrum: Silane, dimethyl(but-3-enyloxy)pentadecyloxy-
Formula: C21 H44 O2 Si
Molecular weight: 356
Origin: V.G. Zaikin, R.S.Borisov, TIPS RAS, Moscow, Russia
m/z	RELATIVE INTENSITY
26	40
27	150
29	320
38	10
39	230
40	20
41	951
42	230
43	1411
45	160
47	70
53	80
54	260
55	1772
56	350
57	1631
58	170
59	420
60	30
61	671
62	20
63	40
66	30
67	510
68	260
69	1882
70	290
71	1131
72	60
74	40
75	4854
76	370
77	1551
78	60
79	80
80	20
81	530
82	320
83	2823
84	260
85	681
86	60
87	270
88	150
89	3493
90	310
91	591
92	20
93	100
95	520
96	220
97	2642
98	260
99	971
100	140
101	3123
102	280
103	861
104	60
105	1221
106	80
107	1041
108	80
109	270
110	60
111	1161
112	110
113	380
114	50
115	3823
116	380
117	711
118	60
119	1351
120	80
121	40
123	70
124	20
125	340
126	30
127	130
128	40
129	2903
130	330
131	1021
132	90
133	440
134	30
137	20
139	80
141	100
143	170
144	30
145	851
146	80
147	130
153	20
155	50
157	90
159	1521
160	170
161	60
169	20
171	100
173	20
185	80
187	190
199	50
201	30
213	40
215	20
229	40
243	60
257	30
269	80
283	90
285	2222
286	480
287	180
299	110
301	50
311	180
312	20
313	230
314	40
315	9999
316	2292
317	581
318	50
341	3373
342	841
343	330
344	40
