Mass Spectrum: Fumaric acid, butyl pent-4-en-2-yl ester
Formula: C13 H20 O4
Molecular weight: 240
Origin: L.N.Kulikova, V.G. Zaikin, RPFU, Moscow, Russia
m/z	RELATIVE INTENSITY
26	60
27	170
29	220
31	20
39	140
40	30
41	621
42	90
43	210
53	120
54	250
55	550
56	240
57	410
58	20
67	190
68	731
69	360
70	100
71	100
81	220
82	330
83	110
84	80
85	20
95	60
97	70
98	50
99	1181
100	160
111	30
112	30
117	20
125	20
127	70
140	90
155	9999
156	851
157	100
167	581
168	60
