Mass Spectrum: Fumaric acid, hexadecyl 2-hexyl ester
Formula: C26 H48 O4
Molecular weight: 424
Origin: L.N.Kulikova, V.G. Zaikin, RPFU, Moscow, Russia
m/z	RELATIVE INTENSITY
25	40
26	350
27	1051
28	621
29	1571
30	70
31	40
36	30
37	40
38	20
39	771
40	200
41	4434
42	2002
43	9999
44	340
45	210
51	70
52	50
53	460
54	1381
55	8778
56	4594
57	8498
58	460
59	40
61	20
65	70
66	150
67	1631
68	1621
69	9078
70	2973
71	5295
72	400
73	190
74	50
75	20
77	90
78	50
79	250
80	160
81	1541
82	3383
83	9128
84	6996
85	8137
86	540
87	60
89	10
91	150
92	40
93	140
94	170
95	1291
96	1892
97	8217
98	1491
99	6166
100	8948
101	2863
102	200
103	40
105	80
106	20
107	110
108	120
109	851
110	991
111	5075
112	1021
113	841
114	190
115	120
116	200
117	9188
118	3533
119	1932
120	130
121	140
122	150
123	661
124	721
125	2092
126	661
127	731
128	200
129	150
130	30
131	40
133	30
134	20
135	110
136	220
137	671
138	831
139	1191
140	550
141	1061
142	250
143	220
144	70
145	160
146	30
147	80
148	30
149	110
150	140
151	340
152	500
153	1071
154	711
155	921
156	390
157	971
158	170
159	210
160	30
161	80
163	90
164	170
165	300
166	450
167	480
168	420
169	520
170	180
171	1131
172	200
173	120
174	20
175	40
177	80
178	110
179	200
180	310
181	410
182	641
183	1922
184	520
185	180
186	40
187	110
188	50
189	50
191	70
192	80
193	120
194	350
195	350
196	450
197	470
198	130
199	140
200	40
201	2232
202	330
203	110
204	10
205	90
206	80
207	70
208	110
209	320
210	300
211	460
212	170
213	140
214	40
215	40
217	20
219	60
220	90
221	160
222	1031
223	671
224	460
225	1201
226	270
227	150
228	50
229	90
233	60
234	50
235	80
236	80
237	540
238	370
239	550
240	160
241	330
242	50
243	80
244	20
245	30
247	70
248	30
249	70
250	40
251	571
252	470
253	240
254	100
255	200
256	50
257	60
259	70
261	60
262	130
263	100
264	40
265	520
266	601
267	240
268	90
269	190
270	30
271	30
275	40
276	80
277	240
278	90
279	390
280	721
281	460
282	100
283	140
284	30
285	40
287	20
293	200
294	520
295	290
296	60
297	100
299	20
304	310
305	340
306	50
307	30
308	40
309	40
311	50
320	20
321	80
322	1521
323	3263
324	921
325	210
327	20
338	40
339	130
340	330
341	811
342	170
343	40
365	20
380	80
381	50
395	70
409	20
