Mass Spectrum: Silane, dimethyl(dec-4-enyloxy)tridecyloxy-
Formula: C25 H52 O2 Si
Molecular weight: 412
Origin: V.G. Zaikin, R.S.Borisov, TIPS RAS, Moscow, Russia
m/z	RELATIVE INTENSITY
26	160
27	410
29	701
39	370
40	70
41	2052
42	480
43	2032
45	40
47	10
50	10
51	40
53	300
54	1802
55	3163
56	500
57	1822
58	20
59	390
61	370
63	20
65	40
66	530
67	3823
68	8938
69	2833
70	490
71	681
73	60
74	30
75	5105
76	330
77	2242
78	120
79	550
80	280
81	5275
82	5165
83	2532
84	320
85	370
87	120
88	20
89	1481
90	60
91	470
92	20
93	781
94	110
95	3403
96	5405
97	1902
98	170
99	240
101	1251
102	80
103	470
104	20
105	1481
106	40
107	170
108	30
109	2392
110	3003
111	681
112	30
113	250
114	30
115	951
116	50
117	310
118	40
119	220
121	120
123	260
124	40
125	90
127	280
128	70
129	540
130	90
131	1011
132	70
133	170
136	50
137	330
138	9999
139	1171
140	40
141	220
142	20
143	400
144	30
145	430
146	30
147	40
149	30
151	20
154	10
155	130
157	180
158	10
159	300
169	70
171	200
173	70
180	160
183	40
184	10
185	70
187	40
197	581
198	50
199	1081
200	130
201	50
207	30
212	190
213	991
214	160
215	340
216	20
217	120
223	10
227	10
229	120
230	10
241	130
243	801
244	70
245	20
255	20
257	1401
258	210
259	2132
260	410
261	60
271	230
275	260
276	30
281	20
285	671
286	90
287	821
288	150
299	10
300	20
301	20
313	1832
314	390
315	60
327	290
328	10
341	40
342	10
355	220
369	1001
370	230
371	40
383	130
384	30
397	3063
398	1021
412	901
413	210
414	20
