Mass Spectrum: Silane, dimethyl(dodec-2-enyloxy)ethoxy-
Formula: C16 H34 O2 Si
Molecular weight: 286
Origin: V.G. Zaikin, R.S.Borisov, TIPS RAS, Moscow, Russia
m/z	RELATIVE INTENSITY
26	20
27	160
29	310
39	180
40	20
41	781
42	90
43	621
45	200
47	130
53	120
54	380
55	500
56	80
57	80
58	40
59	651
60	50
61	390
63	90
65	30
66	60
67	691
68	410
69	240
70	20
71	60
72	30
73	90
74	60
75	3183
76	230
77	2012
78	110
79	120
80	60
81	510
82	761
83	230
84	20
85	70
86	10
87	90
88	30
89	400
90	30
91	90
93	80
94	30
95	530
96	550
97	120
98	30
99	220
100	20
101	360
102	70
103	7847
104	691
105	5475
106	460
107	200
109	320
110	210
111	120
113	280
114	60
115	1712
116	170
117	120
119	130
121	781
122	70
123	160
124	130
125	30
127	110
128	50
129	721
130	90
131	1291
132	130
133	250
134	20
137	60
138	160
141	160
142	20
143	150
144	40
145	310
146	40
147	20
155	60
157	100
158	20
159	9999
160	1201
161	390
165	180
166	300
167	30
169	20
171	90
172	20
173	1892
174	260
175	70
185	50
187	190
197	20
199	50
201	330
202	40
205	130
207	60
213	40
215	841
216	120
217	30
223	20
225	170
226	20
227	390
228	50
229	340
230	40
241	70
243	490
244	70
257	100
271	1141
272	220
285	40
286	380
287	70
