Mass Spectrum: Fumaric acid, isobutyl pent-4-en-2-yl ester
Formula: C13 H20 O4
Molecular weight: 240
Origin: L.N.Kulikova, V.G. Zaikin, RPFU, Moscow, Russia
m/z	RELATIVE INTENSITY
26	70
27	200
29	130
39	160
40	30
41	530
42	50
43	130
45	40
53	110
54	210
55	260
56	170
57	500
58	20
67	150
68	490
69	500
70	30
71	70
72	20
81	220
82	400
83	20
84	290
85	80
93	20
95	110
97	40
99	2592
100	360
101	70
109	20
112	30
117	60
125	60
126	20
127	130
128	40
140	120
155	9999
156	921
157	110
167	1361
168	140
199	20
