Mass Spectrum: Fumaric acid, myrtenyl propyl ester
Formula: C17 H24 O4
Molecular weight: 292
Origin: L.N.Kulikova, V.G. Zaikin, RPFU, Moscow, Russia
m/z	RELATIVE INTENSITY
26	150
27	510
29	130
31	30
39	320
40	60
41	1021
42	150
43	1001
44	80
45	70
50	20
51	100
52	90
53	370
54	190
55	450
56	60
57	100
58	20
59	30
63	30
65	230
66	70
67	240
68	150
69	300
70	30
71	100
72	50
77	601
78	480
79	1091
80	170
81	340
82	220
83	30
84	20
90	30
91	9999
92	3283
93	1211
94	120
95	80
96	20
98	20
99	1872
100	911
101	70
103	130
104	80
105	901
106	430
107	430
108	50
109	110
113	20
115	110
116	40
117	721
118	90
119	3894
120	400
121	220
122	40
123	20
127	30
128	20
131	40
132	30
133	290
134	1912
135	370
136	30
141	1271
142	440
143	60
144	20
145	60
147	40
149	50
151	70
152	40
159	90
161	130
162	60
163	30
177	30
187	10
205	50
233	80
