Mass Spectrum: Fumaric acid, octyl pent-4-en-2-yl ester
Formula: C17 H28 O4
Molecular weight: 296
Origin: L.N.Kulikova, V.G. Zaikin, RPFU, Moscow, Russia
m/z	RELATIVE INTENSITY
28	10
29	30
39	90
40	20
41	621
42	300
43	821
45	20
53	160
54	310
55	1511
56	550
57	781
58	30
65	20
66	20
67	370
68	1591
69	4094
70	621
71	601
72	50
73	20
81	300
82	751
83	460
84	240
85	60
93	20
95	120
96	20
97	90
99	1852
100	601
101	330
102	10
109	20
110	40
111	180
112	150
113	150
118	30
123	20
127	20
129	80
139	30
140	220
143	30
153	40
154	20
157	60
167	460
168	80
171	50
185	80
210	10
211	9999
212	1311
213	140
