Mass Spectrum: Fumaric acid, 2-methylpentyl pentyl ester
Formula: C15 H26 O4
Molecular weight: 270
Origin: V.G. Zaikin, R.S.Borisov, TIPS RAS, Moscow, Russia
m/z	RELATIVE INTENSITY
26	90
27	340
29	340
31	30
39	170
41	771
42	270
43	1491
45	50
53	150
54	440
55	771
56	130
57	150
58	20
59	50
67	40
68	30
69	921
70	250
71	691
72	70
81	230
82	701
83	50
84	1611
85	751
86	50
87	20
95	30
97	90
98	60
99	1852
100	1401
101	120
112	70
114	80
115	20
117	260
128	20
129	20
141	40
142	260
143	80
169	9999
170	1331
171	130
183	330
184	30
187	80
199	20
201	70
213	40
214	20
241	80
