Mass Spectrum: Fumaric acid, 3-hexyl octyl ester
Formula: C18 H32 O4
Molecular weight: 312
Origin: V.G. Zaikin, R.S.Borisov, TIPS RAS, Moscow, Russia
m/z	RELATIVE INTENSITY
26	150
27	591
29	731
30	20
31	40
39	300
40	60
41	1661
42	841
43	2793
44	180
45	60
53	260
54	691
55	3143
56	1591
57	2222
58	120
59	70
66	20
67	240
68	240
69	3723
70	921
71	1822
72	160
73	60
80	20
81	510
82	1401
83	881
84	3013
85	1481
86	100
91	50
93	20
95	80
96	40
97	340
98	90
99	3053
100	3023
101	561
102	40
109	50
110	110
111	220
112	280
113	631
114	70
115	20
117	2362
118	300
119	60
123	40
124	70
125	40
126	60
127	50
128	100
129	200
130	30
136	30
137	70
138	20
139	80
140	40
141	100
142	50
143	80
153	90
154	140
155	220
156	60
157	220
158	20
159	30
164	30
165	40
168	20
169	80
171	170
172	30
173	40
181	20
182	100
183	851
184	110
185	20
192	20
201	460
202	50
210	50
211	9999
212	1521
213	180
225	20
229	561
230	80
241	90
242	30
255	50
256	20
