Mass Spectrum: Fumaric acid, 2-decyl isohexyl ester
Formula: C20 H36 O4
Molecular weight: 340
Origin: V.G. Zaikin, R.S.Borisov, TIPS RAS, Moscow, Russia
m/z	RELATIVE INTENSITY
26	140
27	591
29	821
39	350
40	60
41	1842
42	671
43	3743
44	110
45	70
53	260
54	641
55	2963
56	1812
57	1762
58	120
59	40
67	240
68	200
69	2222
70	1251
71	1121
72	120
73	30
81	420
82	1531
83	1341
84	4304
85	4544
86	300
95	80
96	220
97	1261
98	621
99	4204
100	3383
101	300
102	30
108	20
109	80
110	70
111	691
112	400
113	60
114	60
115	40
117	1421
118	260
119	60
123	50
124	80
125	90
127	30
128	20
129	20
131	70
135	60
137	110
138	80
139	50
140	1371
141	400
142	140
143	20
151	30
152	40
153	130
154	60
155	160
156	70
157	100
158	20
164	20
165	20
166	20
167	440
168	80
171	120
182	60
183	9999
184	1171
185	160
193	30
194	40
197	50
198	20
200	30
201	490
202	90
203	20
205	10
210	50
211	80
212	70
220	20
225	60
226	40
238	40
239	861
240	140
241	20
255	40
257	60
325	70
