Mass Spectrum: Fumaric acid, isobutyl tridecyl ester
Formula: C21 H38 O4
Molecular weight: 354
Origin: L.N.Kulikova, V.G. Zaikin, RPFU, Moscow, Russia
m/z	RELATIVE INTENSITY
25	20
26	210
27	691
29	1331
30	40
31	30
39	500
40	120
41	3163
42	781
43	3663
44	190
45	60
51	20
53	300
54	871
55	4584
56	4044
57	9999
58	440
59	20
65	20
66	70
67	711
68	1011
69	4804
70	2162
71	2062
72	220
73	120
77	30
79	80
80	70
81	801
82	2092
83	4784
84	1421
85	1421
86	120
87	30
91	30
93	40
94	60
95	480
96	961
97	4154
98	1101
99	3964
100	4454
101	1351
102	90
103	60
105	30
107	40
108	40
109	400
110	530
111	2312
112	661
113	450
114	160
115	70
116	20
117	6466
118	1491
119	741
120	40
121	50
122	50
123	270
124	380
125	961
126	430
127	651
128	110
129	60
130	20
131	40
133	50
134	20
135	40
136	70
137	250
138	280
139	470
140	270
141	290
142	130
143	90
144	40
149	30
150	100
151	210
152	340
153	691
154	721
155	2793
156	1311
157	631
158	80
163	30
164	70
165	100
166	170
167	130
168	250
169	310
170	70
171	240
172	90
173	3063
174	761
175	320
176	30
177	40
178	80
179	100
180	340
181	280
182	631
183	571
184	90
185	30
186	30
192	40
193	60
194	80
195	200
196	150
197	661
198	110
199	120
200	20
205	30
206	30
207	30
208	30
209	220
210	110
211	210
212	70
213	330
214	40
217	10
219	20
220	60
221	100
222	20
223	260
224	110
225	130
226	50
227	310
228	80
233	30
234	50
235	120
236	40
237	310
238	190
239	520
240	90
241	30
251	210
252	240
253	180
254	50
255	40
262	160
263	50
265	20
269	30
279	30
280	440
281	961
282	250
283	70
297	40
298	20
299	390
300	60
311	20
339	220
340	30
354	60
