Mass Spectrum: Fumaric acid, cis-hex-3-enyl octyl ester
Formula: C18 H30 O4
Molecular weight: 310
Origin: L.N.Kulikova, V.G. Zaikin, RPFU, Moscow, Russia
m/z	RELATIVE INTENSITY
26	90
27	330
29	420
39	270
40	40
41	1331
42	300
43	921
45	20
53	230
54	530
55	1812
56	460
57	821
58	30
65	40
66	50
67	3543
68	310
69	1231
70	370
71	581
72	50
79	30
80	20
81	821
82	9999
83	1641
84	270
85	70
91	10
95	40
97	90
98	40
99	1011
100	500
101	100
107	20
109	40
110	20
111	80
112	80
113	40
117	330
118	50
123	20
127	30
129	20
139	30
141	30
145	30
153	60
154	20
155	30
157	40
159	20
169	40
171	20
173	20
181	60
182	20
183	30
199	20
211	460
212	70
229	30
239	30
