Mass Spectrum: Silane, dimethyl(but-2-enyloxy)isobutoxy-
Formula: C10 H22 O2 Si
Molecular weight: 202
Origin: V.G. Zaikin, R.S.Borisov, TIPS RAS, Moscow, Russia
m/z	RELATIVE INTENSITY
27	150
29	200
39	230
41	370
42	40
43	280
45	510
47	420
50	20
51	30
53	130
54	120
55	641
56	80
57	520
58	280
59	430
60	190
61	440
62	30
63	160
67	40
69	40
71	30
72	130
73	40
74	190
75	9999
76	821
77	6966
78	440
79	260
85	150
86	20
87	110
88	170
89	1752
90	200
91	210
93	20
95	110
97	50
99	490
100	40
101	520
102	40
103	190
105	100
111	110
112	30
113	691
114	90
115	1621
116	160
117	611
118	50
119	200
127	150
128	450
129	3723
130	460
131	4554
132	500
133	941
134	80
135	20
141	230
143	140
144	10
145	4744
146	731
147	370
148	20
149	20
150	20
151	110
157	170
158	30
159	9559
160	1241
161	510
162	30
187	3883
188	591
189	160
201	70
202	3763
203	601
204	160
