Mass Spectrum: Fumaric acid, butyl 2,4-dimethylpent-3-yl ester
Formula: C15 H26 O4
Molecular weight: 270
Origin: V.G. Zaikin, R.S.Borisov, TIPS RAS, Moscow, Russia
m/z	RELATIVE INTENSITY
26	90
27	340
29	350
39	150
40	20
41	661
42	50
43	641
44	40
45	30
53	110
54	340
55	651
56	300
57	1051
58	40
69	60
70	20
71	130
72	70
73	90
81	220
82	591
83	681
84	70
85	40
97	160
98	330
99	1962
100	1151
101	60
114	90
115	60
117	80
125	30
126	20
127	40
142	200
143	70
155	9999
156	1271
157	130
169	30
173	20
197	450
198	80
199	110
200	80
227	350
228	40
