Mass Spectrum: Fumaric acid, 2-butyl dodecyl ester
Formula: C20 H36 O4
Molecular weight: 340
Origin: V.G. Zaikin, R.S.Borisov, TIPS RAS, Moscow, Russia
m/z	RELATIVE INTENSITY
25	50
26	430
27	1251
28	921
29	2312
30	40
31	60
37	30
39	841
40	160
41	5005
42	1131
43	5095
44	350
45	160
50	40
51	30
53	500
54	1371
55	6856
56	5765
57	7537
58	330
59	30
60	80
61	20
65	40
66	80
67	951
68	1081
69	6276
70	2422
71	2752
72	290
73	490
74	30
77	40
78	30
79	140
80	70
81	1041
82	2162
83	5405
84	1541
85	1972
86	120
87	40
91	30
93	60
94	50
95	480
96	841
97	4984
98	1131
99	5375
100	5885
101	1071
102	70
105	20
107	50
108	50
109	410
110	490
111	2542
112	571
113	450
114	80
115	60
116	40
117	9999
118	2022
119	581
120	30
121	40
122	30
123	210
124	260
125	571
126	290
127	681
128	200
129	110
130	60
131	20
136	60
137	180
138	280
139	320
140	350
141	270
142	60
143	80
149	20
150	40
151	60
152	150
153	360
154	410
155	1892
156	530
157	691
158	70
164	40
165	70
166	450
167	150
168	360
169	480
170	80
171	681
172	150
173	2282
174	260
175	30
178	30
179	20
180	50
181	110
182	170
183	230
184	50
185	170
187	20
193	20
195	120
196	60
197	100
199	40
200	30
206	20
207	30
209	120
210	100
211	60
212	30
213	100
220	20
221	70
223	110
224	100
225	240
226	20
227	50
228	20
230	20
237	120
238	190
239	140
240	20
241	30
248	100
265	30
266	320
267	2642
268	520
269	60
283	30
284	130
285	781
286	110
