Mass Spectrum: Fumaric acid, di(3-methylbut-3-enyl) ester
Formula: C14 H20 O4
Molecular weight: 252
Origin: L.N.Kulikova, V.G. Zaikin, RPFU, Moscow, Russia
m/z	RELATIVE INTENSITY
26	170
27	420
29	240
39	641
40	300
41	2272
42	140
43	30
45	40
51	40
53	751
54	621
55	180
65	50
66	60
67	1882
68	9999
69	5035
70	230
71	280
77	20
80	40
81	270
82	460
91	20
92	40
93	270
94	100
95	50
99	661
100	40
107	320
108	671
109	320
110	20
121	330
122	30
136	50
138	30
139	30
166	30
167	40
