Mass Spectrum: Fumaric acid, 4-phenoxybenzyl propyl ester
Formula: C20 H20 O5
Molecular weight: 340
Origin: V.G. Zaikin, R.S.Borisov, TIPS RAS, Moscow, Russia
m/z	RELATIVE INTENSITY
25	20
26	220
27	561
29	150
30	20
31	30
39	390
40	50
41	420
42	180
43	911
45	60
50	180
51	811
52	100
53	260
54	310
55	721
59	30
62	50
63	320
64	200
65	721
66	90
67	20
71	200
72	260
73	20
74	50
75	70
76	220
77	1702
78	581
81	280
82	490
89	2262
90	741
91	1211
92	300
93	1371
94	240
95	40
98	20
99	2122
100	6746
101	350
102	110
103	70
104	20
105	120
106	40
107	120
112	20
113	50
114	30
115	921
116	240
117	60
118	30
126	20
127	340
128	540
129	330
130	40
131	100
132	20
139	180
140	60
141	2012
142	4604
143	410
144	90
151	90
152	581
153	1631
154	530
155	360
156	40
157	20
159	30
160	30
164	20
165	550
166	90
167	20
168	921
169	591
170	160
171	5575
172	731
173	50
179	30
180	50
181	1391
182	591
183	8698
184	1391
185	110
194	10
195	20
197	490
198	611
199	6386
200	2212
201	260
202	20
207	390
208	150
209	80
210	20
223	40
224	30
225	130
226	20
235	30
236	130
237	30
239	30
252	200
253	240
254	70
280	50
298	330
299	50
340	9999
341	2202
342	340
343	30
