Mass Spectrum: Silane, dimethyl(dec-4-enyloxy)undecyloxy-
Formula: C23 H48 O2 Si
Molecular weight: 384
Origin: V.G. Zaikin, R.S.Borisov, TIPS RAS, Moscow, Russia
m/z	RELATIVE INTENSITY
26	160
27	360
29	741
38	20
39	400
40	40
41	1962
42	450
43	1932
45	80
47	30
50	30
51	30
52	20
53	300
54	1982
55	3093
56	601
57	1381
58	30
59	510
61	571
63	50
65	70
66	571
67	4224
68	9999
69	2152
70	450
71	611
75	6276
76	430
77	3053
78	220
79	621
80	300
81	5975
82	5615
83	1271
84	300
85	330
87	220
88	50
89	2022
90	110
91	621
92	30
93	781
94	170
95	3813
96	5505
97	1401
98	140
99	390
100	10
101	1571
102	130
103	641
104	10
105	1641
106	90
107	180
108	40
109	2602
110	3143
111	611
112	30
113	340
114	70
115	1151
116	100
117	420
119	300
121	80
123	260
124	60
125	30
126	10
127	360
128	110
129	731
130	80
131	1081
132	80
133	150
136	90
137	350
138	9008
139	901
141	230
142	30
143	550
144	40
145	550
146	20
152	190
153	10
154	10
155	140
156	10
157	220
158	20
159	400
160	10
161	20
169	80
170	10
171	170
172	10
173	110
183	30
185	70
187	50
197	631
198	50
199	1141
200	110
201	60
211	30
212	180
213	1111
214	160
215	320
216	30
217	130
227	50
229	1752
230	270
231	2302
232	330
233	90
243	831
244	80
245	80
247	240
248	10
257	621
258	90
259	701
260	90
261	10
271	210
272	80
273	30
285	1832
286	370
299	230
300	10
313	50
327	140
328	30
341	360
342	100
355	50
369	3023
370	861
371	480
372	70
384	751
385	180
386	20
