Mass Spectrum: Silane, dimethyl(dec-4-enyloxy)nonyloxy-
Formula: C21 H44 O2 Si
Molecular weight: 356
Origin: V.G. Zaikin, R.S.Borisov, TIPS RAS, Moscow, Russia
m/z	RELATIVE INTENSITY
26	90
27	390
29	721
38	10
39	530
40	70
41	2342
42	510
43	1782
45	150
47	90
50	10
51	40
52	20
53	360
54	2152
55	3413
56	691
57	1191
58	110
59	781
60	40
61	711
62	20
63	70
65	100
66	581
67	4734
68	9999
69	3843
70	510
71	631
72	20
73	50
74	60
75	7247
76	530
77	3363
78	170
79	681
80	280
81	6446
82	5535
83	2502
84	290
85	330
87	290
88	140
89	2252
90	170
91	701
92	30
93	681
94	160
95	4094
96	5235
97	1011
98	120
99	470
100	40
101	1822
102	190
103	731
104	50
105	1822
106	130
107	160
108	40
109	2342
110	2692
111	230
112	10
113	420
114	100
115	1111
116	110
117	420
118	90
119	330
120	10
121	70
122	20
123	260
124	550
125	80
126	10
127	450
128	130
129	841
130	90
131	1171
132	110
133	210
135	10
136	70
137	350
138	7427
139	751
140	10
141	260
142	20
143	550
144	60
145	540
146	40
147	30
151	20
155	130
157	190
158	20
159	370
160	10
161	20
167	10
169	80
171	120
172	10
173	70
179	60
181	10
183	70
185	200
187	60
193	20
197	470
198	100
199	1031
200	160
201	1461
202	170
203	1752
204	210
205	50
207	160
209	30
211	10
212	130
213	1271
214	230
215	300
216	10
217	140
219	200
223	70
225	50
227	20
229	621
230	50
231	510
232	60
233	10
243	931
244	180
245	60
257	1201
258	200
259	20
271	260
272	10
285	30
299	140
300	10
313	561
314	100
315	20
327	60
328	10
341	1611
342	410
343	100
344	10
356	410
357	80
