Mass Spectrum: Silane, dimethyl(dodec-2-enyloxy)isobutoxy-
Formula: C18 H38 O2 Si
Molecular weight: 314
Origin: V.G. Zaikin, R.S.Borisov, TIPS RAS, Moscow, Russia
m/z	RELATIVE INTENSITY
27	20
29	80
39	100
41	380
42	50
43	360
45	50
47	60
53	50
54	210
55	430
56	120
57	220
58	60
59	200
60	30
61	200
63	40
65	10
66	70
67	571
68	370
69	310
70	60
71	50
74	70
75	6796
76	561
77	3663
78	220
79	300
80	50
81	791
82	751
83	440
84	50
85	150
87	60
88	80
89	591
90	60
91	220
93	450
94	40
95	1631
96	711
97	300
98	60
99	340
100	30
101	500
102	30
103	260
105	621
106	40
107	80
109	891
110	330
111	170
112	20
113	440
114	100
115	1311
116	170
117	591
118	60
119	781
120	50
123	330
124	170
125	30
127	170
128	120
129	901
130	130
131	6936
132	861
133	4684
134	500
135	140
137	140
138	230
139	20
141	130
142	20
143	370
144	70
145	1231
146	270
147	240
148	30
155	70
157	210
158	30
159	711
160	70
161	400
162	20
163	20
165	270
166	530
167	60
169	170
171	160
172	20
173	250
174	190
175	30
177	691
178	100
179	110
183	30
185	100
187	9999
188	1631
189	500
190	20
197	20
199	110
201	1782
202	340
203	80
211	20
213	90
215	260
216	40
225	310
226	40
227	581
228	110
229	490
230	80
240	30
241	360
242	50
243	1712
244	310
245	80
257	1141
258	220
259	50
271	3413
272	751
273	190
285	210
286	40
299	3303
300	841
301	200
313	150
314	1822
315	440
316	110
