Mass Spectrum: Adipic acid, 3-methylbutyl pentyl ester
Formula: C16 H30 O4
Molecular weight: 286
Origin: L.N.Kulikova, V.G. Zaikin, RPFU, Moscow, Russia
m/z	RELATIVE INTENSITY
26	60
27	470
29	831
30	20
31	50
39	350
40	70
41	1411
42	801
43	4054
44	110
45	90
53	120
54	130
55	2422
56	210
57	30
58	50
59	260
60	120
61	120
67	50
68	130
69	300
70	3183
71	4144
72	230
73	410
74	40
82	30
83	721
84	380
85	110
86	40
87	1461
88	50
99	120
100	1321
101	1832
102	350
103	100
110	110
111	3373
112	601
113	60
115	200
127	60
128	230
129	9999
130	661
131	90
143	110
147	30
155	40
156	60
157	1712
158	170
170	1672
171	220
172	140
183	40
198	60
199	7847
200	921
201	80
217	210
243	220
244	20
257	30
271	30
