Mass Spectrum: Fumaric acid, hexyl 3-hexyl ester
Formula: C16 H28 O4
Molecular weight: 284
Origin: V.G. Zaikin, R.S.Borisov, TIPS RAS, Moscow, Russia
m/z	RELATIVE INTENSITY
26	100
27	410
29	380
31	30
39	170
40	30
41	781
42	470
43	1912
44	110
45	40
53	160
54	440
55	1471
56	951
57	340
58	20
59	40
67	60
68	40
69	430
70	40
71	110
72	50
73	20
81	280
82	741
83	270
84	1621
85	1531
86	90
97	90
98	40
99	2182
100	1381
101	250
102	20
109	40
112	120
113	20
114	20
117	1461
118	100
124	30
125	20
128	70
129	40
137	40
139	20
140	20
141	40
142	20
143	40
154	50
155	140
156	20
157	60
182	50
183	9999
184	1181
185	130
201	561
202	60
213	30
214	20
227	30
