Mass Spectrum: Fumaric acid, ethyl 4-phenoxybenzyl ester
Formula: C19 H18 O5
Molecular weight: 326
Origin: V.G. Zaikin, R.S.Borisov, TIPS RAS, Moscow, Russia
m/z	RELATIVE INTENSITY
25	20
26	240
27	430
29	681
30	20
39	290
40	30
45	140
50	190
51	861
52	120
53	340
54	290
55	641
62	50
63	340
64	210
65	761
66	90
71	320
72	90
74	50
75	70
76	210
77	1722
78	571
81	190
82	540
89	2402
90	761
91	951
92	240
93	1461
94	260
95	20
99	2752
100	2282
101	100
102	70
103	60
105	110
106	30
107	100
114	20
115	881
116	200
127	1281
128	7287
129	761
130	90
131	90
132	20
139	190
140	60
141	1311
142	170
143	60
144	50
151	90
152	591
153	1812
154	530
155	340
156	40
157	30
159	30
160	30
164	20
165	500
166	70
168	831
169	601
170	170
171	5585
172	721
173	50
179	30
180	50
181	1381
182	561
183	6606
184	1061
185	80
197	500
198	631
199	6015
200	1962
201	220
207	651
208	160
209	40
223	30
224	20
225	120
227	30
228	20
235	30
236	100
252	170
253	160
280	40
281	20
298	110
326	9999
327	2042
328	310
329	20
