Mass Spectrum: Fumaric acid, 3,4-dimethoxyphenyl pentadecyl ester
Formula: C27 H42 O6
Molecular weight: 462
Origin: V.G. Zaikin, R.S.Borisov, TIPS RAS, Moscow, Russia
m/z	RELATIVE INTENSITY
26	60
27	110
28	90
29	220
36	20
39	130
40	50
41	510
42	110
43	871
44	50
51	40
52	50
53	100
54	160
55	851
56	210
57	1231
58	50
65	60
66	20
67	130
68	100
69	591
70	150
71	841
72	30
77	40
79	140
80	30
81	130
82	210
83	400
84	90
85	611
86	20
91	20
92	20
93	80
94	30
95	140
96	60
97	230
98	40
99	370
100	100
101	50
105	20
108	30
109	40
110	120
111	240
112	30
113	100
119	20
121	20
123	40
124	20
125	250
126	30
127	70
133	20
137	50
138	70
139	881
140	170
141	40
147	10
149	20
151	130
152	20
153	430
154	9999
155	1571
156	150
163	20
164	40
165	30
176	30
179	20
191	110
192	20
193	20
196	20
206	70
207	140
208	130
209	20
210	20
235	90
236	80
237	40
252	280
253	60
309	30
364	340
365	60
418	200
419	50
462	1011
463	300
464	40
