Mass Spectrum: Fumaric acid, 2-decyl undecyl ester
Formula: C25 H46 O4
Molecular weight: 410
Origin: V.G. Zaikin, R.S.Borisov, TIPS RAS, Moscow, Russia
m/z	RELATIVE INTENSITY
25	30
26	260
27	921
29	1461
30	30
31	30
39	751
40	160
41	4454
42	1641
43	7357
44	410
45	200
50	20
51	30
53	460
54	1311
55	8678
56	4944
57	8518
58	510
59	50
65	60
66	90
67	1161
68	1341
69	8117
70	4654
71	6206
72	380
73	140
74	20
77	60
79	90
80	80
81	1221
82	3253
83	7927
84	3423
85	5575
86	380
87	30
91	40
93	70
94	80
95	631
96	1351
97	9138
98	2913
99	5955
100	8488
101	1461
102	120
107	40
108	50
109	360
110	611
111	3563
112	1571
113	721
114	150
115	80
116	300
117	3543
118	1651
119	851
120	50
121	50
122	50
123	320
124	510
125	460
126	460
127	310
128	60
129	30
131	20
135	20
136	70
137	340
138	340
139	350
140	4834
141	2152
142	320
143	170
144	30
145	30
149	50
150	90
151	170
152	821
153	721
154	671
155	1191
156	320
157	1071
158	140
159	40
163	30
164	60
165	120
166	200
167	1341
168	340
169	280
170	110
171	1321
172	210
173	30
175	20
177	20
178	60
179	90
180	50
181	170
182	220
183	160
184	90
185	50
186	20
187	30
192	80
193	150
194	150
195	230
196	150
197	280
198	80
199	80
200	20
206	50
209	120
210	240
211	540
212	160
213	100
214	40
220	100
221	30
223	120
224	290
225	230
226	50
227	40
234	150
235	40
237	20
238	130
239	891
240	200
241	50
251	30
252	711
253	9999
254	2532
255	380
256	30
257	1401
258	220
259	20
268	90
269	70
270	270
271	1792
272	510
273	160
295	240
296	140
297	100
309	20
310	30
311	40
312	10
325	250
326	40
339	70
351	20
366	40
367	40
392	30
