Mass Spectrum: Fumaric acid, 3-heptyl pentadecyl ester
Formula: C26 H48 O4
Molecular weight: 424
Origin: V.G. Zaikin, R.S.Borisov, TIPS RAS, Moscow, Russia
m/z	RELATIVE INTENSITY
25	20
26	240
27	781
29	1381
30	30
31	40
38	40
39	561
40	120
41	3393
42	901
43	4994
45	80
50	10
51	30
53	370
54	1051
55	6276
56	3523
57	9999
58	510
59	120
65	40
66	80
67	1001
68	951
69	6576
70	2572
71	3313
72	290
73	100
74	20
77	30
79	90
80	90
81	1101
82	2302
83	6166
84	1051
85	2222
86	160
87	40
91	30
93	90
94	80
95	721
96	1011
97	5765
98	5085
99	4524
100	6025
101	1421
102	100
105	20
107	70
108	60
109	450
110	530
111	3543
112	581
113	581
114	120
115	340
116	120
117	3533
118	2072
119	851
120	50
121	80
122	80
123	340
124	410
125	1501
126	350
127	470
128	150
129	130
130	60
131	30
135	40
136	80
137	290
138	410
139	681
140	250
141	470
142	80
143	40
145	20
147	20
149	50
150	100
151	230
152	270
153	530
154	310
155	340
156	150
157	581
158	80
159	20
163	40
164	60
165	120
166	190
167	210
168	290
169	410
170	120
171	771
172	110
173	20
177	30
178	90
179	110
180	210
181	180
182	290
183	200
184	60
185	50
192	30
193	40
194	60
195	160
196	280
197	1021
198	210
199	80
200	20
205	20
206	40
208	540
209	310
210	210
211	981
212	190
213	70
214	20
215	1011
216	130
217	10
219	20
220	30
221	40
222	30
223	180
224	140
225	270
226	70
227	170
228	30
229	20
233	20
235	30
236	20
237	240
238	180
239	100
240	50
241	60
245	30
247	20
248	60
249	50
251	250
252	250
253	90
254	40
255	110
261	20
262	40
263	140
264	50
265	200
266	380
267	270
268	50
269	80
270	20
279	120
280	310
281	80
282	20
283	30
290	150
291	170
292	20
297	30
307	30
308	851
309	3073
310	901
311	150
324	30
325	40
326	250
327	581
328	130
329	20
339	30
340	50
366	50
367	40
395	20
