Mass Spectrum: D-Alanine, N-(4-anisoyl)-, isohexyl ester
Formula: C17 H25 N O4
Molecular weight: 307
Origin: V.G. Zaikin, R.S.Borisov, TIPS RAS, Moscow, Russia
m/z	RELATIVE INTENSITY
27	30
28	10
29	40
39	30
41	90
42	30
43	200
44	100
51	50
55	40
56	20
63	20
64	40
65	20
76	40
77	601
78	60
79	30
92	250
93	20
105	60
120	80
121	80
134	40
135	9999
136	751
137	60
174	20
178	3133
179	370
180	30
206	80
307	30
