Mass Spectrum: Fumaric acid, 2-methylpent-3-yl undecyl ester
Formula: C21 H38 O4
Molecular weight: 354
Origin: L.N.Kulikova, V.G. Zaikin, RPFU, Moscow, Russia
m/z	RELATIVE INTENSITY
25	30
26	310
27	1121
29	1511
30	40
31	40
39	651
40	130
41	3853
42	991
43	7517
44	290
45	150
53	430
54	1221
55	6366
56	2302
57	4384
58	250
59	240
65	30
66	50
67	651
68	641
69	7807
70	1621
71	2392
72	260
73	80
80	30
81	851
82	2732
83	5705
84	8618
85	9999
86	681
87	10
93	30
94	30
95	330
96	360
97	5725
98	771
99	3863
100	6446
101	1281
102	90
107	20
108	20
109	180
110	190
111	1441
112	290
113	270
114	220
115	30
117	1001
118	821
119	190
121	10
122	20
123	80
124	160
125	140
126	300
127	160
128	80
129	70
130	20
136	20
137	90
138	70
139	140
140	70
141	170
142	571
143	330
144	100
150	20
151	30
152	290
153	230
154	350
155	801
156	120
157	410
158	40
164	30
165	30
166	40
167	30
168	40
169	100
170	20
171	711
172	100
181	60
182	120
183	781
184	130
185	20
192	10
195	40
196	30
197	20
198	20
199	30
201	651
202	60
209	30
210	20
211	90
223	30
224	90
225	70
234	40
241	20
252	170
253	4784
254	1131
255	140
270	50
271	100
272	20
283	20
296	80
297	70
298	30
325	70
