Mass Spectrum: Fumaric acid, 2-heptyl pentadecyl ester
Formula: C26 H48 O4
Molecular weight: 424
Origin: V.G. Zaikin, R.S.Borisov, TIPS RAS, Moscow, Russia
m/z	RELATIVE INTENSITY
25	20
26	220
27	751
29	1141
30	20
31	20
37	20
38	50
39	601
40	70
41	3533
42	981
43	5055
44	150
45	140
50	20
51	30
53	360
54	1021
55	6286
56	3823
57	9999
58	490
59	30
65	40
66	90
67	991
68	1001
69	5955
70	2752
71	3063
72	480
73	110
74	20
77	30
79	110
80	90
81	1061
82	2222
83	5465
84	1131
85	1922
86	140
87	20
91	40
93	70
94	90
95	681
96	1081
97	5045
98	4914
99	4354
100	5765
101	1341
102	90
105	20
107	60
108	60
109	430
110	510
111	2602
112	510
113	480
114	120
115	220
116	160
117	4044
118	2042
119	1031
120	60
121	70
122	70
123	360
124	490
125	1812
126	400
127	440
128	60
129	40
131	20
135	50
136	80
137	300
138	300
139	571
140	280
141	470
142	160
143	90
144	20
145	30
149	50
150	80
151	250
152	530
153	671
154	330
155	360
156	110
157	540
158	70
159	50
163	40
164	70
165	120
166	190
167	180
168	300
169	430
170	220
171	841
172	150
173	40
177	30
178	80
179	100
180	220
181	190
182	320
183	260
184	70
185	40
187	20
192	30
193	40
194	70
195	170
196	260
197	1071
198	270
199	100
200	30
201	40
205	20
206	50
208	611
209	300
210	240
211	691
212	140
213	70
214	30
215	1161
216	170
217	30
219	20
220	30
221	40
222	40
223	200
224	160
225	290
226	80
227	160
228	20
229	30
233	10
235	30
236	20
237	270
238	200
239	130
240	50
241	80
245	20
247	20
248	70
249	60
251	290
252	280
253	100
254	50
255	130
256	20
261	20
262	40
263	120
264	40
265	230
266	400
267	320
268	50
269	100
270	30
279	130
280	350
281	110
282	20
283	50
290	170
291	130
292	10
297	40
307	40
308	961
309	2492
310	751
311	130
324	40
325	70
326	240
327	641
328	150
329	30
351	30
352	20
380	70
381	90
382	20
