Mass Spectrum: Fumaric acid, pent-4-en-2-yl pentyl ester
Formula: C14 H22 O4
Molecular weight: 254
Origin: L.N.Kulikova, V.G. Zaikin, RPFU, Moscow, Russia
m/z	RELATIVE INTENSITY
26	110
27	320
29	210
39	260
40	60
41	931
42	240
43	771
45	30
53	200
54	380
55	711
56	30
65	10
67	290
68	1111
69	931
70	200
71	410
72	30
81	260
82	450
83	30
84	20
95	100
97	30
98	40
99	1932
100	300
101	40
112	80
117	90
139	40
140	120
141	30
167	480
168	50
169	9999
170	931
171	90
