Mass Spectrum: Fumaric acid, 2-hexyl pentadecyl ester
Formula: C25 H46 O4
Molecular weight: 410
Origin: L.N.Kulikova, V.G. Zaikin, RPFU, Moscow, Russia
m/z	RELATIVE INTENSITY
25	30
26	330
27	1061
29	1621
30	50
31	30
39	761
40	170
41	4514
42	2022
43	9999
44	80
45	250
50	20
51	30
53	450
54	1331
55	8848
56	4354
57	8077
58	420
59	40
65	50
66	130
67	1391
68	1411
69	8197
70	2422
71	4574
72	360
73	150
74	40
77	40
79	130
80	120
81	1411
82	3183
83	7937
84	7126
85	7737
86	520
87	40
91	70
93	100
94	120
95	931
96	1511
97	6826
98	1301
99	5875
100	7777
101	2112
102	150
103	20
105	40
107	80
108	80
109	631
110	791
111	4434
112	831
113	721
114	150
115	80
116	160
117	7417
118	2943
119	1421
120	90
121	80
122	110
123	460
124	591
125	1742
126	490
127	611
128	120
129	80
131	30
135	70
136	130
137	460
138	641
139	931
140	420
141	741
142	140
143	90
144	30
145	80
147	30
149	60
150	90
151	260
152	390
153	761
154	550
155	681
156	300
157	821
158	140
159	60
163	50
164	110
165	200
166	280
167	240
168	290
169	340
170	120
171	1011
172	160
173	60
177	40
178	80
179	130
180	310
181	260
182	530
183	1521
184	370
185	100
186	30
187	60
191	30
192	50
193	70
194	100
195	220
196	230
197	290
198	90
199	110
200	50
201	1752
202	240
203	50
205	40
206	70
208	721
209	410
210	310
211	861
212	190
213	90
214	40
215	30
219	30
220	40
221	50
222	60
223	260
224	200
225	400
226	100
227	220
228	40
229	40
231	20
233	30
234	20
235	50
236	20
237	350
238	240
239	140
240	70
241	130
242	20
243	20
245	40
247	30
248	90
249	80
250	20
251	360
252	310
253	120
254	50
255	130
256	40
261	30
262	60
263	170
264	60
265	300
266	470
267	380
268	80
269	110
270	20
279	160
280	400
281	130
282	30
283	60
290	220
291	160
292	20
293	10
297	40
307	50
308	1001
309	2833
310	771
311	140
324	40
325	80
326	230
327	711
328	140
329	20
366	60
367	40
381	50
