Mass Spectrum: Malonic acid, 3-methylpentyl pentyl ester
Formula: C14 H26 O4
Molecular weight: 258
Origin: V.G. Zaikin, R.S.Borisov, TIPS RAS, Moscow, Russia
m/z	RELATIVE INTENSITY
26	70
27	480
29	1071
30	50
39	340
40	80
41	1802
42	1331
43	4884
45	30
53	130
54	170
55	2803
56	1351
57	1361
60	160
61	90
67	160
68	170
69	3263
70	1441
71	1892
72	110
82	70
83	350
84	5115
85	8027
86	571
87	1902
88	50
89	60
97	180
99	40
100	50
101	60
102	30
104	60
105	9999
106	370
107	90
111	30
113	70
114	60
115	60
117	10
118	50
129	30
130	20
131	120
132	310
133	150
141	20
157	550
158	20
159	210
171	621
172	60
175	1131
176	80
189	300
201	380
202	60
215	40
229	230
