Mass Spectrum: Malonic acid, undecyl 3-methylbutyl ester
Formula: C19 H36 O4
Molecular weight: 328
Origin: L.N.Kulikova, V.G. Zaikin, RPFU, Moscow, Russia
m/z	RELATIVE INTENSITY
26	50
27	290
28	240
29	611
30	30
31	30
39	250
40	60
41	1511
42	821
43	3833
44	110
45	40
53	90
54	250
55	2602
56	1151
57	1962
58	70
60	50
61	40
67	290
68	400
69	1561
70	3123
71	9999
72	571
73	20
79	20
81	120
82	340
83	981
84	510
85	581
86	90
87	591
89	20
95	60
96	130
97	761
98	260
99	190
100	20
103	10
104	20
105	5205
106	190
107	50
109	20
110	40
111	270
112	90
113	80
114	30
115	40
124	20
125	90
126	180
127	20
131	60
132	150
133	60
153	10
154	120
155	40
157	230
158	10
159	80
175	2022
176	170
177	20
215	20
241	40
259	60
285	130
286	20
