Mass Spectrum: Fumaric acid, 4-methylpent-2-yl octyl ester
Formula: C18 H32 O4
Molecular weight: 312
Origin: V.G. Zaikin, R.S.Borisov, TIPS RAS, Moscow, Russia
m/z	RELATIVE INTENSITY
26	20
27	80
28	50
29	130
39	90
40	20
41	681
42	270
43	1261
44	20
45	30
53	100
54	270
55	1171
56	661
57	1001
58	50
59	20
66	20
67	160
68	160
69	3523
70	741
71	841
72	60
73	40
81	310
82	851
83	891
84	4664
85	3363
86	210
95	60
96	30
97	100
98	50
99	2242
100	2692
101	400
102	30
109	40
110	160
111	530
112	340
113	250
114	30
117	831
118	250
119	60
123	30
124	20
126	40
127	50
128	20
129	140
137	40
138	70
139	120
140	80
141	70
143	10
153	90
154	130
155	100
156	50
157	350
158	50
165	40
167	30
168	20
169	90
171	220
172	40
181	30
182	90
183	1181
184	160
185	20
192	30
201	691
202	70
210	80
211	9999
212	1742
213	190
226	20
227	20
228	30
229	581
230	100
241	30
269	100
297	150
298	20
