Mass Spectrum: Malonic acid, di(3-methylpentyl) ester
Formula: C15 H28 O4
Molecular weight: 272
Origin: V.G. Zaikin, R.S.Borisov, TIPS RAS, Moscow, Russia
m/z	RELATIVE INTENSITY
26	30
27	290
29	661
30	20
39	280
40	50
41	1281
42	520
43	3073
53	120
54	160
55	1882
56	1101
57	1261
60	40
67	130
68	80
69	2793
70	120
71	40
82	40
83	340
84	4934
85	9999
86	611
87	460
99	20
101	50
105	1842
106	60
113	20
114	60
115	20
129	30
131	50
132	320
133	90
141	20
159	200
171	350
172	30
189	681
190	60
215	460
216	80
243	200
244	20
273	30
