Mass Spectrum: Fumaric acid, 2-butyl heptyl ester
Formula: C15 H26 O4
Molecular weight: 270
Origin: V.G. Zaikin, R.S.Borisov, TIPS RAS, Moscow, Russia
m/z	RELATIVE INTENSITY
26	300
27	961
29	1421
30	50
31	50
39	510
40	80
41	2783
42	731
43	1451
44	50
45	170
53	400
54	1071
55	4464
56	5035
57	6466
58	280
66	20
67	200
68	420
69	1501
70	1762
71	851
72	170
73	310
74	20
80	20
81	751
82	1531
83	360
86	20
95	70
96	190
97	771
98	801
99	4744
100	3683
101	450
102	30
109	120
110	30
112	110
113	50
114	30
115	160
117	7497
118	540
119	100
123	50
124	20
125	30
126	100
127	420
128	180
129	60
130	30
133	50
136	20
137	20
139	120
140	50
143	20
151	30
152	30
153	60
154	170
155	2152
156	220
157	350
158	30
168	50
169	30
171	110
172	30
173	1301
174	100
175	20
178	20
196	60
197	9999
198	1341
199	160
200	20
213	60
215	1061
216	110
227	30
