Mass Spectrum: Fumaric acid, di(4-heptyl) ester
Formula: C18 H32 O4
Molecular weight: 312
Origin: V.G. Zaikin, R.S.Borisov, TIPS RAS, Moscow, Russia
m/z	RELATIVE INTENSITY
26	70
27	310
29	240
39	140
41	691
42	130
43	571
45	20
53	120
54	380
55	1161
56	601
57	1351
58	60
67	40
68	40
69	400
70	290
71	170
72	50
73	90
81	260
82	911
83	100
84	10
96	20
97	300
98	921
99	5105
100	1211
101	80
109	20
114	30
115	370
116	30
117	591
118	40
123	30
124	100
125	90
126	50
129	20
142	90
143	170
144	60
151	20
155	20
168	40
169	80
170	20
171	470
172	40
196	40
197	9999
198	1071
199	110
215	200
216	20
241	40
