Mass Spectrum: Fumaric acid, 3,3-dimethylbut-2-yl hexadecyl ester
Formula: C26 H48 O4
Molecular weight: 424
Origin: V.G. Zaikin, R.S.Borisov, TIPS RAS, Moscow, Russia
m/z	RELATIVE INTENSITY
26	100
27	300
28	210
29	530
30	20
39	320
40	70
41	2022
42	460
43	4024
44	220
45	60
50	10
51	20
53	180
54	490
55	2732
56	1031
57	4684
58	210
65	20
66	40
67	540
68	470
69	3533
70	921
71	1501
72	130
73	50
77	20
79	70
80	40
81	430
82	1301
83	2702
84	3723
85	9999
86	701
87	40
91	20
93	40
94	30
95	330
96	430
97	2272
98	380
99	2092
100	6206
101	851
102	80
105	10
107	30
108	20
109	200
110	210
111	1161
112	230
113	180
114	30
115	20
117	781
118	741
119	430
120	20
121	20
122	30
123	150
124	150
125	500
126	130
127	160
128	40
129	20
135	20
136	20
137	130
138	120
139	230
140	100
141	170
142	30
143	20
145	140
147	10
150	20
151	60
152	100
153	220
154	130
155	200
156	50
157	250
158	20
164	20
165	60
166	80
167	100
168	80
169	70
170	20
171	400
172	60
173	30
178	20
179	30
180	50
181	90
182	100
183	400
184	80
185	30
193	20
194	70
195	70
196	80
197	70
198	20
199	30
201	470
202	50
207	20
209	50
210	50
211	60
212	20
213	20
221	20
222	230
223	110
224	90
225	130
226	30
227	20
237	80
238	70
239	100
240	20
241	90
251	90
252	90
253	30
255	20
265	80
266	130
267	50
268	20
269	30
277	40
279	60
280	150
281	90
283	20
293	30
294	110
295	50
304	50
305	40
322	350
323	410
324	2662
325	571
326	70
340	90
341	40
369	80
409	260
410	60
