Mass Spectrum: Fumaric acid, 2-decyl isobutyl ester
Formula: C18 H32 O4
Molecular weight: 312
Origin: V.G. Zaikin, R.S.Borisov, TIPS RAS, Moscow, Russia
m/z	RELATIVE INTENSITY
26	120
27	440
29	701
39	280
40	60
41	1551
42	400
43	1461
45	70
53	200
54	540
55	1802
56	1682
57	3073
58	170
59	20
67	170
68	170
69	1071
70	1021
71	621
72	90
73	40
81	420
82	1081
83	981
84	741
85	631
86	30
95	70
96	190
97	1191
98	601
99	3503
100	2052
101	200
109	70
110	60
111	611
112	360
113	50
114	130
115	110
117	1371
118	160
119	30
123	40
124	70
125	80
126	50
127	90
137	70
138	60
139	40
140	1201
141	250
142	110
151	20
152	30
153	60
154	50
155	9999
156	1201
157	210
158	20
161	30
165	20
166	20
167	390
168	60
170	50
171	50
172	30
173	701
174	140
175	20
179	20
183	20
193	30
194	30
197	110
198	70
210	30
211	60
212	40
220	20
227	50
238	20
239	1271
240	200
241	30
257	60
297	40
