Mass Spectrum: Fumaric acid, butyl 2-ethylphenyl ester
Formula: C16 H20 O4
Molecular weight: 276
Origin: L.N.Kulikova, V.G. Zaikin, RPFU, Moscow, Russia
m/z	RELATIVE INTENSITY
26	150
27	310
28	160
29	410
39	180
40	20
41	130
44	30
45	40
50	50
51	160
52	70
53	320
54	380
55	190
57	1932
58	90
63	70
64	20
65	170
66	20
77	781
78	250
79	170
81	621
82	460
89	30
90	10
91	571
92	80
93	70
94	60
99	8498
100	340
101	160
102	40
103	430
104	80
105	290
106	40
107	1812
108	140
115	30
116	20
119	70
120	220
121	1621
122	2893
123	290
129	20
130	30
131	50
132	20
147	360
148	30
155	9999
156	1011
157	120
160	20
161	120
174	80
175	400
176	50
178	30
191	40
192	20
202	140
203	971
204	140
205	20
220	40
258	30
276	300
277	30
