Mass Spectrum: Fumaric acid, 2,4-dimethylpent-3-yl isobutyl ester
Formula: C15 H26 O4
Molecular weight: 270
Origin: V.G. Zaikin, R.S.Borisov, TIPS RAS, Moscow, Russia
m/z	RELATIVE INTENSITY
26	80
27	280
29	250
39	160
40	30
41	691
42	70
43	731
44	20
45	30
53	100
54	420
55	611
56	350
57	1952
58	90
67	20
69	60
70	30
71	120
72	60
73	100
81	210
82	901
83	761
84	40
85	20
97	190
98	340
99	2502
100	1441
101	110
109	20
114	130
115	60
117	50
125	50
126	30
127	30
142	380
143	100
144	20
155	9999
156	1051
157	130
169	30
197	861
198	110
199	120
200	70
227	420
228	50
