Mass Spectrum: Fumaric acid, 4-methylpent-2-yl tetradecyl ester
Formula: C24 H44 O4
Molecular weight: 396
Origin: V.G. Zaikin, R.S.Borisov, TIPS RAS, Moscow, Russia
m/z	RELATIVE INTENSITY
26	60
27	210
29	430
37	40
39	260
40	70
41	1521
42	460
43	3253
44	681
45	30
50	20
51	50
53	90
54	601
55	3313
56	1411
57	3063
58	160
59	20
60	20
63	10
65	60
66	50
67	671
68	561
69	5955
70	1231
71	1872
72	120
73	50
74	30
77	50
78	60
79	80
80	80
81	721
82	1341
83	4314
84	7827
85	9999
86	671
87	40
91	70
93	60
94	60
95	480
96	771
97	3783
98	711
99	2963
100	4674
101	1011
102	80
103	30
104	50
105	50
107	70
108	40
109	300
110	420
111	2622
112	510
113	420
114	100
115	30
116	80
117	1802
118	1291
119	601
120	80
121	70
122	40
123	270
124	310
125	1081
126	230
127	280
128	60
129	20
130	20
131	20
133	50
134	40
135	100
136	40
137	260
138	340
139	440
140	270
141	400
142	70
143	30
145	30
149	20
150	110
151	180
152	200
153	390
154	390
155	290
156	110
157	681
158	120
159	40
163	20
164	60
165	130
166	240
167	140
168	260
169	180
170	60
171	861
172	110
173	50
174	60
177	30
178	30
179	60
180	60
181	140
182	270
183	1181
184	280
185	70
186	20
187	30
192	40
193	60
194	490
195	280
196	210
197	430
199	50
201	1331
202	170
203	20
208	30
209	110
210	100
211	230
212	70
213	210
214	30
215	40
219	40
221	40
223	160
224	110
225	80
226	40
227	40
230	20
234	50
235	50
237	220
238	180
239	80
240	50
241	90
247	30
248	20
249	80
250	30
251	180
252	260
253	210
254	40
255	60
256	20
259	20
265	130
266	260
267	80
269	20
276	120
277	90
281	40
283	40
293	30
294	781
295	2803
296	781
297	110
311	70
312	180
313	490
314	90
353	120
381	310
382	60
