Mass Spectrum: D-Alanine, N-(4-anisoyl)-, isobutyl ester
Formula: C15 H21 N O4
Molecular weight: 279
Origin: V.G. Zaikin, R.S.Borisov, TIPS RAS, Moscow, Russia
m/z	RELATIVE INTENSITY
27	30
28	30
29	70
39	50
41	110
42	50
43	50
44	100
50	20
51	70
56	20
57	60
63	40
64	70
65	30
76	60
77	801
78	80
79	40
92	330
93	30
105	70
120	90
121	90
134	40
135	9999
136	851
137	70
146	50
178	2853
179	340
180	20
206	150
279	50
