Mass Spectrum: Silane, dimethyl(dodec-2-enyloxy)octyloxy-
Formula: C22 H46 O2 Si
Molecular weight: 370
Origin: V.G. Zaikin, R.S.Borisov, TIPS RAS, Moscow, Russia
m/z	RELATIVE INTENSITY
27	80
29	180
39	130
40	30
41	631
42	150
43	641
45	50
47	40
53	80
54	330
55	1101
56	200
57	530
58	40
59	210
60	20
61	250
63	50
66	80
67	781
68	571
69	2402
70	220
71	250
72	20
74	50
75	5435
76	430
77	2993
78	160
79	140
80	80
81	981
82	1131
83	691
84	100
87	120
88	50
89	981
90	90
91	370
92	20
93	971
94	80
95	1131
96	911
97	390
98	60
99	340
100	40
101	761
102	80
103	340
104	30
105	821
106	60
107	70
108	20
109	741
110	581
111	420
112	60
113	320
114	90
115	1441
116	170
117	430
118	60
119	150
121	30
123	340
124	250
125	70
127	190
128	50
129	851
130	110
131	1621
132	170
137	140
138	290
139	30
141	110
142	20
143	340
144	90
145	911
146	100
147	50
155	60
157	200
158	30
159	280
161	20
165	210
166	691
167	70
169	50
171	340
172	40
173	140
183	20
185	230
186	40
187	6396
188	1001
189	5825
190	901
191	240
197	20
199	100
201	140
202	20
203	130
204	20
205	540
206	80
213	110
215	1021
216	160
217	330
218	30
225	240
226	40
227	631
228	110
229	130
230	20
240	40
241	210
242	30
243	9999
244	2012
245	761
246	80
255	30
257	2722
258	601
259	150
269	20
271	1621
272	360
273	100
285	561
286	120
287	20
297	30
299	2112
300	470
301	150
313	811
314	190
315	40
325	30
327	1311
328	320
329	70
341	300
342	70
355	3803
356	1031
357	310
358	50
369	100
370	1601
371	460
372	110
