Mass Spectrum: Fumaric acid, ethyl 3-heptyl ester
Formula: C13 H22 O4
Molecular weight: 242
Origin: V.G. Zaikin, R.S.Borisov, TIPS RAS, Moscow, Russia
m/z	RELATIVE INTENSITY
26	110
27	380
29	631
31	30
39	110
41	530
42	120
43	330
44	20
45	90
53	210
54	350
55	791
56	791
57	520
58	40
59	30
67	20
68	40
69	440
70	380
71	210
72	40
81	210
82	390
83	120
84	20
85	20
97	40
98	881
99	1321
100	290
101	30
110	20
111	170
112	20
115	70
117	280
127	9999
128	1231
129	130
138	50
142	80
145	651
146	50
151	20
156	10
157	50
158	20
169	20
185	30
197	490
198	50
