Mass Spectrum: D-Alanine, N-(4-anisoyl)-, pentyl ester
Formula: C16 H23 N O4
Molecular weight: 293
Origin: V.G. Zaikin, R.S.Borisov, TIPS RAS, Moscow, Russia
m/z	RELATIVE INTENSITY
27	40
28	20
29	60
39	30
41	80
42	60
43	140
44	100
50	20
51	50
55	20
63	30
64	60
65	30
76	50
77	721
78	70
79	40
92	310
93	30
105	70
120	90
121	80
134	40
135	9999
136	771
137	60
160	40
178	2662
179	320
180	20
206	70
293	50
