Mass Spectrum: Fumaric acid, heptyl 3-methylbut-2-yl ester
Formula: C16 H28 O4
Molecular weight: 284
Origin: V.G. Zaikin, R.S.Borisov, TIPS RAS, Moscow, Russia
m/z	RELATIVE INTENSITY
25	20
26	280
27	891
28	400
29	1001
30	40
31	20
39	440
40	100
41	2122
42	841
43	3353
44	100
45	210
51	20
53	320
54	941
55	4744
56	1461
57	2943
58	120
59	20
66	20
67	140
68	250
69	1161
70	6956
71	5075
72	270
73	70
79	20
81	480
82	1401
83	100
86	20
87	210
95	70
96	130
97	681
98	520
99	3383
100	3783
101	400
102	40
109	20
112	40
113	20
114	160
115	180
117	611
118	150
119	20
123	90
124	30
126	30
127	20
139	70
140	30
141	180
142	520
143	230
144	20
154	30
157	180
158	20
168	60
169	1101
170	110
171	100
172	20
187	490
188	40
196	40
197	9999
198	1541
199	150
215	50
