Mass Spectrum: Fumaric acid, ethyl 4-methylpent-2-yl ester
Formula: C12 H20 O4
Molecular weight: 228
Origin: V.G. Zaikin, R.S.Borisov, TIPS RAS, Moscow, Russia
m/z	RELATIVE INTENSITY
26	300
27	931
28	280
29	721
30	40
31	40
39	310
40	70
41	1301
42	510
43	2052
44	100
45	310
53	410
54	581
55	901
56	1722
57	420
58	40
59	60
67	60
68	20
69	2322
70	110
71	330
72	140
81	490
82	520
83	240
84	2983
85	951
86	50
97	20
98	30
99	3954
100	951
101	50
109	60
110	20
111	270
112	50
113	20
114	30
117	1061
118	40
127	9999
128	1772
129	170
136	10
137	20
138	40
142	150
143	100
145	661
146	60
147	20
155	30
171	30
183	851
184	90
185	40
213	20
