Mass Spectrum: Fumaric acid, isohexyl tetradec-3-enyl ester
Formula: C24 H42 O4
Molecular weight: 394
Origin: L.N.Kulikova, V.G. Zaikin, RPFU, Moscow, Russia
m/z	RELATIVE INTENSITY
25	20
26	180
27	691
29	931
30	30
39	681
40	60
41	4654
42	1061
43	7126
44	60
45	60
53	591
54	1832
55	7417
56	1672
57	1842
58	80
59	40
65	100
66	250
67	4084
68	4964
69	6296
70	751
71	851
72	200
73	20
77	70
79	90
80	320
81	4654
82	6746
83	3163
84	4854
85	9999
86	671
87	30
91	50
93	260
94	290
95	4364
96	4204
97	2122
98	280
99	3263
100	3663
101	470
102	50
107	200
108	220
109	2762
110	1982
111	1131
112	180
113	110
114	60
115	20
117	3213
118	370
119	140
120	30
121	340
122	230
123	1591
124	1141
125	530
126	310
127	130
128	70
129	20
131	40
134	30
135	290
136	200
137	1071
138	771
139	220
140	60
141	60
142	30
143	80
144	130
145	20
147	30
148	70
149	240
150	150
151	460
152	440
153	230
154	100
155	130
156	30
157	50
159	20
161	20
162	60
163	150
164	150
165	280
166	390
167	160
168	60
169	40
170	30
171	60
172	20
175	20
176	50
177	60
178	90
179	80
180	80
181	80
182	80
183	1171
184	330
185	60
187	20
190	40
191	30
192	460
193	561
194	821
195	170
196	100
197	20
199	20
201	571
202	70
203	30
204	20
205	40
206	50
209	20
210	340
211	150
212	30
219	50
220	40
221	60
222	100
223	50
224	100
225	20
232	90
233	40
235	90
236	170
237	60
238	20
239	20
246	60
247	90
248	90
249	110
250	691
251	190
252	30
263	120
264	591
265	200
266	80
274	180
275	100
277	30
292	1782
293	1441
294	320
295	50
310	100
311	20
337	20
379	200
380	40
394	70
