Mass Spectrum: Adipic acid, 3-methylbutyl tridecyl ester
Formula: C24 H46 O4
Molecular weight: 398
Origin: L.N.Kulikova, V.G. Zaikin, RPFU, Moscow, Russia
m/z	RELATIVE INTENSITY
26	30
27	180
29	380
39	170
40	30
41	1031
42	370
43	2472
44	70
45	30
53	70
54	180
55	1872
56	641
57	1361
58	60
59	110
60	30
61	50
67	220
68	230
69	961
70	1712
71	3273
72	180
73	190
81	120
82	250
83	891
84	480
85	611
86	120
87	791
88	20
95	70
96	130
97	460
98	210
99	230
100	701
101	1371
102	260
103	90
109	40
110	60
111	2192
112	420
113	130
114	20
115	60
123	20
124	30
125	90
126	120
127	120
128	220
129	9999
130	681
131	110
138	30
139	60
140	60
141	40
143	30
144	40
145	20
147	150
152	20
154	80
155	40
156	70
157	701
158	60
168	20
170	841
171	130
172	30
180	30
182	110
183	80
184	110
185	130
197	40
198	40
199	6576
200	811
201	80
213	180
214	30
217	821
218	110
225	60
226	30
227	160
240	50
243	20
254	50
255	20
257	20
268	80
269	180
270	20
282	80
283	20
297	50
309	20
310	50
311	1651
312	340
313	60
325	40
329	50
355	150
356	20
383	60
