Mass Spectrum: Adipic acid, isohexyl 3-methylbutyl ester
Formula: C17 H32 O4
Molecular weight: 300
Origin: L.N.Kulikova, V.G. Zaikin, RPFU, Moscow, Russia
m/z	RELATIVE INTENSITY
26	50
27	390
29	561
30	10
31	30
39	330
40	80
41	1641
42	591
43	5125
44	160
45	50
53	110
54	100
55	2052
56	1461
57	510
58	50
59	180
60	20
67	110
68	150
69	921
70	2102
71	3523
72	190
73	190
82	80
83	651
84	1001
85	3273
86	200
87	390
99	110
100	881
101	1411
102	210
103	130
110	60
111	2422
112	480
113	70
115	60
116	30
127	60
128	130
129	9999
130	641
131	80
143	30
147	60
155	20
156	20
157	711
158	70
170	771
171	791
172	110
183	30
184	631
185	70
186	20
197	20
199	4704
200	571
201	50
213	3143
214	390
215	30
217	340
218	30
231	90
257	691
258	90
285	40
