Mass Spectrum: Fumaric acid, butyl cis-hex-3-enyl ester
Formula: C14 H22 O4
Molecular weight: 254
Origin: L.N.Kulikova, V.G. Zaikin, RPFU, Moscow, Russia
m/z	RELATIVE INTENSITY
26	170
27	470
29	591
30	20
31	20
39	370
40	60
41	1311
42	70
45	30
53	320
54	731
55	1211
56	230
57	260
65	60
66	60
67	5085
68	420
72	40
77	20
79	40
80	30
81	1371
82	9999
83	791
95	30
98	30
99	1952
100	400
101	20
109	60
117	450
123	20
127	30
139	20
153	40
155	2592
156	250
157	30
173	60
181	260
182	20
