Mass Spectrum: Fumaric acid, 2,4-dimethylpent-3-yl pentadecyl ester
Formula: C26 H48 O4
Molecular weight: 424
Origin: V.G. Zaikin, R.S.Borisov, TIPS RAS, Moscow, Russia
m/z	RELATIVE INTENSITY
26	150
27	561
29	681
39	430
40	90
41	2352
42	540
43	4404
44	100
45	50
53	240
54	661
55	3904
56	1571
57	9999
58	440
59	20
65	30
66	40
67	621
68	480
69	3894
70	1401
71	2422
72	260
73	280
77	20
79	30
80	50
81	711
82	1792
83	6396
84	801
85	1361
86	90
91	10
93	50
94	40
95	440
96	450
97	4404
98	2953
99	6936
100	4664
101	1011
102	70
105	20
107	40
108	20
109	270
110	210
111	2302
112	350
113	270
114	200
115	230
116	20
117	711
118	731
119	350
120	20
121	40
122	30
123	170
124	190
125	1171
126	280
127	330
128	40
135	30
136	30
137	140
138	120
139	460
140	120
141	170
142	460
143	410
144	150
145	30
149	20
150	30
151	100
152	100
153	340
154	150
155	200
156	30
157	250
158	20
163	10
164	20
165	50
166	70
167	100
168	90
169	180
170	40
171	510
172	70
178	30
179	40
180	80
181	90
182	130
183	70
194	20
195	70
196	80
197	400
198	70
199	30
208	210
209	140
210	100
211	520
212	80
213	20
215	410
216	50
223	60
224	60
225	100
226	20
227	90
237	80
238	70
239	40
240	20
241	20
245	20
248	20
249	20
251	80
252	100
253	40
254	30
255	40
263	80
264	20
265	70
266	130
267	100
268	30
269	30
279	30
280	110
281	50
282	20
290	50
291	100
307	20
308	330
309	1621
310	681
311	120
326	110
327	50
352	130
353	170
354	150
355	20
381	380
382	90
409	20
