Mass Spectrum: Fumaric acid, 2-butyl tridecyl ester
Formula: C21 H38 O4
Molecular weight: 354
Origin: V.G. Zaikin, R.S.Borisov, TIPS RAS, Moscow, Russia
m/z	RELATIVE INTENSITY
27	50
28	40
29	120
39	80
40	20
41	791
42	200
43	1221
44	170
45	40
50	20
51	20
53	250
54	691
55	3823
56	3053
57	4844
58	240
59	20
65	30
66	60
67	751
68	851
69	4854
70	1892
71	2172
72	240
73	330
74	20
77	30
79	80
80	60
81	811
82	1982
83	5125
84	1381
85	1682
86	110
87	20
91	30
93	50
94	60
95	520
96	911
97	4744
98	1041
99	5085
100	5725
101	1141
102	90
105	30
107	40
108	50
109	410
110	490
111	2682
112	631
113	450
114	90
115	40
116	20
117	9999
118	2302
119	721
120	50
121	50
122	50
123	270
124	400
125	1121
126	410
127	761
128	210
129	90
130	60
131	20
135	20
136	70
137	230
138	260
139	390
140	220
141	350
142	80
143	70
144	20
145	20
149	30
150	70
151	140
152	340
153	440
154	581
155	2042
156	601
157	731
158	90
163	20
164	60
165	80
166	140
167	100
168	220
169	230
170	90
171	751
172	160
173	2572
174	340
175	60
177	20
178	60
179	90
180	530
181	270
182	440
183	581
184	110
185	70
186	30
187	20
191	10
192	30
193	40
194	50
195	160
196	110
197	350
198	70
199	200
200	50
201	50
202	40
203	20
205	20
206	20
208	20
209	160
210	110
211	100
212	50
213	130
214	20
217	20
219	20
220	50
221	60
223	200
224	120
225	80
226	40
227	90
228	40
233	20
234	40
235	110
236	30
237	230
238	190
239	330
240	50
241	120
242	10
251	160
252	250
253	150
254	40
255	30
262	150
263	40
269	30
279	40
280	510
281	2172
282	480
283	70
297	50
298	90
299	761
300	120
311	20
