Mass Spectrum: Silane, dimethyl(dec-4-enyloxy)tetradecyloxy-
Formula: C26 H54 O2 Si
Molecular weight: 426
Origin: V.G. Zaikin, R.S.Borisov, TIPS RAS, Moscow, Russia
m/z	RELATIVE INTENSITY
26	70
27	200
29	350
36	10
39	260
41	1221
42	260
43	1321
44	210
45	30
47	10
51	50
53	170
54	1221
55	2032
56	450
57	1221
58	30
59	220
61	240
65	40
66	330
67	2933
68	7016
69	2302
70	340
71	601
73	150
74	10
75	3733
76	210
77	1782
78	80
79	460
80	190
81	4384
82	4354
83	2092
84	220
85	340
87	130
88	20
89	1181
90	40
91	420
92	20
93	651
94	90
95	3123
96	4914
97	1742
98	200
99	220
100	10
101	991
102	60
103	430
104	20
105	1231
106	60
107	130
108	50
109	2152
110	2722
111	611
112	50
113	200
114	50
115	781
116	40
117	230
118	60
119	200
121	90
123	230
124	20
125	80
127	210
128	60
129	510
130	20
131	811
132	40
133	150
136	90
137	350
138	9999
139	1111
140	40
141	150
143	310
144	20
145	380
146	10
147	110
151	10
153	20
155	110
157	120
159	240
169	50
171	110
173	70
183	40
185	70
187	30
191	30
192	20
193	40
194	130
196	10
197	490
198	50
199	921
200	80
201	40
207	40
208	10
211	10
212	170
213	811
214	80
215	270
216	20
217	120
223	10
225	10
229	90
230	10
231	10
243	671
244	60
255	110
257	10
267	10
269	20
271	1161
272	210
273	1842
274	310
275	40
285	10
287	30
289	170
290	10
297	30
299	581
300	90
301	771
302	120
314	20
315	20
327	1481
328	380
329	60
341	140
342	10
355	100
356	10
369	220
370	10
371	10
383	801
384	170
385	20
397	130
398	20
409	10
411	2863
412	871
426	751
427	200
428	20
429	10
