Mass Spectrum: Fumaric acid, 2-heptyl pentyl ester
Formula: C16 H28 O4
Molecular weight: 284
Origin: V.G. Zaikin, R.S.Borisov, TIPS RAS, Moscow, Russia
m/z	RELATIVE INTENSITY
26	120
27	430
29	540
30	20
31	30
39	240
40	40
41	1171
42	611
43	1722
45	70
53	180
54	500
55	1702
56	1551
57	1661
58	100
67	100
68	190
69	1171
70	1391
71	1001
72	90
73	40
81	340
82	781
83	360
84	210
85	190
86	20
87	50
95	70
96	70
97	300
98	2112
99	2482
100	1842
101	130
109	20
110	20
111	100
112	80
113	40
114	70
115	110
117	2212
118	130
119	20
123	50
124	80
125	410
126	70
127	40
133	20
138	20
139	40
140	60
141	140
142	60
151	40
152	170
153	70
154	20
157	50
168	80
169	9999
170	1401
171	170
183	70
184	50
187	661
188	80
189	30
196	20
197	1001
198	110
212	10
215	220
216	20
241	40
255	20
