Mass Spectrum: Fumaric acid, heptadecyl 3-methylbut-2-yl ester
Formula: C26 H48 O4
Molecular weight: 424
Origin: V.G. Zaikin, R.S.Borisov, TIPS RAS, Moscow, Russia
m/z	RELATIVE INTENSITY
26	130
27	420
29	561
30	30
31	20
36	30
39	360
40	90
41	2032
42	721
43	4734
44	390
45	90
50	20
51	30
53	220
54	691
55	4464
56	1491
57	3964
58	180
65	30
66	70
67	811
68	751
69	4024
70	6326
71	9999
72	581
73	100
77	30
79	120
80	80
81	801
82	1672
83	4174
84	1011
85	1902
86	150
87	170
91	50
93	70
94	80
95	591
96	891
97	4174
98	741
99	2612
100	4354
101	1251
102	80
103	20
105	40
107	50
108	50
109	400
110	430
111	2192
112	470
113	360
114	130
115	60
116	30
117	2242
118	1311
119	811
120	50
121	60
122	70
123	330
124	340
125	1081
126	350
127	380
128	90
129	80
131	20
133	30
135	60
136	70
137	250
138	260
139	510
140	230
141	571
142	330
143	230
144	100
145	120
146	20
147	40
149	40
150	60
151	150
152	230
153	520
154	280
155	290
156	80
157	410
158	50
159	100
160	20
161	30
163	30
164	50
165	110
166	170
167	250
168	230
169	861
170	230
171	611
172	100
173	60
175	20
177	30
178	50
179	100
180	140
181	230
182	230
183	250
184	90
185	70
186	30
187	991
188	130
189	40
191	30
192	40
193	70
194	100
195	180
196	160
197	190
198	50
199	60
200	20
201	100
202	20
203	20
205	20
206	30
207	80
208	100
209	170
210	190
211	220
212	70
213	70
215	20
219	20
220	30
221	50
222	50
223	170
224	160
225	200
226	60
227	90
228	20
229	40
233	20
234	40
235	60
236	490
237	380
238	240
239	340
240	90
241	80
242	30
243	30
247	30
248	20
249	30
250	30
251	260
252	230
253	240
254	70
255	150
256	30
257	30
261	30
262	10
263	40
264	20
265	250
266	300
267	130
268	50
269	100
270	20
271	20
273	30
275	20
276	40
277	50
279	200
280	310
281	130
282	50
283	100
284	20
285	20
290	40
291	130
292	40
293	140
294	280
295	260
296	50
297	80
307	80
308	250
309	150
310	30
311	40
318	140
319	210
320	40
325	30
335	30
336	781
337	1421
338	500
339	100
353	40
354	180
355	100
356	20
380	150
381	50
409	100
410	30
