Mass Spectrum: Fumaric acid, butyl 2-methylpentyl ester
Formula: C14 H24 O4
Molecular weight: 256
Origin: V.G. Zaikin, R.S.Borisov, TIPS RAS, Moscow, Russia
m/z	RELATIVE INTENSITY
26	20
27	70
29	20
39	70
41	450
42	90
43	641
45	20
53	100
54	340
55	561
56	340
57	621
58	30
69	641
70	50
71	100
72	30
81	200
82	581
83	50
84	1381
85	641
86	40
97	80
98	40
99	1221
100	1111
101	50
109	20
114	70
117	320
127	30
128	30
129	20
142	180
143	40
154	20
155	9999
156	1321
157	100
173	90
183	661
184	70
185	30
198	10
199	40
200	20
201	40
227	80
