Mass Spectrum: Silane, dimethyl(but-3-enyloxy)tetradecyloxy-
Formula: C20 H42 O2 Si
Molecular weight: 342
Origin: V.G. Zaikin, R.S.Borisov, TIPS RAS, Moscow, Russia
m/z	RELATIVE INTENSITY
26	30
27	120
29	220
39	170
40	20
41	651
42	130
43	921
45	120
47	60
53	60
54	160
55	1191
56	240
57	1131
58	120
59	320
60	20
61	460
63	30
67	330
68	190
69	1381
70	200
71	631
72	30
73	20
74	40
75	3603
76	270
77	1181
78	60
79	60
81	330
82	230
83	2042
84	200
85	330
86	30
87	200
88	100
89	2612
90	230
91	440
92	20
93	70
95	320
96	140
97	1882
98	170
99	771
100	110
101	2282
102	220
103	681
104	40
105	811
106	50
107	741
108	40
109	160
110	40
111	811
112	90
113	290
114	40
115	2973
116	300
117	510
118	40
119	981
120	80
121	30
123	60
125	260
126	20
127	120
128	20
129	2262
130	260
131	791
132	70
133	370
134	20
137	20
139	60
141	100
143	170
144	20
145	601
146	50
147	90
149	20
151	20
155	30
157	90
159	1271
160	150
161	50
169	20
171	80
173	20
185	70
187	170
199	30
201	30
213	10
215	30
229	60
243	50
255	60
269	110
271	2322
272	490
273	180
285	110
287	40
297	210
298	30
299	290
300	50
301	9999
302	2292
303	581
304	60
327	3523
328	981
329	260
330	40
