Mass Spectrum: Malonic acid, 3,3-dimethylbut-2-yl tetradecyl ester
Formula: C23 H44 O4
Molecular weight: 384
Origin: V.G. Zaikin, R.S.Borisov, TIPS RAS, Moscow, Russia
m/z	RELATIVE INTENSITY
26	60
27	260
29	591
30	20
31	20
39	260
40	60
41	1672
42	490
43	3924
44	110
45	110
53	110
54	240
55	1772
56	1081
57	4394
58	170
59	10
60	150
61	250
66	20
67	370
68	480
69	2332
70	951
71	1631
72	100
73	40
77	10
79	60
80	20
81	240
82	901
83	1812
84	1872
85	7917
86	581
87	1031
88	40
89	100
95	160
96	360
97	1672
98	490
99	370
100	60
101	781
102	70
103	30
104	300
105	9999
106	340
107	90
109	80
110	180
111	1061
112	380
113	270
114	40
115	130
116	20
118	30
119	20
123	30
124	100
125	641
126	270
127	180
128	40
131	30
132	951
133	1201
134	80
135	20
137	20
138	60
139	280
140	170
141	110
142	20
143	20
145	80
152	20
153	90
154	100
155	50
161	380
162	20
167	40
168	671
169	80
173	40
182	20
189	60
194	10
195	310
196	1571
197	340
198	20
241	20
256	20
257	20
265	260
266	40
283	1191
284	220
285	30
301	60
328	180
329	230
330	30
369	270
370	50
