Mass Spectrum: Fumaric acid, 2-butyl decyl ester
Formula: C18 H32 O4
Molecular weight: 312
Origin: V.G. Zaikin, R.S.Borisov, TIPS RAS, Moscow, Russia
m/z	RELATIVE INTENSITY
25	30
26	360
27	1051
29	1782
30	60
31	40
39	701
40	140
41	4194
42	971
43	3703
44	160
45	160
50	40
51	30
52	30
53	460
54	1251
55	5645
56	5545
57	6015
58	280
65	30
66	50
67	621
68	841
69	4584
70	2472
71	2162
72	270
73	410
74	20
77	30
79	20
80	30
81	991
82	2212
83	5635
84	1401
85	1842
86	110
93	30
94	30
95	310
96	420
97	3113
98	781
99	5475
100	5515
101	881
102	50
107	20
109	270
110	300
111	751
112	581
113	210
114	40
115	40
117	9999
118	1371
119	320
120	20
123	60
124	70
125	60
126	170
127	571
128	210
129	90
130	40
136	50
137	80
138	330
139	270
140	490
141	460
142	70
143	60
150	30
152	80
153	230
154	290
155	2112
156	440
157	771
158	70
161	20
165	30
166	30
167	50
168	70
169	40
170	20
171	540
172	110
173	2172
174	210
175	40
178	20
181	70
182	150
183	110
184	30
185	20
193	50
197	110
198	20
199	30
201	20
209	40
210	110
211	90
212	10
213	80
220	50
227	20
237	30
238	200
239	4954
240	881
241	70
256	30
257	911
258	120
