Mass Spectrum: Fumaric acid, decyl 3-heptyl ester
Formula: C21 H38 O4
Molecular weight: 354
Origin: V.G. Zaikin, R.S.Borisov, TIPS RAS, Moscow, Russia
m/z	RELATIVE INTENSITY
25	20
26	190
27	731
29	1221
30	30
31	40
39	430
40	90
41	2752
42	741
43	3213
45	70
53	350
54	951
55	5055
56	3123
57	6005
58	320
59	100
65	30
66	30
67	470
68	561
69	4744
70	2302
71	1872
72	200
73	70
80	30
81	811
82	1992
83	5115
84	791
85	1551
86	110
87	20
91	50
93	30
94	30
95	240
96	260
97	2732
98	4514
99	4234
100	4924
101	851
102	60
107	20
108	20
109	130
110	230
111	811
112	350
113	170
114	60
115	290
116	100
117	2412
118	761
119	180
121	20
122	20
123	80
124	50
125	40
126	90
127	120
128	160
129	120
130	40
136	70
137	80
138	440
139	270
140	260
141	951
142	110
143	30
150	50
151	90
152	80
153	180
154	180
155	170
156	110
157	651
158	80
165	20
166	20
167	70
168	130
169	230
170	70
171	480
172	70
178	60
179	30
181	70
182	80
183	40
184	20
185	20
193	40
195	60
196	140
197	1001
198	150
199	40
209	20
210	100
211	100
212	20
215	731
216	90
220	50
238	190
239	9999
240	1972
241	250
242	20
254	20
255	50
256	40
257	691
258	120
269	70
270	70
296	30
297	50
