Mass Spectrum: Fumaric acid, decyl 2,4-dimethylpent-3-yl ester
Formula: C21 H38 O4
Molecular weight: 354
Origin: V.G. Zaikin, R.S.Borisov, TIPS RAS, Moscow, Russia
m/z	RELATIVE INTENSITY
25	20
26	200
27	801
29	921
30	20
31	20
39	550
40	120
41	3043
42	651
43	4674
44	170
45	90
53	360
54	1021
55	5395
56	1842
57	8217
58	380
59	60
65	30
66	30
67	480
68	420
69	4594
70	1401
71	1972
72	310
73	360
77	10
80	30
81	741
82	2472
83	8958
84	1031
85	1311
86	90
93	20
94	30
95	210
96	210
97	3573
98	2672
99	7136
100	6296
101	1111
102	80
109	130
110	120
111	330
112	250
113	120
114	350
115	320
116	20
117	550
118	470
119	100
123	20
124	30
125	80
126	130
127	150
128	20
137	50
138	210
139	150
140	220
141	941
142	1021
143	671
144	140
145	20
150	20
151	40
152	40
153	170
154	130
155	180
156	20
157	500
158	50
165	20
167	30
168	50
169	190
170	40
171	510
172	80
178	30
179	20
181	70
182	50
183	40
184	20
185	20
193	30
195	40
196	40
197	671
198	90
199	30
209	20
210	60
211	80
215	440
216	50
220	30
238	130
239	9999
240	2362
241	310
242	20
255	20
256	50
257	60
282	100
283	360
284	280
285	40
311	731
312	140
