Mass Spectrum: Fumaric acid, 3,3-dimethylbut-2-yl octyl ester
Formula: C18 H32 O4
Molecular weight: 312
Origin: V.G. Zaikin, R.S.Borisov, TIPS RAS, Moscow, Russia
m/z	RELATIVE INTENSITY
25	20
26	260
27	831
29	1301
30	40
31	30
39	540
40	120
41	3593
42	831
43	4384
44	310
45	140
51	20
53	360
54	991
55	3443
56	1401
57	6556
58	290
59	20
65	20
66	30
67	330
68	330
69	5435
70	1361
71	1531
72	190
73	60
81	410
82	1992
83	1011
84	3053
85	6336
86	440
87	40
95	80
97	120
98	40
99	3934
100	9999
101	941
102	80
109	40
110	140
111	240
112	310
113	160
117	290
118	230
119	50
123	30
126	30
127	30
129	160
137	40
139	60
140	30
141	20
143	20
145	190
153	60
154	70
155	130
157	260
158	20
165	40
168	20
171	220
172	40
182	60
183	751
184	90
192	20
201	430
202	40
210	70
211	5365
212	6246
213	841
214	80
228	20
229	70
241	20
257	210
258	20
297	160
298	20
