Mass Spectrum: Adipic acid, 3-methylbutyl undecyl ester
Formula: C22 H42 O4
Molecular weight: 370
Origin: L.N.Kulikova, V.G. Zaikin, RPFU, Moscow, Russia
m/z	RELATIVE INTENSITY
26	10
27	90
29	230
39	120
40	20
41	751
42	270
43	1752
44	50
45	20
53	50
54	120
55	1481
56	530
57	1071
58	50
59	100
60	20
61	50
67	130
68	160
69	731
70	1581
71	2833
72	160
73	180
81	70
82	170
83	731
84	450
85	530
86	90
87	871
88	30
95	40
96	80
97	340
98	160
99	240
100	751
101	1371
102	250
103	80
109	20
110	40
111	2162
112	430
113	100
114	20
115	60
124	20
125	70
126	150
127	100
128	210
129	9999
130	711
131	110
139	20
140	40
143	40
144	30
147	130
152	40
154	170
155	80
156	80
157	751
158	70
170	861
171	130
172	30
183	40
184	100
185	190
197	20
198	40
199	6356
200	831
201	80
203	20
213	130
214	30
217	651
218	70
227	20
240	80
241	290
242	40
254	160
255	30
257	30
269	60
282	40
283	1952
284	370
285	50
297	70
301	70
327	160
328	30
355	60
371	20
