Mass Spectrum: Fumaric acid, 2-ethylbutyl octyl ester
Formula: C18 H32 O4
Molecular weight: 312
Origin: V.G. Zaikin, R.S.Borisov, TIPS RAS, Moscow, Russia
m/z	RELATIVE INTENSITY
25	20
26	250
27	921
28	430
29	1091
30	40
31	40
36	20
39	510
40	90
41	2712
42	1281
43	5745
44	400
45	60
50	20
51	20
53	340
54	891
55	4334
56	3013
57	2732
58	110
59	50
65	30
66	40
67	380
68	420
69	5485
70	1962
71	1962
72	200
73	40
79	80
81	490
82	1571
83	1511
84	9999
85	4774
86	320
93	20
95	90
96	40
97	220
98	80
99	3003
100	4234
101	500
102	30
108	20
109	90
110	140
111	240
112	561
113	170
114	30
117	2272
118	370
119	120
122	20
123	40
124	30
125	80
126	60
127	80
128	30
129	60
131	90
137	100
138	20
139	120
140	60
141	90
142	20
143	40
151	20
152	20
153	180
154	130
155	230
156	30
157	250
158	30
165	50
167	20
168	20
169	130
171	140
172	10
181	30
182	110
183	1621
184	260
185	20
192	20
196	20
201	871
202	100
210	60
211	2082
212	550
213	50
229	160
241	50
283	70
