Mass Spectrum: Silane, dimethyl(dodec-2-enyloxy)propoxy-
Formula: C17 H36 O2 Si
Molecular weight: 300
Origin: V.G. Zaikin, R.S.Borisov, TIPS RAS, Moscow, Russia
m/z	RELATIVE INTENSITY
27	90
29	160
39	120
40	20
41	550
42	100
43	360
45	130
47	110
53	90
54	310
55	460
56	70
57	220
58	40
59	250
60	40
61	260
63	70
65	20
66	60
67	641
68	450
69	270
70	30
74	70
75	5275
76	410
77	2903
78	180
79	290
80	60
81	911
82	821
83	310
84	30
87	70
88	40
89	390
90	50
91	130
93	380
94	40
95	821
96	641
97	210
98	40
99	320
100	30
101	510
102	40
103	160
105	561
106	40
107	30
109	470
110	310
111	130
112	20
113	350
114	90
115	1521
116	170
117	7497
118	831
119	5695
120	550
121	210
123	220
124	160
125	60
127	140
128	60
129	731
130	100
131	1181
132	130
133	100
135	591
136	60
137	110
138	200
139	20
141	110
143	280
144	40
145	1211
146	150
147	390
148	30
155	140
157	160
158	30
159	270
160	70
161	20
165	210
166	400
167	30
169	50
171	140
172	20
173	9999
174	1571
175	490
176	30
179	20
185	70
187	2072
188	330
189	90
197	20
199	90
201	250
202	30
213	50
215	420
216	60
225	240
226	30
227	641
228	110
229	1221
230	210
231	50
233	170
234	20
235	50
240	30
241	120
243	540
244	90
255	30
257	891
258	170
259	40
271	831
272	170
273	30
285	2212
286	490
299	100
300	811
301	170
302	30
