Mass Spectrum: Fumaric acid, 2-decyl octyl ester
Formula: C22 H40 O4
Molecular weight: 368
Origin: V.G. Zaikin, R.S.Borisov, TIPS RAS, Moscow, Russia
m/z	RELATIVE INTENSITY
25	20
26	180
27	631
29	971
30	20
31	20
37	20
39	410
40	100
41	2502
42	1021
43	3543
44	260
45	110
53	290
54	751
55	4524
56	2732
57	4394
58	280
59	30
65	30
66	50
67	500
68	540
69	4714
70	2793
71	3603
72	200
73	80
77	20
79	40
80	20
81	651
82	1621
83	2372
84	1832
85	1531
86	120
91	30
93	20
94	20
95	200
96	430
97	2192
98	1111
99	3673
100	4014
101	621
102	50
107	20
108	20
109	110
110	330
111	1411
112	1041
113	801
114	120
115	60
116	110
117	2102
118	450
119	230
122	20
123	110
124	150
125	120
126	80
127	110
128	40
129	160
136	20
137	170
138	150
139	150
140	2402
141	801
142	140
143	80
145	20
150	30
151	60
152	80
153	260
154	130
155	110
156	110
157	440
158	50
159	40
164	20
165	80
166	70
167	691
168	150
169	170
170	40
171	280
172	50
173	50
179	20
181	40
182	90
183	170
184	50
185	20
187	40
192	50
193	60
194	60
195	30
196	80
197	90
198	40
201	20
209	20
210	180
211	9999
212	1912
213	270
214	20
220	40
226	30
227	30
228	60
229	1051
230	240
231	60
238	50
239	621
240	110
241	20
253	130
254	70
257	530
258	80
267	20
283	120
284	20
297	70
325	20
