Mass Spectrum: Silane, dimethyl(dodec-2-enyloxy)nonyloxy-
Formula: C23 H48 O2 Si
Molecular weight: 384
Origin: V.G. Zaikin, R.S.Borisov, TIPS RAS, Moscow, Russia
m/z	RELATIVE INTENSITY
26	40
27	190
29	350
39	210
40	30
41	1131
42	260
43	1351
45	90
47	50
53	130
54	470
55	1712
56	320
57	1011
58	80
59	320
60	30
61	350
63	70
65	40
66	110
67	1121
68	751
69	3073
70	350
71	500
72	20
74	60
75	7337
76	520
77	3843
78	210
79	200
80	100
81	1261
82	1461
83	2412
84	220
85	350
86	20
87	140
88	60
89	1211
90	120
91	480
92	20
93	1221
94	120
95	1451
96	1171
97	651
98	100
99	440
100	50
101	981
102	90
103	440
104	30
105	951
106	70
107	100
108	30
109	851
110	490
111	290
112	40
113	410
114	130
115	1571
116	180
117	540
118	70
119	190
121	40
122	20
123	470
124	470
125	120
126	20
127	210
128	70
129	981
130	140
131	1842
132	210
133	260
137	170
138	310
139	20
141	130
142	20
143	470
144	120
145	951
146	120
147	60
149	20
151	90
155	70
157	280
158	50
159	330
160	20
161	70
165	270
166	771
167	100
169	50
171	220
172	30
173	120
175	20
179	30
183	40
185	300
186	30
187	110
189	80
197	30
199	280
200	50
201	5785
202	991
203	5615
204	831
205	290
206	30
213	80
215	140
216	10
217	130
219	460
220	50
225	270
226	40
227	661
228	120
229	1021
230	150
231	300
232	30
239	20
240	40
241	200
242	20
243	330
244	40
245	200
246	20
255	40
257	9999
258	2162
259	550
260	50
261	30
269	20
271	3773
272	751
273	250
285	320
286	60
299	851
300	200
301	40
311	30
313	1812
314	400
315	160
327	751
328	180
329	30
339	20
341	1371
342	340
343	80
355	300
356	70
369	3964
370	1251
371	330
372	60
383	90
384	1661
385	450
386	110
