Mass Spectrum: Fumaric acid, heptyl 3-methylbut-3-enyl ester
Formula: C16 H26 O4
Molecular weight: 282
Origin: L.N.Kulikova, V.G. Zaikin, RPFU, Moscow, Russia
m/z	RELATIVE INTENSITY
26	50
27	200
29	260
39	250
40	110
41	1221
42	230
43	430
45	20
53	320
54	390
55	1431
56	380
57	1021
58	40
65	30
66	30
67	1491
68	9999
69	2442
70	460
71	110
72	20
81	310
82	1041
83	180
93	70
95	30
96	20
97	170
98	110
99	1161
100	290
101	80
107	20
109	70
112	20
115	20
117	160
121	20
123	20
138	70
139	30
153	20
157	20
166	40
167	30
168	20
169	20
197	911
198	100
215	60
