Mass Spectrum: Silane, dimethyl(dimethyl(but-3-enyloxy)silyloxy)propoxy-
Formula: C11 H26 O3 Si2
Molecular weight: 262
Origin: V.G. Zaikin, R.S.Borisov, TIPS RAS, Moscow, Russia
m/z	RELATIVE INTENSITY
26	30
27	170
29	190
39	110
41	260
42	50
43	350
45	50
47	20
53	60
54	120
55	2853
56	130
59	50
61	20
66	370
67	60
69	20
72	20
73	240
74	20
75	170
79	30
81	561
89	20
91	20
94	40
95	20
96	160
99	20
101	30
102	20
103	40
115	120
117	230
118	20
119	591
120	30
121	40
129	30
131	60
132	20
133	3563
134	470
135	811
136	30
137	20
147	170
148	20
149	5395
150	801
151	2692
152	320
153	160
159	140
161	20
163	430
164	30
165	60
173	150
175	120
177	140
187	661
188	50
189	230
191	9999
192	1882
193	1151
194	140
195	20
203	2783
204	520
205	320
217	530
218	70
219	30
221	120
247	4054
248	841
249	340
250	20
