Mass Spectrum: Fumaric acid, butyl pent-4-enyl ester
Formula: C13 H20 O4
Molecular weight: 240
Origin: L.N.Kulikova, V.G. Zaikin, RPFU, Moscow, Russia
m/z	RELATIVE INTENSITY
26	40
27	290
29	370
31	20
37	20
39	420
40	140
41	1832
42	200
43	150
44	40
45	70
53	530
54	550
55	861
56	661
57	781
58	30
63	20
65	50
66	70
67	2592
68	9999
69	1441
70	70
71	2402
72	160
73	40
81	390
82	631
84	260
85	90
95	20
97	70
98	50
99	2362
100	671
101	40
109	90
110	50
111	60
112	30
113	100
117	591
118	20
121	30
126	10
127	90
138	130
139	1261
140	120
143	40
155	3663
156	460
157	50
166	250
173	80
183	230
184	70
199	100
