Mass Spectrum: Fumaric acid, hexadecyl 3-methylbut-2-yl ester
Formula: C25 H46 O4
Molecular weight: 410
Origin: V.G. Zaikin, R.S.Borisov, TIPS RAS, Moscow, Russia
m/z	RELATIVE INTENSITY
26	120
27	400
29	581
30	20
39	330
40	80
41	1832
42	671
43	4144
44	330
45	110
51	20
53	230
54	641
55	4144
56	1331
57	3593
58	160
65	20
66	50
67	671
68	701
69	3783
70	6386
71	9999
72	591
73	80
77	30
79	90
80	60
81	731
82	1672
83	4024
84	921
85	1561
86	120
87	170
91	50
93	60
94	60
95	540
96	781
97	3773
98	721
99	2592
100	4274
101	1051
102	80
105	30
107	40
108	40
109	350
110	380
111	2082
112	460
113	330
114	130
115	50
116	20
117	1922
118	1251
119	671
120	40
121	50
122	60
123	300
124	310
125	981
126	330
127	370
128	100
129	100
131	20
133	20
135	40
136	80
137	230
138	240
139	500
140	230
141	510
142	330
143	210
144	90
145	160
146	30
147	40
149	30
150	60
151	140
152	200
153	470
154	250
155	210
156	70
157	380
158	40
159	40
163	30
164	50
165	110
166	170
167	210
168	220
169	881
170	230
171	651
172	100
173	50
177	20
178	40
179	80
180	110
181	170
182	200
183	210
184	60
185	50
186	20
187	1051
188	140
189	40
191	20
192	30
193	60
194	150
195	160
196	200
197	190
198	60
199	70
200	20
201	20
205	20
206	30
207	30
208	50
209	130
210	120
211	180
212	50
213	70
214	20
215	30
219	20
220	40
221	60
222	490
223	300
224	210
225	320
226	80
227	80
228	20
229	20
233	20
234	20
235	30
236	20
237	200
238	160
239	230
240	60
241	150
242	30
243	20
247	20
249	30
250	10
251	230
252	200
253	100
254	50
255	70
257	20
259	30
261	20
262	50
263	40
265	200
266	270
267	120
268	50
269	90
270	10
276	30
277	120
278	40
279	150
280	310
281	220
282	50
283	70
284	20
293	80
294	240
295	140
296	30
297	40
304	130
305	160
306	30
311	30
321	30
322	721
323	1471
324	510
325	100
339	40
340	170
341	110
366	160
367	50
395	90
396	20
