Mass Spectrum: Fumaric acid, 2-hexyl tetradecyl ester
Formula: C24 H44 O4
Molecular weight: 396
Origin: L.N.Kulikova, V.G. Zaikin, RPFU, Moscow, Russia
m/z	RELATIVE INTENSITY
25	60
26	420
27	1241
28	741
29	1852
30	80
31	60
36	40
37	60
38	20
39	881
40	200
41	4794
42	2082
43	9999
44	460
45	260
50	50
51	50
52	20
53	490
54	1331
55	8838
56	4294
57	7737
58	410
59	30
65	70
66	120
67	1341
68	1351
69	7857
70	2472
71	3994
72	330
73	110
74	30
77	90
78	50
79	200
80	120
81	1231
82	2953
83	7096
84	6416
85	6406
86	440
87	30
91	100
92	30
93	110
94	110
95	801
96	1241
97	5705
98	1161
99	5345
100	6806
101	1872
102	120
105	60
106	20
107	60
108	80
109	510
110	681
111	3563
112	771
113	681
114	140
115	90
116	140
117	6256
118	2152
119	1051
120	60
121	70
122	90
123	350
124	450
125	1341
126	400
127	500
128	120
129	100
130	20
131	30
133	20
135	40
136	110
137	360
138	550
139	701
140	330
141	540
142	130
143	100
144	20
145	110
146	30
149	50
150	80
151	160
152	270
153	550
154	450
155	601
156	300
157	751
158	110
159	80
160	10
161	30
163	30
164	100
165	130
166	290
167	150
168	310
169	280
170	90
171	771
172	110
173	140
174	90
175	30
177	30
178	40
179	70
180	100
181	180
182	300
183	1201
184	300
185	80
186	20
187	30
191	30
192	50
193	70
194	550
195	290
196	250
197	661
198	110
199	70
200	30
201	1321
202	170
203	40
205	20
206	20
208	60
209	140
210	110
211	250
212	70
213	150
214	20
215	40
223	170
224	110
225	90
226	50
227	50
229	20
231	20
233	20
234	40
235	50
237	210
238	150
239	80
240	50
241	80
243	20
248	30
249	80
250	20
251	170
252	210
253	240
254	30
255	60
256	20
257	20
265	110
266	230
267	80
268	20
269	50
276	120
277	70
283	20
293	30
294	561
295	2212
296	561
297	90
311	30
312	130
313	470
314	80
353	10
367	10
