Mass Spectrum: Fumaric acid, 4-heptyl nonyl ester
Formula: C20 H36 O4
Molecular weight: 340
Origin: V.G. Zaikin, R.S.Borisov, TIPS RAS, Moscow, Russia
m/z	RELATIVE INTENSITY
26	110
27	430
29	420
30	20
31	20
39	240
40	30
41	1391
42	350
43	1631
44	30
45	30
53	170
54	460
55	2332
56	1692
57	2712
58	120
66	20
67	220
68	260
69	3543
70	1291
71	1291
72	140
73	70
79	20
80	20
81	430
82	991
83	2122
84	430
85	801
86	50
91	30
95	130
96	130
97	941
98	2793
99	2622
100	2983
101	480
102	40
109	50
110	20
111	60
112	40
113	70
114	60
115	210
116	40
117	1421
118	360
119	80
123	50
124	230
125	140
126	220
127	721
128	60
136	20
137	40
138	40
139	80
140	70
141	100
142	70
143	320
144	70
150	30
151	50
152	30
153	130
154	90
155	70
156	30
157	250
158	20
167	30
168	80
169	150
170	40
171	310
172	50
178	30
179	40
181	70
182	50
183	80
195	30
196	100
197	731
198	100
199	30
206	30
215	440
216	50
224	100
225	9999
226	1882
227	220
228	20
242	30
243	520
244	90
269	160
270	80
