Mass Spectrum: Malonic acid, 3,3-dimethylbut-2-yl heptadecyl ester
Formula: C26 H50 O4
Molecular weight: 426
Origin: V.G. Zaikin, R.S.Borisov, TIPS RAS, Moscow, Russia
m/z	RELATIVE INTENSITY
26	60
27	290
28	230
29	591
30	20
31	20
39	350
40	90
41	2132
42	601
43	5715
44	220
45	240
51	20
53	130
54	330
55	2402
56	1311
57	4974
58	210
59	10
60	190
61	310
65	20
66	40
67	561
68	671
69	2963
70	1091
71	1822
72	110
73	20
77	20
79	50
80	40
81	330
82	1181
83	2242
84	2402
85	9999
86	681
87	971
88	40
89	120
91	20
93	20
94	20
95	200
96	460
97	1922
98	440
99	330
100	50
101	691
102	60
103	20
104	280
105	8788
106	290
107	90
109	100
110	190
111	1001
112	310
113	190
114	40
115	120
116	20
123	60
124	110
125	520
126	190
127	130
128	30
131	20
132	691
133	1051
134	60
136	20
137	20
138	70
139	240
140	160
141	80
145	40
152	50
153	120
154	90
155	70
167	70
168	50
180	10
181	50
182	60
183	20
189	30
196	20
210	280
211	60
236	20
237	70
238	530
239	100
253	20
307	220
308	40
325	280
326	50
371	50
411	60
