Mass Spectrum: Succinic acid, 2,3-dimethylphenyl propyl ester
Formula: C15 H20 O4
Molecular weight: 264
Origin: L.N.Kulikova, V.G. Zaikin, RPFU, Moscow, Russia
m/z	RELATIVE INTENSITY
27	90
39	120
40	20
41	170
42	20
43	751
44	50
45	30
51	90
52	40
53	60
55	711
56	50
63	30
65	100
67	90
73	230
75	40
77	540
78	140
79	230
80	20
81	40
89	30
91	340
92	50
93	50
94	30
95	30
100	30
101	9999
102	490
103	550
104	90
105	370
106	30
107	1111
108	100
120	30
121	500
122	3823
123	671
124	40
143	3894
144	310
177	170
205	2742
206	370
207	30
264	50
