Mass Spectrum: Succinic acid, 3,3-dimethylbut-2-yl dodecyl ester
Formula: C22 H42 O4
Molecular weight: 370
Origin: L.N.Kulikova, V.G. Zaikin, RPFU, Moscow, Russia
m/z	RELATIVE INTENSITY
26	80
27	390
29	891
39	330
40	70
41	2342
42	641
43	5335
44	270
45	90
51	20
53	120
54	200
55	2092
56	1431
57	4994
58	210
67	300
68	330
69	2462
70	911
71	2672
72	130
73	150
74	430
75	440
79	20
81	120
82	450
83	1061
84	2062
85	9999
86	671
87	100
95	60
96	170
97	751
98	270
99	941
100	160
101	8478
102	390
103	70
109	20
110	70
111	400
112	160
113	691
114	40
118	120
119	7777
120	330
121	50
124	20
125	150
126	80
127	300
128	200
129	130
139	40
140	180
141	20
146	50
147	50
159	10
166	20
168	410
169	1631
170	180
185	40
213	30
242	170
243	50
269	651
270	90
287	60
