Mass Spectrum: Malonic acid, 3-heptyl pentadecyl ester
Formula: C25 H48 O4
Molecular weight: 412
Origin: L.N.Kulikova, V.G. Zaikin, RPFU, Moscow, Russia
m/z	RELATIVE INTENSITY
26	30
27	170
29	390
39	150
40	30
41	1021
42	350
43	1742
53	60
54	210
55	1601
56	1151
57	3753
58	170
60	30
61	70
66	20
67	280
68	350
69	1551
70	871
71	1401
72	90
81	200
82	661
83	1411
84	430
85	1051
86	70
87	1041
88	30
89	80
95	130
96	270
97	1311
98	1101
99	440
100	30
102	30
103	110
104	50
105	9999
106	330
107	80
109	60
110	120
111	721
112	220
113	200
114	180
115	731
116	60
117	60
123	30
124	70
125	440
126	160
127	160
138	40
139	190
140	100
141	90
145	30
152	20
153	100
154	60
155	60
167	40
168	20
169	30
182	320
183	40
185	30
203	40
209	130
210	530
211	160
279	190
280	30
297	2302
298	440
299	50
315	120
316	20
