Mass Spectrum: Succinic acid, di(2-hexyl) ester
Formula: C16 H30 O4
Molecular weight: 286
Origin: L.N.Kulikova, V.G. Zaikin, RPFU, Moscow, Russia
m/z	RELATIVE INTENSITY
26	30
27	300
28	180
29	460
39	170
40	30
41	731
42	340
43	2092
44	70
45	180
53	40
54	40
55	721
56	661
57	380
58	50
59	20
67	30
69	320
73	170
74	300
75	30
83	90
84	691
85	2402
86	160
87	90
100	140
101	9999
102	450
103	60
116	20
118	60
119	1862
120	80
129	40
145	110
158	130
159	30
185	1451
186	160
187	20
203	100
