Mass Spectrum: Succinic acid, 3,3-dimethylbut-2-yl hexyl ester
Formula: C16 H30 O4
Molecular weight: 286
Origin: L.N.Kulikova, V.G. Zaikin, RPFU, Moscow, Russia
m/z	RELATIVE INTENSITY
26	20
27	120
29	230
39	80
40	20
41	520
42	160
43	1541
44	80
45	30
53	20
54	20
55	280
56	330
57	530
58	10
67	100
68	20
69	510
70	90
71	70
73	60
74	220
75	190
81	20
82	230
83	440
84	911
85	4904
86	360
87	80
97	20
99	20
100	130
101	9999
102	510
103	80
118	40
119	1601
120	70
128	160
129	120
158	540
159	160
185	2272
186	250
187	20
202	30
203	160
230	130
231	40
271	40
