Mass Spectrum: Succinic acid, 4-heptyl pentadecyl ester
Formula: C26 H50 O4
Molecular weight: 426
Origin: L.N.Kulikova, V.G. Zaikin, RPFU, Moscow, Russia
m/z	RELATIVE INTENSITY
26	40
27	260
29	520
31	10
39	210
40	40
41	1421
42	420
43	2262
44	120
45	50
53	80
54	210
55	2092
56	1471
57	4864
58	220
65	10
66	20
67	300
68	360
69	1832
70	1091
71	2262
72	140
73	180
74	270
75	180
80	10
81	180
82	500
83	1411
84	470
85	1762
86	110
95	100
96	190
97	1141
98	1311
99	1261
100	200
101	9999
102	470
103	80
109	40
110	100
111	550
112	200
113	581
114	380
115	1371
116	110
117	20
118	160
119	9989
120	470
121	80
123	10
124	50
125	250
126	140
127	550
128	40
131	10
138	30
139	90
140	80
141	490
142	40
145	10
146	30
152	20
153	40
154	60
155	360
156	30
159	10
167	10
168	60
169	160
170	10
181	10
182	150
183	10
185	20
186	20
187	10
199	100
200	10
210	270
211	2322
212	390
213	20
217	70
226	10
227	20
240	10
254	10
255	40
283	10
310	20
311	1121
312	220
313	20
328	40
329	510
330	90
