Mass Spectrum: Malonic acid, 2-butyl tetradecyl ester
Formula: C21 H40 O4
Molecular weight: 356
Origin: L.N.Kulikova, V.G. Zaikin, RPFU, Moscow, Russia
m/z	RELATIVE INTENSITY
26	70
27	290
28	230
29	591
30	20
31	20
37	20
39	270
40	70
41	1601
42	470
43	1561
44	200
45	110
51	20
53	80
54	260
55	1932
56	1511
57	3303
58	130
59	30
60	80
61	120
66	20
67	360
68	480
69	1641
70	971
71	1291
72	100
73	190
77	10
79	60
80	20
81	230
82	751
83	1712
84	681
85	881
86	50
87	1001
88	30
89	50
91	20
95	130
96	250
97	1361
98	400
99	210
102	20
104	50
105	9999
106	350
107	80
109	50
110	110
111	721
112	280
113	140
116	20
117	50
123	20
124	50
125	400
126	160
127	80
138	30
139	130
140	100
141	50
143	50
153	20
154	40
155	20
161	370
162	20
166	30
168	250
169	20
194	20
195	100
196	320
197	70
265	80
283	390
284	60
301	20
