Mass Spectrum: Adipic acid, butyl 4-heptyl ester
Formula: C17 H32 O4
Molecular weight: 300
Origin: L.N.Kulikova, V.G. Zaikin, RPFU, Moscow, Russia
m/z	RELATIVE INTENSITY
26	20
27	180
29	510
31	20
39	100
41	731
42	180
43	611
44	30
45	20
53	30
54	60
56	1111
57	1571
58	50
59	110
60	70
61	40
67	40
68	60
69	210
70	170
71	90
72	20
73	310
74	20
82	20
83	460
84	170
85	60
87	300
97	20
98	420
99	50
100	480
101	1091
102	400
103	170
110	20
111	2662
112	420
113	40
114	100
115	230
116	130
127	30
128	170
129	8968
130	621
131	100
143	771
144	50
147	210
156	621
157	100
158	390
159	20
184	110
185	9999
186	1151
187	110
202	390
203	210
227	70
