Mass Spectrum: Succinic acid, 4-methylpent-2-yl octyl ester
Formula: C18 H34 O4
Molecular weight: 314
Origin: L.N.Kulikova, V.G. Zaikin, RPFU, Moscow, Russia
m/z	RELATIVE INTENSITY
26	30
27	230
29	460
30	10
31	10
39	190
40	40
41	1201
42	460
43	2732
44	70
45	70
53	70
54	90
55	1031
56	841
57	2893
58	140
59	30
67	130
68	140
69	1842
70	601
71	2322
72	120
73	180
74	420
75	320
81	30
82	140
83	561
84	2102
85	4624
86	310
87	10
97	90
98	30
99	30
100	170
101	9999
102	470
103	80
110	20
111	80
112	390
113	1271
114	100
118	40
119	4844
120	220
121	30
127	40
128	20
129	30
141	10
145	10
146	20
149	10
157	40
159	30
175	40
185	40
186	190
187	60
203	60
213	1591
214	210
215	10
231	550
232	60
271	10
299	30
