Mass Spectrum: Succinic acid, 3-hexyl tetradecyl ester
Formula: C24 H46 O4
Molecular weight: 398
Origin: L.N.Kulikova, V.G. Zaikin, RPFU, Moscow, Russia
m/z	RELATIVE INTENSITY
27	90
29	190
39	100
41	671
42	310
43	1872
44	20
53	40
54	130
55	1341
56	841
57	1932
58	90
59	20
67	230
68	220
69	1201
70	530
71	1601
72	90
73	140
74	220
75	150
81	140
82	390
83	1081
84	1091
85	2422
86	150
95	80
96	150
97	901
98	260
99	571
100	561
101	9999
102	490
103	80
109	30
110	80
111	470
112	190
113	550
114	30
118	120
119	8838
120	400
121	70
124	40
125	220
126	120
127	571
128	30
138	30
139	80
140	70
141	440
142	20
146	20
153	20
154	40
155	180
168	160
171	10
185	110
186	20
196	310
197	2242
198	330
203	60
241	40
297	1201
298	200
314	10
315	500
316	70
