Mass Spectrum: Succinic acid, 4-methylpent-2-yl nonyl ester
Formula: C19 H36 O4
Molecular weight: 328
Origin: L.N.Kulikova, V.G. Zaikin, RPFU, Moscow, Russia
m/z	RELATIVE INTENSITY
26	40
27	310
29	591
30	10
31	10
39	250
40	60
41	1551
42	561
43	3833
44	70
45	100
53	80
54	110
55	1391
56	1131
57	2492
58	120
59	40
67	160
68	180
69	2172
70	681
71	2632
72	130
73	200
74	420
75	330
81	50
82	200
83	651
84	2352
85	7176
86	480
87	20
95	20
96	60
97	420
98	300
99	50
100	180
101	9999
102	470
103	80
111	40
112	10
118	60
119	6336
120	290
121	50
124	10
125	30
126	420
127	1521
128	130
140	20
141	120
142	10
143	30
145	20
146	30
157	20
159	30
171	20
175	20
185	50
200	170
201	50
203	110
227	1461
228	200
229	10
241	10
243	10
244	10
245	581
246	70
285	10
313	40
