Mass Spectrum: Malonic acid, di(3-methylpent-2-yl) ester
Formula: C15 H28 O4
Molecular weight: 272
Origin: L.N.Kulikova, V.G. Zaikin, RPFU, Moscow, Russia
m/z	RELATIVE INTENSITY
27	170
29	400
39	140
40	20
41	671
42	390
43	1852
53	50
54	20
55	280
56	130
57	550
67	20
69	550
70	20
71	20
72	30
73	30
83	40
84	1161
85	9999
86	631
87	140
101	651
102	30
105	180
111	30
116	50
126	30
127	20
131	130
132	70
133	20
144	350
145	60
157	20
171	70
173	20
188	50
189	10
