Mass Spectrum: Succinic acid, ethyl 2-tertbutyl-6-methylphenyl ester
Formula: C17 H24 O4
Molecular weight: 292
Origin: L.N.Kulikova, V.G. Zaikin, RPFU, Moscow, Russia
m/z	RELATIVE INTENSITY
27	130
28	70
29	180
39	60
40	20
41	70
43	110
45	40
52	40
53	20
55	270
65	60
73	300
74	50
77	130
78	50
79	50
91	260
92	20
93	30
101	8968
102	490
103	100
105	831
106	20
107	70
108	40
115	110
116	360
117	20
119	340
120	20
121	480
122	50
123	40
128	60
129	9999
130	691
131	90
133	90
145	20
147	120
148	100
149	2082
150	160
161	50
164	410
165	20
191	20
247	1251
248	110
