Mass Spectrum: Succinic acid, di(2-decyl) ester
Formula: C24 H46 O4
Molecular weight: 398
Origin: L.N.Kulikova, V.G. Zaikin, RPFU, Moscow, Russia
m/z	RELATIVE INTENSITY
26	60
27	370
29	771
39	300
40	60
41	1682
42	621
43	2622
45	180
53	110
54	180
55	1972
56	1401
57	3123
58	210
59	30
67	220
68	190
69	1321
70	1061
71	2432
72	130
73	220
74	310
75	50
81	110
82	220
83	871
84	591
85	2612
86	170
95	40
96	170
97	881
98	510
99	651
100	120
101	9999
102	460
103	70
110	50
111	500
112	310
113	20
116	70
117	20
118	170
119	9168
120	410
121	70
125	30
138	20
139	20
140	1451
141	7367
142	841
143	120
145	240
155	20
156	160
157	2062
158	220
185	30
214	40
241	1121
242	160
259	280
260	30
313	30
