Mass Spectrum: Succinic acid, 2-heptyl nonadecyl ester
Formula: C30 H58 O4
Molecular weight: 482
Origin: L.N.Kulikova, V.G. Zaikin, RPFU, Moscow, Russia
m/z	RELATIVE INTENSITY
26	60
27	210
29	410
39	200
40	30
41	1101
42	370
43	1902
45	40
53	70
54	220
55	1852
56	1351
57	4034
58	160
67	330
68	390
69	1682
70	911
71	1672
72	60
73	110
74	230
75	160
80	20
81	270
82	591
83	1511
84	420
85	1301
86	60
91	20
95	170
96	200
97	1361
98	1031
99	921
100	160
101	7677
102	330
103	40
109	60
110	110
111	691
112	170
113	370
114	80
115	320
116	20
117	30
118	160
119	9999
120	440
121	70
123	20
124	60
125	310
126	110
127	280
138	40
139	120
140	80
141	250
152	20
153	60
154	50
155	210
167	20
168	30
169	190
182	20
183	180
197	130
199	70
211	80
217	270
225	30
238	60
266	150
267	1411
268	290
311	20
366	20
367	360
368	60
385	360
386	60
