Mass Spectrum: Succinic acid, 2,4-dimethylpent-3-yl propyl ester
Formula: C14 H26 O4
Molecular weight: 258
Origin: L.N.Kulikova, V.G. Zaikin, RPFU, Moscow, Russia
m/z	RELATIVE INTENSITY
26	10
27	140
29	130
31	10
39	70
40	10
41	320
42	70
43	661
45	50
53	10
55	330
56	310
57	1181
58	40
67	10
69	80
70	50
71	190
72	40
73	360
74	100
75	60
83	701
84	40
85	10
91	10
97	40
98	190
99	1431
100	180
101	9999
102	480
103	60
114	190
115	761
116	140
119	60
141	10
143	5475
144	420
145	30
157	20
161	40
