Mass Spectrum: Malonic acid, 3-methylpent-2-yl nonyl ester
Formula: C18 H34 O4
Molecular weight: 314
Origin: L.N.Kulikova, V.G. Zaikin, RPFU, Moscow, Russia
m/z	RELATIVE INTENSITY
26	70
27	410
28	360
29	921
30	20
31	40
36	20
39	390
40	90
41	2252
42	811
43	5215
44	260
45	370
50	20
51	20
52	30
53	170
54	230
55	2212
56	1782
57	3683
58	130
59	40
60	110
61	320
65	20
66	20
67	320
68	430
69	2772
70	1171
71	3533
72	230
73	40
78	20
79	70
80	20
81	180
82	460
83	1081
84	4354
85	9999
86	691
87	1241
88	30
89	40
95	100
96	210
97	791
98	901
99	110
100	130
101	1281
102	70
103	10
104	80
105	6576
106	220
107	60
109	20
110	20
111	110
112	50
113	70
114	20
115	60
116	70
117	30
123	20
124	70
125	591
126	1341
127	571
128	40
129	20
131	30
132	100
133	70
139	30
140	70
141	30
144	220
145	260
150	20
153	130
154	20
169	30
189	20
195	10
213	5725
214	751
215	70
231	80
242	30
257	50
270	150
