Mass Spectrum: Malonic acid, isobutyl 4-methylpent-2-yl ester
Formula: C13 H24 O4
Molecular weight: 244
Origin: L.N.Kulikova, V.G. Zaikin, RPFU, Moscow, Russia
m/z	RELATIVE INTENSITY
26	30
27	641
28	340
29	871
30	50
31	80
39	540
40	130
41	2913
42	1141
43	3683
44	290
45	340
53	100
54	40
55	661
56	2272
57	9428
58	430
59	160
60	360
61	100
67	90
68	50
69	4194
70	260
71	170
72	90
73	190
82	40
83	911
84	4424
85	9999
86	711
87	3783
88	110
89	50
100	330
101	1661
102	210
105	5295
106	170
107	30
111	30
112	20
113	50
114	20
116	50
117	30
118	240
119	20
125	380
126	20
127	70
130	120
131	170
132	60
143	8508
144	711
145	260
158	150
159	20
160	70
161	390
171	190
187	180
201	30
229	40
