Mass Spectrum: Succinic acid, 2-decyl isohexyl ester
Formula: C20 H38 O4
Molecular weight: 342
Origin: L.N.Kulikova, V.G. Zaikin, RPFU, Moscow, Russia
m/z	RELATIVE INTENSITY
26	20
27	220
29	480
39	170
40	30
41	1021
42	390
43	3063
44	40
45	20
53	70
54	100
55	1371
56	1071
57	1702
58	100
59	50
67	120
68	90
69	1131
70	611
71	1111
72	70
73	170
74	390
75	30
81	40
82	110
83	470
84	2062
85	8538
86	571
95	20
96	90
97	450
98	250
99	240
100	90
101	9999
102	470
103	140
110	20
111	280
112	170
114	260
115	50
116	20
118	90
119	5465
120	240
121	30
129	20
131	20
132	330
133	30
140	480
141	1301
142	140
155	20
156	160
157	591
158	220
159	20
173	110
174	30
185	1431
186	140
202	70
203	651
204	50
241	70
