Mass Spectrum: Succinic acid, 2-hexyl isohexyl ester
Formula: C16 H30 O4
Molecular weight: 286
Origin: L.N.Kulikova, V.G. Zaikin, RPFU, Moscow, Russia
m/z	RELATIVE INTENSITY
26	30
27	240
28	160
29	420
39	140
40	30
41	701
42	340
43	2803
44	140
45	90
53	50
54	60
55	901
56	861
57	550
58	40
59	50
67	40
68	20
69	721
70	70
71	80
72	20
73	160
74	300
75	30
83	110
84	1782
85	5875
86	400
99	60
100	160
101	9999
102	460
103	120
114	250
115	50
118	60
119	2532
120	110
129	20
131	20
132	240
133	20
155	20
158	140
159	30
173	70
174	30
183	40
185	961
186	100
202	30
203	200
204	10
