Mass Spectrum: Succinic acid, 2-decyl ethyl ester
Formula: C16 H30 O4
Molecular weight: 286
Origin: L.N.Kulikova, V.G. Zaikin, RPFU, Moscow, Russia
m/z	RELATIVE INTENSITY
26	30
27	220
28	240
29	601
39	110
40	20
41	631
42	220
43	801
44	40
45	140
53	40
54	60
55	841
56	550
57	741
58	60
67	80
68	60
69	470
70	420
71	490
72	20
73	300
74	140
75	30
81	30
82	70
83	280
84	240
85	500
86	20
96	60
97	360
98	200
99	80
100	80
101	4714
102	641
103	60
111	210
112	130
128	120
129	9999
130	651
131	80
140	330
141	440
142	40
144	40
146	60
147	1381
148	80
156	160
157	681
158	70
