Mass Spectrum: Malonic acid, decyl 3-methylpent-2-yl ester
Formula: C19 H36 O4
Molecular weight: 328
Origin: L.N.Kulikova, V.G. Zaikin, RPFU, Moscow, Russia
m/z	RELATIVE INTENSITY
26	80
27	430
28	350
29	881
30	20
31	50
37	20
39	400
40	90
41	2322
42	841
43	5445
44	250
45	380
50	20
51	30
52	20
53	150
54	280
55	2372
56	1601
57	4064
58	150
59	30
60	100
61	260
65	20
66	30
67	390
68	510
69	2502
70	1201
71	2312
72	170
73	60
77	20
79	40
80	20
81	200
82	661
83	1591
84	4114
85	9999
86	671
87	1131
88	20
89	70
91	20
95	120
96	240
97	971
98	400
99	490
100	160
101	1111
102	60
104	90
105	7166
106	240
107	70
109	30
110	130
111	480
112	801
113	120
115	50
116	50
117	30
123	20
125	40
126	60
127	50
131	30
132	90
133	30
138	40
139	450
140	1171
141	440
142	40
144	180
145	250
159	20
167	70
183	20
189	40
209	20
227	3904
228	591
229	60
245	80
256	20
271	40
284	140
