Mass Spectrum: Succinic acid, monochloride, 3-methylbutyl ester
Formula: C9 H15 Cl O3
Molecular weight: 206
Origin: L.N.Kulikova, V.G. Zaikin, RPFU, Moscow, Russia
m/z	RELATIVE INTENSITY
25	10
26	210
27	1591
28	450
29	1131
30	40
31	60
39	741
40	130
41	2042
42	1571
43	5145
44	200
45	130
49	10
53	170
54	140
55	7607
56	1521
57	260
58	20
63	771
65	240
67	40
68	80
69	951
70	9999
71	5465
72	290
73	410
74	30
82	50
83	10
84	90
85	400
86	40
87	160
91	20
92	30
98	30
99	490
100	210
101	5495
102	260
103	30
114	230
115	120
118	10
119	5125
120	260
121	1682
122	80
126	20
127	530
128	150
137	40
139	10
149	10
163	791
164	50
165	250
166	10
170	10
191	10
