Mass Spectrum: Succinic acid, butyl 2-methylpent-3-yl ester
Formula: C14 H26 O4
Molecular weight: 258
Origin: L.N.Kulikova, V.G. Zaikin, RPFU, Moscow, Russia
m/z	RELATIVE INTENSITY
26	30
27	240
28	230
29	591
31	40
39	120
40	20
41	781
42	90
43	1311
45	50
53	30
55	390
56	631
57	1061
58	60
59	80
69	651
70	30
72	20
73	200
74	260
75	100
83	20
84	811
85	2993
86	200
100	270
101	9999
102	470
103	80
119	330
130	200
157	3353
158	280
159	20
174	20
175	170
