Mass Spectrum: Malonic acid, di(2-methylpentyl) ester
Formula: C15 H28 O4
Molecular weight: 272
Origin: L.N.Kulikova, V.G. Zaikin, RPFU, Moscow, Russia
m/z	RELATIVE INTENSITY
27	220
29	240
39	140
40	20
41	611
42	380
43	1972
45	30
53	40
55	150
56	110
57	470
67	30
69	540
70	30
71	110
72	30
83	40
84	681
85	9999
86	621
87	340
100	50
101	540
102	30
105	230
111	30
112	20
113	40
117	20
125	30
130	210
131	90
145	360
146	20
159	220
160	20
171	130
188	70
189	20
