Mass Spectrum: Succinic acid, ethyl 4-heptyl ester
Formula: C13 H24 O4
Molecular weight: 244
Origin: L.N.Kulikova, V.G. Zaikin, RPFU, Moscow, Russia
m/z	RELATIVE INTENSITY
26	10
27	190
28	180
29	450
30	10
31	30
39	90
40	10
41	490
42	100
43	450
44	130
45	100
53	20
54	30
55	611
56	631
57	1101
58	40
59	10
67	10
68	20
69	330
70	250
71	80
72	20
73	380
74	120
75	20
83	40
97	10
98	400
99	330
100	90
101	6766
102	510
103	60
114	220
115	921
116	60
128	80
129	9999
130	661
131	80
144	10
146	20
147	410
148	20
199	20
