Mass Spectrum: Malonic acid, 2-methylpent-3-yl nonyl ester
Formula: C18 H34 O4
Molecular weight: 314
Origin: L.N.Kulikova, V.G. Zaikin, RPFU, Moscow, Russia
m/z	RELATIVE INTENSITY
26	40
27	290
28	250
29	631
30	10
31	50
39	330
40	90
41	2122
42	871
43	5175
44	320
45	90
53	140
54	260
55	2242
56	1802
57	3894
58	200
59	220
60	80
61	310
65	20
66	20
67	340
68	470
69	3153
70	1331
71	4744
72	300
73	100
81	190
82	571
83	1451
84	3833
85	9999
86	721
87	2262
88	70
89	50
95	110
96	240
97	1111
98	1021
99	130
100	290
101	1912
102	140
104	50
105	8227
106	290
107	70
109	20
110	40
111	260
112	120
113	90
114	20
115	60
116	20
117	70
124	60
125	641
126	1391
127	641
128	70
129	30
130	260
131	340
132	40
139	40
140	50
141	40
142	20
143	20
145	50
153	200
154	30
159	40
167	30
171	40
189	30
195	40
213	7987
214	1051
215	120
231	200
232	20
256	90
257	40
271	80
285	80
