Mass Spectrum: Succinic acid, docosyl isohexyl ester
Formula: C32 H62 O4
Molecular weight: 510
Origin: L.N.Kulikova, V.G. Zaikin, RPFU, Moscow, Russia
m/z	RELATIVE INTENSITY
26	70
27	240
29	440
39	220
40	40
41	1131
42	430
43	3803
44	150
53	80
54	280
55	2152
56	1131
57	3083
58	110
66	20
67	440
68	440
69	2072
70	731
71	1822
72	80
73	100
74	170
75	80
77	20
79	60
80	30
81	350
82	681
83	1802
84	2332
85	6406
86	380
91	30
93	20
95	240
96	280
97	1501
98	320
99	450
100	130
101	8658
102	380
103	70
109	120
110	140
111	761
112	190
113	300
114	170
115	170
116	30
117	40
118	180
119	9999
120	430
121	80
123	50
124	90
125	360
126	120
127	250
128	30
129	40
132	40
133	110
137	30
138	60
139	120
140	90
141	190
146	30
149	40
153	60
154	80
155	190
166	20
167	40
168	30
169	110
175	40
181	20
182	30
183	110
184	20
185	210
197	80
203	1942
204	170
211	90
212	20
225	80
226	30
239	60
240	30
253	20
254	30
268	30
280	40
282	20
306	20
308	60
309	581
310	140
324	20
353	20
408	70
409	50
427	250
428	50
495	60
