Mass Spectrum: Succinic acid, 3-methylpentyl octadecyl ester
Formula: C28 H54 O4
Molecular weight: 454
Origin: L.N.Kulikova, V.G. Zaikin, RPFU, Moscow, Russia
m/z	RELATIVE INTENSITY
26	60
27	200
29	440
39	190
40	40
41	1111
42	340
43	3393
44	150
53	70
54	220
55	1922
56	1071
57	2572
58	100
67	340
68	320
69	1892
70	621
71	1281
72	60
73	90
74	90
75	70
79	30
80	20
81	210
82	440
83	1301
84	1611
85	9999
86	671
95	130
96	170
97	931
98	230
99	320
100	70
101	4184
102	170
103	40
109	50
110	80
111	450
112	140
113	210
117	20
118	30
119	3253
120	140
121	20
123	20
124	40
125	180
126	80
127	200
128	100
129	90
138	20
139	60
140	60
141	130
145	40
147	30
153	20
154	40
155	140
168	20
169	100
183	80
185	831
186	70
197	50
203	3363
204	360
205	30
211	20
212	20
224	20
230	20
252	30
253	340
254	80
352	30
353	30
371	280
372	50
397	90
398	20
425	110
426	20
