Mass Spectrum: Succinic acid, hexyl 3-hexyl ester
Formula: C16 H30 O4
Molecular weight: 286
Origin: L.N.Kulikova, V.G. Zaikin, RPFU, Moscow, Russia
m/z	RELATIVE INTENSITY
26	40
27	310
28	190
29	470
31	30
39	150
40	30
41	801
42	470
43	2853
44	90
45	90
53	40
54	50
55	711
56	751
57	490
58	30
59	50
67	40
69	320
70	10
71	30
73	160
74	350
75	210
82	20
83	90
84	781
85	2152
86	130
100	160
101	9999
102	430
103	70
119	1431
120	50
158	80
159	20
185	1501
186	140
203	240
