Mass Spectrum: Malonic acid, 2-methylpent-3-yl tridecyl ester
Formula: C22 H42 O4
Molecular weight: 370
Origin: L.N.Kulikova, V.G. Zaikin, RPFU, Moscow, Russia
m/z	RELATIVE INTENSITY
26	40
27	230
28	190
29	480
31	30
39	230
40	50
41	1531
42	540
43	4274
44	290
45	70
53	100
54	240
55	1922
56	1211
57	3533
58	190
59	170
60	50
61	190
66	30
67	390
68	470
69	2502
70	981
71	2282
72	150
73	70
79	20
80	20
81	250
82	921
83	1762
84	2933
85	7567
86	530
87	1431
88	50
89	130
95	160
96	340
97	1772
98	520
99	591
100	280
101	1231
102	100
103	20
104	60
105	9999
106	340
107	90
109	70
110	170
111	1161
112	380
113	380
114	40
115	40
116	20
117	60
123	30
124	90
125	671
126	230
127	250
128	30
130	180
131	240
132	30
138	40
139	170
140	100
141	110
142	20
145	30
152	30
153	40
154	651
155	80
159	30
180	40
181	400
182	1031
183	320
184	30
189	100
199	20
251	140
252	20
269	3873
270	721
271	70
287	130
288	20
312	90
313	30
327	20
341	40
