Mass Spectrum: Succinic acid, eicosyl 3-methylbutyl ester
Formula: C29 H56 O4
Molecular weight: 468
Origin: L.N.Kulikova, V.G. Zaikin, RPFU, Moscow, Russia
m/z	RELATIVE INTENSITY
26	40
27	180
29	370
39	170
40	40
41	991
42	370
43	2893
44	30
45	20
53	70
54	220
55	1922
56	721
57	1982
58	80
66	10
67	330
68	340
69	1421
70	1471
71	9999
72	561
73	90
74	100
75	50
80	20
81	240
82	420
83	1251
84	340
85	841
86	50
87	10
89	60
94	10
95	150
96	200
97	1051
98	230
99	320
100	70
101	4394
102	200
103	40
109	70
110	90
111	520
112	150
113	210
114	20
115	30
116	10
117	30
118	40
119	2502
120	110
121	20
123	30
124	50
125	220
126	100
127	190
128	90
129	60
137	10
138	30
139	80
140	80
141	150
142	10
144	40
145	60
146	10
147	20
152	20
153	40
154	50
155	140
166	10
167	20
168	30
169	110
170	60
171	2742
172	270
173	40
180	10
181	10
182	20
183	100
188	10
189	5385
190	550
191	40
196	10
197	80
198	20
210	10
211	70
212	30
216	50
224	10
225	40
226	30
229	10
239	20
240	40
252	30
254	30
257	20
268	30
278	10
280	30
281	380
282	100
296	20
310	20
313	10
324	10
325	20
338	10
380	60
381	50
399	170
400	40
425	130
426	20
453	80
454	10
469	10
