Mass Spectrum: Succinic acid, 3-ethylphenyl hexyl ester
Formula: C18 H26 O4
Molecular weight: 306
Origin: L.N.Kulikova, V.G. Zaikin, RPFU, Moscow, Russia
m/z	RELATIVE INTENSITY
26	20
27	180
28	80
29	220
39	140
40	20
41	440
42	160
43	2432
44	100
45	20
51	50
52	20
53	50
55	921
56	260
57	460
58	20
63	30
65	80
67	100
69	60
73	120
77	430
78	140
79	150
81	30
83	50
84	60
85	1932
86	130
89	20
91	200
92	20
93	40
94	80
95	140
100	40
101	9999
102	460
103	210
104	20
105	170
107	1411
108	110
119	20
120	30
121	200
122	3853
123	731
124	50
135	20
177	90
185	2032
186	230
187	20
205	1491
206	210
