Mass Spectrum: Malonic acid, 2-methylpentyl undecyl ester
Formula: C20 H38 O4
Molecular weight: 342
Origin: L.N.Kulikova, V.G. Zaikin, RPFU, Moscow, Russia
m/z	RELATIVE INTENSITY
26	80
27	490
29	841
30	20
31	70
37	20
39	430
40	90
41	2642
42	941
43	6676
44	420
45	110
51	20
53	150
54	350
55	2883
56	1962
57	5715
58	280
59	270
60	80
61	530
65	30
66	40
67	540
68	721
69	3513
70	1481
71	3373
72	220
73	160
79	50
81	290
82	1061
83	2212
84	4064
85	9999
86	671
87	1972
88	60
89	100
91	20
94	20
95	180
96	370
97	2312
98	631
99	861
100	330
101	1571
102	120
104	60
105	9489
106	350
107	80
109	60
110	100
111	951
112	360
113	380
114	40
115	40
116	50
117	80
123	20
124	80
125	380
126	871
127	100
128	20
130	210
131	270
132	30
139	40
140	30
141	30
142	20
145	40
152	50
153	360
154	1261
155	430
156	30
159	40
168	20
171	20
181	60
182	20
189	30
195	20
223	30
224	30
241	5135
242	791
243	70
259	110
284	80
285	20
299	30
313	40
