Mass Spectrum: Malonic acid, 2,4-dimethylpent-3-yl hexadecyl ester
Formula: C26 H50 O4
Molecular weight: 426
Origin: L.N.Kulikova, V.G. Zaikin, RPFU, Moscow, Russia
m/z	RELATIVE INTENSITY
26	50
27	240
28	150
29	390
31	20
36	20
39	320
40	80
41	1712
42	500
43	3463
44	330
45	50
51	20
53	110
54	300
55	2592
56	1511
57	9999
58	490
59	30
60	40
61	130
65	20
66	40
67	540
68	611
69	2142
70	1191
71	2913
72	290
73	520
74	20
77	40
79	90
80	40
81	400
82	1161
83	3673
84	821
85	1962
86	130
87	1962
88	60
89	200
91	40
93	30
94	20
95	270
96	460
97	2172
98	1982
99	3103
100	270
101	60
102	50
103	60
104	70
105	9889
106	360
107	100
109	140
110	210
111	1321
112	380
113	420
114	230
115	1411
116	120
117	10
123	70
124	130
125	781
126	230
127	270
128	30
130	200
131	400
132	40
135	20
137	20
138	80
139	390
140	190
141	260
142	40
145	40
151	20
152	50
153	220
154	130
155	130
159	110
166	30
167	130
168	80
169	80
181	50
182	40
183	30
196	430
197	50
221	10
222	40
223	170
224	731
225	220
226	20
293	360
294	70
311	4144
312	861
313	90
329	50
354	60
355	50
383	270
384	60
