Mass Spectrum: Malonic acid, hexyl 2-methylpent-3-yl ester
Formula: C15 H28 O4
Molecular weight: 272
Origin: L.N.Kulikova, V.G. Zaikin, RPFU, Moscow, Russia
m/z	RELATIVE INTENSITY
27	30
29	90
31	20
39	200
40	50
41	1321
42	701
43	4874
44	320
45	90
53	80
54	90
55	941
56	1231
57	1391
58	60
59	150
60	100
61	350
67	140
68	50
69	1912
70	140
71	360
72	50
73	40
81	30
82	140
83	350
84	3703
85	9679
86	711
87	2983
88	100
89	30
99	50
100	230
101	1962
102	140
104	30
105	4204
106	160
107	30
111	961
112	150
113	60
114	20
117	70
125	250
127	30
129	90
130	270
131	220
132	30
144	20
145	50
153	100
159	40
171	9999
172	1071
173	110
189	260
190	20
214	90
215	50
229	200
230	20
243	90
