Mass Spectrum: Succinic acid, butyl 2-decyl ester
Formula: C18 H34 O4
Molecular weight: 314
Origin: L.N.Kulikova, V.G. Zaikin, RPFU, Moscow, Russia
m/z	RELATIVE INTENSITY
26	20
27	160
29	490
39	120
40	20
41	841
42	200
43	721
53	30
54	50
55	661
56	821
57	1551
58	80
67	60
68	50
69	320
70	330
71	440
72	30
73	160
74	380
75	180
81	20
82	60
83	200
84	190
85	581
86	30
96	50
97	260
98	160
99	70
100	100
101	9999
102	430
103	110
111	170
112	100
119	791
120	30
130	280
131	40
140	290
141	781
142	70
156	170
157	5195
158	470
159	50
172	40
174	60
175	1491
176	120
241	20
