Mass Spectrum: Succinic acid, eicosyl 3-hexyl ester
Formula: C30 H58 O4
Molecular weight: 482
Origin: L.N.Kulikova, V.G. Zaikin, RPFU, Moscow, Russia
m/z	RELATIVE INTENSITY
26	60
27	230
29	400
39	200
40	20
41	1031
42	480
43	2662
44	50
53	70
54	230
55	1912
56	1001
57	2692
58	100
59	20
67	350
68	370
69	1672
70	691
71	1832
72	90
73	120
74	220
75	160
80	20
81	270
82	611
83	1611
84	1121
85	2032
86	100
95	170
96	280
97	1401
98	310
99	550
100	200
101	8327
102	370
103	60
109	70
110	130
111	721
112	200
113	400
114	20
117	20
118	180
119	9999
120	420
121	70
123	30
124	70
125	350
126	120
127	340
138	40
139	140
140	80
141	270
146	20
152	30
153	70
154	70
155	230
166	20
167	40
168	40
169	200
181	20
182	30
183	190
185	120
196	20
197	180
203	180
211	140
212	20
225	90
226	20
239	30
240	20
252	80
278	20
280	160
281	1391
282	300
325	30
380	40
381	350
382	70
398	40
399	250
400	50
