Mass Spectrum: Succinic acid, isobutyl 4-methylpent-2-yl ester
Formula: C14 H26 O4
Molecular weight: 258
Origin: L.N.Kulikova, V.G. Zaikin, RPFU, Moscow, Russia
m/z	RELATIVE INTENSITY
26	30
27	480
28	380
29	971
30	30
31	30
39	380
40	80
41	1972
42	400
43	3383
44	120
45	140
53	60
54	20
55	681
56	1301
57	8398
58	390
59	80
67	50
68	20
69	1952
70	90
72	40
73	320
74	490
75	130
83	140
84	1862
85	9238
86	621
100	380
101	9999
102	440
103	130
114	100
115	10
118	70
119	2732
120	120
130	460
131	120
132	30
141	40
146	10
155	10
156	10
157	3113
158	280
159	150
172	30
173	20
174	60
175	671
176	50
185	140
188	10
215	10
243	20
