Mass Spectrum: Malonic acid, decyl isobutyl ester
Formula: C17 H32 O4
Molecular weight: 300
Origin: L.N.Kulikova, V.G. Zaikin, RPFU, Moscow, Russia
m/z	RELATIVE INTENSITY
26	20
27	180
29	550
39	210
40	50
41	1531
42	550
43	1882
53	70
54	220
55	1832
56	1852
57	6456
58	270
60	110
61	50
67	270
68	360
69	1361
70	1191
71	1381
72	100
73	70
81	140
82	400
83	1411
84	601
85	1131
86	80
87	1111
88	30
89	20
90	20
91	40
95	70
96	150
97	971
98	350
99	230
100	40
101	20
102	20
104	50
105	9999
106	360
107	90
109	20
110	60
111	470
112	380
113	50
118	200
119	40
125	110
126	30
127	40
130	50
131	40
132	60
138	20
139	140
140	260
141	150
143	190
145	60
160	20
161	1231
162	90
167	30
201	30
227	330
228	40
245	60
285	30
