Mass Spectrum: Adipic acid, 4-heptyl tetradecyl ester
Formula: C27 H52 O4
Molecular weight: 440
Origin: L.N.Kulikova, V.G. Zaikin, RPFU, Moscow, Russia
m/z	RELATIVE INTENSITY
27	90
28	70
29	170
39	100
41	591
42	150
43	781
44	80
53	40
54	110
55	1081
56	571
57	1491
58	50
59	70
60	20
61	50
67	150
68	170
69	741
70	400
71	520
72	30
73	190
79	20
81	110
82	230
83	701
84	290
85	350
86	30
87	260
95	70
96	120
97	400
98	601
99	100
100	420
101	841
102	330
103	210
109	30
110	50
111	1491
112	250
113	80
114	50
115	200
124	20
125	90
126	90
127	80
128	350
129	9999
130	691
131	90
138	20
139	40
140	30
141	30
144	40
146	50
147	2162
148	130
154	30
155	20
157	20
168	70
184	70
185	20
194	20
196	210
197	60
226	20
227	20
240	50
241	120
254	40
268	30
282	30
283	250
284	30
296	60
298	20
323	30
324	90
325	3023
326	631
327	50
342	60
343	70
