Mass Spectrum: Malonic acid, 3-heptyl tetradecyl ester
Formula: C24 H46 O4
Molecular weight: 398
Origin: L.N.Kulikova, V.G. Zaikin, RPFU, Moscow, Russia
m/z	RELATIVE INTENSITY
26	20
27	120
29	300
39	150
40	30
41	1031
42	350
43	1611
44	80
45	20
53	70
54	200
55	1672
56	1271
57	3683
58	180
59	100
60	40
61	100
66	20
67	300
68	390
69	1762
70	1051
71	1511
72	100
79	20
80	20
81	220
82	711
83	1571
84	540
85	1151
86	80
87	1091
88	40
89	70
95	130
96	300
97	1361
98	1211
99	480
100	40
102	30
103	120
104	60
105	9999
106	340
107	90
109	60
110	120
111	821
112	280
113	230
114	180
115	761
116	70
117	60
123	20
124	70
125	480
126	170
127	170
128	20
138	40
139	190
140	100
141	90
142	20
145	40
152	20
153	50
154	50
155	50
167	30
168	370
169	50
174	20
185	30
195	160
196	540
197	170
203	50
265	110
266	20
283	2112
284	390
285	40
301	110
