Mass Spectrum: Malonic acid, 2-heptyl pentyl ester
Formula: C15 H28 O4
Molecular weight: 272
Origin: L.N.Kulikova, V.G. Zaikin, RPFU, Moscow, Russia
m/z	RELATIVE INTENSITY
26	60
27	480
29	951
30	30
31	20
39	320
40	60
41	1802
42	1281
43	2933
53	90
54	160
55	1661
56	2022
57	3693
58	150
59	50
60	250
61	270
67	90
68	170
69	1261
70	2742
71	3663
72	210
73	20
81	50
83	50
85	100
86	50
87	2963
88	100
89	20
97	831
98	1792
99	671
100	70
102	200
103	210
104	80
105	9999
106	350
107	90
111	100
113	60
114	130
115	1291
116	90
117	20
118	20
125	180
127	10
129	20
130	70
131	110
132	20
139	120
157	8007
158	701
159	80
161	10
167	70
172	240
175	941
176	70
185	300
186	40
201	110
