Mass Spectrum: Succinic acid, 4-heptyl propyl ester
Formula: C14 H26 O4
Molecular weight: 258
Origin: L.N.Kulikova, V.G. Zaikin, RPFU, Moscow, Russia
m/z	RELATIVE INTENSITY
26	20
27	290
28	120
29	310
30	10
31	40
39	110
40	20
41	621
42	170
43	951
44	110
45	90
53	10
54	30
55	420
56	550
57	1111
58	50
59	30
67	10
68	20
69	260
70	220
71	70
72	20
73	220
74	200
75	140
83	30
84	10
98	370
99	480
100	130
101	9999
102	440
103	80
114	210
115	791
116	190
117	10
119	70
131	10
142	10
143	4654
144	350
145	30
160	10
161	350
162	20
199	70
