Mass Spectrum: Succinic acid, 3,3-dimethylbut-2-yl isobutyl ester
Formula: C14 H26 O4
Molecular weight: 258
Origin: L.N.Kulikova, V.G. Zaikin, RPFU, Moscow, Russia
m/z	RELATIVE INTENSITY
26	40
27	390
28	410
29	1031
30	30
31	30
39	310
40	60
41	1832
42	220
43	2492
44	160
45	160
53	70
54	20
55	641
56	1471
57	9689
58	410
59	20
67	40
68	20
69	1171
70	120
71	60
72	30
73	230
74	380
75	110
83	90
84	821
85	8818
86	581
87	170
91	50
100	150
101	9999
102	460
103	100
104	20
114	40
118	100
119	931
120	30
128	160
129	60
130	651
131	170
132	20
141	20
146	50
147	20
157	2642
158	220
159	100
174	80
175	170
185	80
202	170
203	40
243	40
