Mass Spectrum: Malonic acid, di(4-methylpent-2-yl) ester
Formula: C15 H28 O4
Molecular weight: 272
Origin: L.N.Kulikova, V.G. Zaikin, RPFU, Moscow, Russia
m/z	RELATIVE INTENSITY
27	210
29	200
39	200
40	50
41	911
42	430
43	2472
53	40
55	280
56	140
57	450
58	40
59	40
60	20
67	50
68	30
69	1641
70	90
71	20
83	220
84	1702
85	9999
86	611
87	410
100	30
101	911
102	70
105	1231
106	40
111	50
129	20
131	230
144	40
145	50
171	170
173	110
188	60
189	50
257	20
