Mass Spectrum: Succinic acid, butyl 2-ethylbutyl ester
Formula: C14 H26 O4
Molecular weight: 258
Origin: L.N.Kulikova, V.G. Zaikin, RPFU, Moscow, Russia
m/z	RELATIVE INTENSITY
26	20
27	210
28	220
29	561
30	20
31	20
39	130
40	20
41	771
42	170
43	1341
44	30
45	80
53	30
54	40
55	581
56	851
57	1001
58	40
69	621
70	20
71	40
72	20
73	180
74	250
75	90
83	20
84	1461
85	2142
86	140
100	110
101	9999
102	450
103	90
114	270
115	60
119	841
120	30
130	280
131	20
155	30
156	20
157	1702
158	160
159	30
174	20
175	470
176	30
185	100
188	40
203	20
229	30
