Mass Spectrum: Succinic acid, 4-heptyl octadecyl ester
Formula: C29 H56 O4
Molecular weight: 468
Origin: L.N.Kulikova, V.G. Zaikin, RPFU, Moscow, Russia
m/z	RELATIVE INTENSITY
26	50
27	220
29	410
39	200
40	40
41	1211
42	350
43	2032
44	30
45	30
53	70
54	230
55	1922
56	1281
57	4244
58	180
65	10
66	20
67	330
68	380
69	1782
70	981
71	2012
72	120
73	150
74	220
75	150
80	10
81	240
82	571
83	1581
84	420
85	1451
86	90
95	160
96	230
97	1341
98	1171
99	1081
100	200
101	8608
102	390
103	60
109	60
110	130
111	691
112	210
113	500
114	300
115	1071
116	80
117	20
118	180
119	9999
120	470
121	80
123	30
124	70
125	330
126	140
127	410
128	30
129	10
137	10
138	40
139	130
140	90
141	350
142	20
146	20
152	30
153	70
154	60
155	320
156	20
157	20
166	20
167	40
168	50
169	320
170	20
175	40
180	10
181	20
182	30
183	260
184	20
195	10
196	20
197	170
198	20
199	90
211	80
212	20
217	70
224	100
225	10
226	10
240	10
250	20
252	220
253	2032
254	410
255	20
268	10
269	10
297	40
352	30
353	681
354	140
370	40
371	340
372	70
