Mass Spectrum: Succinic acid, 2-hexyl nonadecyl ester
Formula: C29 H56 O4
Molecular weight: 468
Origin: L.N.Kulikova, V.G. Zaikin, RPFU, Moscow, Russia
m/z	RELATIVE INTENSITY
26	60
27	250
29	470
39	250
40	40
41	1181
42	571
43	2883
44	190
45	70
51	20
52	20
53	90
54	260
55	2122
56	1201
57	2783
58	120
67	380
68	390
69	1722
70	711
71	1712
72	60
73	130
74	250
75	170
77	20
78	20
79	60
80	20
81	270
82	631
83	1651
84	1221
85	2052
86	110
91	20
95	180
96	200
97	1371
98	310
99	480
100	190
101	8838
102	380
103	60
109	70
110	110
111	681
112	200
113	330
117	30
118	170
119	9999
120	420
121	70
123	20
124	60
125	330
126	120
127	270
128	20
129	20
138	40
139	110
140	80
141	210
152	20
153	50
154	50
155	180
167	20
168	30
169	150
182	20
183	150
185	100
197	120
203	280
204	10
211	70
225	20
238	50
266	130
267	1101
268	240
311	20
366	20
367	270
368	40
385	230
386	30
