Mass Spectrum: Adipic acid, decyl 4-heptyl ester
Formula: C23 H44 O4
Molecular weight: 384
Origin: L.N.Kulikova, V.G. Zaikin, RPFU, Moscow, Russia
m/z	RELATIVE INTENSITY
26	30
27	150
29	320
39	120
40	30
41	801
42	240
43	1061
44	110
45	20
53	50
54	110
55	1161
56	741
57	1712
58	70
59	100
60	20
61	120
67	110
68	160
69	611
70	460
71	440
72	30
73	240
81	40
82	160
83	611
84	250
85	430
86	30
87	340
95	20
96	60
97	240
98	550
99	90
100	510
101	891
102	380
103	230
110	70
111	1762
112	300
113	40
114	60
115	220
126	40
127	40
128	340
129	9999
130	721
131	80
138	30
140	360
141	50
146	30
147	1581
148	100
184	50
185	120
213	20
226	30
227	510
228	50
240	160
241	20
242	60
267	20
268	70
269	4684
270	831
271	80
286	110
287	110
