Mass Spectrum: Malonic acid, 4-methylpent-2-yl pentadecyl ester
Formula: C24 H46 O4
Molecular weight: 398
Origin: L.N.Kulikova, V.G. Zaikin, RPFU, Moscow, Russia
m/z	RELATIVE INTENSITY
26	40
27	230
28	180
29	450
39	240
40	50
41	1541
42	530
43	4244
44	230
45	110
53	90
54	240
55	1842
56	1121
57	2913
58	140
59	40
60	40
61	120
66	30
67	400
68	470
69	2762
70	861
71	1551
72	80
79	30
80	20
81	250
82	901
83	1752
84	2682
85	5875
86	390
87	711
88	20
89	80
91	30
95	160
96	330
97	1511
98	420
99	290
100	110
101	360
102	40
103	70
104	60
105	9999
106	350
107	80
109	70
110	140
111	851
112	270
113	190
115	20
123	30
124	80
125	440
126	190
127	150
128	20
132	20
136	20
137	20
138	50
139	190
140	110
141	70
145	50
152	30
153	100
154	80
155	50
167	20
168	30
169	20
182	360
183	40
189	90
209	140
210	490
211	130
279	210
280	30
297	601
298	110
315	80
383	20
