Mass Spectrum: Succinic acid, 2-hexyl pentyl ester
Formula: C15 H28 O4
Molecular weight: 272
Origin: L.N.Kulikova, V.G. Zaikin, RPFU, Moscow, Russia
m/z	RELATIVE INTENSITY
26	30
27	210
29	360
39	100
40	20
41	530
42	400
43	1872
44	140
45	60
53	30
54	30
55	530
56	430
57	260
58	20
67	20
68	20
69	280
70	350
71	791
72	20
73	150
74	400
75	190
83	30
84	510
85	761
86	60
87	40
100	190
101	9999
102	480
103	90
119	1231
120	50
129	30
143	40
144	160
145	50
171	1842
172	170
173	20
185	150
186	20
189	340
190	20
