Mass Spectrum: Succinic acid, di(2,2-dichloroethyl) ester
Formula: C8 H10 Cl4 O4
Molecular weight: 310
Origin: L.N.Kulikova, V.G. Zaikin, RPFU, Moscow, Russia
m/z	RELATIVE INTENSITY
25	10
26	240
27	831
29	430
30	80
31	50
35	10
42	140
45	220
47	70
48	100
49	130
50	20
51	10
53	10
55	1281
56	350
60	40
61	1451
62	561
63	520
64	170
65	10
72	20
73	841
74	80
83	180
84	100
85	370
86	20
87	30
91	40
96	1682
97	1471
98	1041
99	1051
100	400
101	9999
102	440
103	60
114	90
119	50
121	20
133	40
135	20
161	90
163	20
179	10
196	70
197	5115
198	400
199	3313
200	240
201	571
202	30
274	20
276	20
