Mass Spectrum: Succinic acid, di(2,3-dimethylphenyl) ester
Formula: C20 H22 O4
Molecular weight: 326
Origin: L.N.Kulikova, V.G. Zaikin, RPFU, Moscow, Russia
m/z	RELATIVE INTENSITY
27	60
39	50
51	40
52	20
53	30
55	1481
56	30
63	20
65	60
77	330
78	80
79	160
91	220
92	40
93	30
103	110
104	50
105	591
106	50
107	350
108	30
120	20
121	360
122	1782
123	1101
124	90
135	50
149	50
164	20
175	20
176	30
177	1191
178	140
204	20
205	9999
206	1311
207	120
326	30
