Mass Spectrum: Succinic acid, eicosyl 2-ethylbutyl ester
Formula: C30 H58 O4
Molecular weight: 482
Origin: L.N.Kulikova, V.G. Zaikin, RPFU, Moscow, Russia
m/z	RELATIVE INTENSITY
26	60
27	240
29	470
30	10
31	10
39	220
40	30
41	1211
42	430
43	3813
44	30
45	30
51	10
53	90
54	270
55	2102
56	1191
57	2953
58	110
59	10
65	10
66	20
67	420
68	410
69	2102
70	781
71	1792
72	100
73	120
74	180
75	90
77	10
79	20
80	30
81	290
82	621
83	1772
84	2452
85	6105
86	400
91	20
93	10
94	10
95	200
96	280
97	1431
98	310
99	460
100	150
101	8878
102	380
103	80
109	90
110	130
111	761
112	200
113	320
114	200
115	190
116	30
117	40
118	190
119	9999
120	450
121	80
123	40
124	80
125	340
126	130
127	250
128	40
129	40
131	10
132	60
133	120
137	20
138	60
139	140
140	90
141	230
142	10
146	40
152	30
153	70
154	70
155	200
156	10
166	20
167	40
168	40
169	150
170	10
180	20
181	20
182	20
183	150
184	20
185	210
186	10
194	10
195	10
196	20
197	140
198	20
203	1822
204	180
205	10
210	10
211	100
212	40
224	10
225	60
226	30
230	10
239	30
240	30
243	10
252	60
254	30
268	30
278	30
280	100
281	581
282	150
296	20
310	10
324	10
325	30
327	10
380	70
381	90
399	300
400	60
453	80
454	10
