Mass Spectrum: Succinic acid, eicosyl 4-methylpent-2-yl ester
Formula: C30 H58 O4
Molecular weight: 482
Origin: L.N.Kulikova, V.G. Zaikin, RPFU, Moscow, Russia
m/z	RELATIVE INTENSITY
26	50
27	200
29	360
39	220
40	40
41	1201
42	360
43	3333
44	30
45	40
51	10
53	70
54	200
55	1611
56	871
57	2702
58	130
59	10
65	10
66	20
67	360
68	380
69	2112
70	661
71	1611
72	70
73	90
74	210
75	180
77	10
80	20
81	250
82	611
83	1581
84	1732
85	4894
86	310
87	10
91	10
93	10
94	10
95	170
96	270
97	1311
98	290
99	460
100	140
101	6045
102	260
103	50
109	80
110	130
111	711
112	190
113	350
114	20
116	20
117	30
118	190
119	9999
120	440
121	90
123	40
124	80
125	340
126	130
127	270
128	20
129	20
137	20
138	60
139	140
140	90
141	250
142	10
146	30
152	30
153	80
154	60
155	200
156	10
159	10
166	20
167	50
168	50
169	170
170	10
180	20
181	30
182	30
183	170
184	10
185	30
194	10
195	10
196	30
197	150
198	20
203	320
204	20
210	10
211	130
212	30
222	10
224	20
225	70
226	30
239	30
240	20
252	80
254	20
268	20
278	40
280	180
281	1061
282	240
283	10
296	10
297	10
310	10
324	10
325	40
326	10
380	50
381	260
382	50
398	40
399	280
400	50
439	10
467	60
468	10
