Mass Spectrum: Succinic acid, 3,3-dimethylbut-2-yl tridecyl ester
Formula: C23 H44 O4
Molecular weight: 384
Origin: L.N.Kulikova, V.G. Zaikin, RPFU, Moscow, Russia
m/z	RELATIVE INTENSITY
26	60
27	270
29	611
39	270
40	50
41	1842
42	490
43	4384
44	220
45	60
53	100
54	190
55	1822
56	1191
57	4244
58	180
67	300
68	330
69	2362
70	871
71	2532
72	120
73	140
74	390
75	410
81	140
82	490
83	1181
84	2012
85	9999
86	681
87	100
95	70
96	190
97	881
98	320
99	871
100	160
101	8718
102	410
103	60
109	20
110	80
111	470
112	200
113	741
114	50
118	160
119	9438
120	410
121	70
124	40
125	230
126	110
127	571
128	250
129	150
138	20
139	60
140	60
141	270
142	20
146	60
147	80
153	30
154	200
155	20
159	20
169	20
180	20
182	490
183	1962
184	270
185	50
203	30
227	60
256	180
257	50
283	1061
284	170
300	30
301	160
328	60
329	40
369	150
370	20
