Mass Spectrum: Succinic acid, 4-methylpent-2-yl pentyl ester
Formula: C15 H28 O4
Molecular weight: 272
Origin: L.N.Kulikova, V.G. Zaikin, RPFU, Moscow, Russia
m/z	RELATIVE INTENSITY
27	180
28	150
29	380
30	10
31	10
39	140
40	30
41	701
42	400
43	2332
44	50
45	80
53	30
55	450
56	360
57	350
58	30
59	30
67	40
68	30
69	1011
70	490
71	1081
72	50
73	190
74	460
75	250
84	951
85	2833
86	230
87	40
100	40
101	9999
102	470
103	100
115	20
118	20
119	1441
120	60
141	10
144	280
145	80
146	10
159	20
171	2452
172	250
173	30
186	20
188	40
189	561
190	50
229	10
257	10
