Mass Spectrum: Succinic acid, hexyl 4-methylpent-2-yl ester
Formula: C16 H30 O4
Molecular weight: 286
Origin: L.N.Kulikova, V.G. Zaikin, RPFU, Moscow, Russia
m/z	RELATIVE INTENSITY
26	20
27	300
28	180
29	450
30	10
31	10
39	200
40	50
41	1091
42	460
43	3583
44	120
45	90
53	50
54	40
55	671
56	701
57	721
58	40
59	30
67	20
68	20
69	1391
70	60
73	170
74	480
75	340
83	50
84	1732
85	5525
86	370
87	10
100	130
101	9999
102	450
103	80
118	20
119	2362
120	100
121	10
129	10
141	10
145	10
158	220
159	90
185	2032
186	220
187	20
200	10
202	10
203	550
204	50
243	20
271	20
