Mass Spectrum: Succinic acid, docosyl propyl ester
Formula: C29 H56 O4
Molecular weight: 468
Origin: L.N.Kulikova, V.G. Zaikin, RPFU, Moscow, Russia
m/z	RELATIVE INTENSITY
26	40
27	180
29	300
31	20
39	140
40	30
41	861
42	290
43	1972
44	90
53	40
54	210
55	1471
56	651
57	1912
58	80
61	60
67	320
68	320
69	1221
70	520
71	1091
72	40
73	140
74	150
75	100
79	30
80	20
81	230
82	400
83	1181
84	320
85	711
86	30
95	160
96	190
97	941
98	200
99	210
100	190
101	9999
102	450
103	80
109	70
110	80
111	460
112	120
113	140
116	80
117	30
119	500
123	30
124	50
125	190
126	70
127	110
128	20
129	60
138	30
139	70
140	60
141	90
142	170
143	6606
144	510
145	50
147	20
149	50
153	30
154	40
155	80
160	50
161	5605
162	390
163	50
167	30
168	20
169	50
183	50
188	60
198	70
211	40
212	20
225	40
226	20
229	20
239	20
240	20
254	20
309	310
310	80
408	40
409	30
