Mass Spectrum: Succinic acid, 3,3-dimethylbut-2-yl eicosyl ester
Formula: C30 H58 O4
Molecular weight: 482
Origin: L.N.Kulikova, V.G. Zaikin, RPFU, Moscow, Russia
m/z	RELATIVE INTENSITY
26	90
27	280
29	480
36	30
38	20
39	330
40	60
41	1822
42	420
43	3944
44	200
45	30
51	20
53	100
54	240
55	1812
56	991
57	3653
58	130
66	20
67	420
68	410
69	2562
70	801
71	1992
72	80
73	80
74	260
75	280
77	20
79	50
80	20
81	260
82	671
83	1611
84	1782
85	7447
86	480
87	40
91	30
95	170
96	260
97	1361
98	310
99	571
100	120
101	6005
102	240
103	30
109	70
110	120
111	711
112	190
113	410
118	210
119	9999
120	440
121	70
123	20
124	70
125	330
126	120
127	320
128	140
129	130
138	40
139	130
140	80
141	280
146	30
147	100
152	20
153	60
154	50
155	220
167	30
168	30
169	190
182	20
183	170
196	20
197	160
211	130
225	80
239	20
252	80
278	20
280	200
281	1141
282	200
325	40
380	30
381	270
382	40
398	50
399	60
467	140
468	30
