Mass Spectrum: Succinic acid, heptyl 3-methylbutyl ester
Formula: C16 H30 O4
Molecular weight: 286
Origin: L.N.Kulikova, V.G. Zaikin, RPFU, Moscow, Russia
m/z	RELATIVE INTENSITY
26	20
27	210
28	200
29	500
30	10
31	10
39	180
40	40
41	1101
42	490
43	2252
44	40
45	90
53	70
54	110
55	1481
56	1061
57	3273
58	150
67	70
68	140
69	661
70	2082
71	6726
72	400
73	220
74	250
75	110
81	30
82	20
83	130
84	110
85	170
86	10
87	20
89	30
96	20
97	70
98	290
99	550
100	130
101	9999
102	460
103	80
112	10
113	80
114	60
115	50
118	20
119	2402
120	100
121	10
126	10
127	70
128	140
129	30
143	10
144	60
145	110
146	20
147	10
155	50
157	40
170	30
171	1321
172	220
173	30
175	50
185	10
189	1211
190	110
199	530
200	50
215	10
216	20
217	370
218	40
229	50
243	160
244	20
271	20
287	10
