Mass Spectrum: Succinic acid, 2-heptyl octyl ester
Formula: C19 H36 O4
Molecular weight: 328
Origin: L.N.Kulikova, V.G. Zaikin, RPFU, Moscow, Russia
m/z	RELATIVE INTENSITY
26	30
27	190
29	430
39	140
40	30
41	981
42	390
43	1261
44	30
45	60
53	50
54	100
55	1061
56	1121
57	3393
58	160
67	80
68	130
69	781
70	731
71	1902
72	100
73	160
74	380
75	250
81	50
82	100
83	400
84	280
85	50
97	100
98	801
99	490
100	150
101	9999
102	450
103	70
110	20
111	60
112	300
113	1131
114	210
115	500
116	30
117	10
118	30
119	3964
120	170
121	20
129	20
133	20
157	40
186	110
187	30
199	80
213	1531
214	190
217	40
231	581
232	60
