Mass Spectrum: Malonic acid, 3-heptyl isohexyl ester
Formula: C16 H30 O4
Molecular weight: 286
Origin: L.N.Kulikova, V.G. Zaikin, RPFU, Moscow, Russia
m/z	RELATIVE INTENSITY
26	60
27	550
29	1121
30	20
39	350
40	60
41	1912
42	1001
43	3853
53	140
54	210
55	2242
56	2352
57	5895
60	200
61	30
67	110
68	110
69	1131
70	791
71	460
72	160
73	50
81	40
82	50
83	430
84	4284
85	9999
86	681
87	2252
88	30
89	30
90	190
91	100
93	30
96	20
97	150
98	1411
99	741
100	190
101	340
102	80
105	7467
106	250
107	80
111	1061
112	90
114	110
115	1782
116	150
117	170
118	2242
119	230
120	20
125	751
126	60
127	50
129	50
130	20
139	110
140	20
141	100
144	20
145	430
146	30
153	330
154	30
155	20
158	50
159	150
160	30
167	160
169	30
171	7457
172	711
173	230
185	410
186	160
188	110
189	160
203	20
229	50
257	140
