Mass Spectrum: Succinic acid, butyl 3-ethylphenyl ester
Formula: C16 H22 O4
Molecular weight: 278
Origin: L.N.Kulikova, V.G. Zaikin, RPFU, Moscow, Russia
m/z	RELATIVE INTENSITY
27	80
28	70
29	190
39	80
41	270
42	20
43	140
44	20
45	20
51	50
52	20
53	40
55	631
56	150
57	1021
58	40
63	30
65	70
67	150
73	160
74	10
77	400
78	130
79	150
81	60
89	20
91	170
92	20
93	30
94	80
95	200
99	20
100	70
101	9999
102	470
103	250
104	20
105	150
107	1331
108	110
120	30
121	160
122	2602
123	460
124	30
157	2392
158	210
159	20
177	80
178	20
205	1722
206	230
207	20
