Mass Spectrum: Malonic acid, 2,4-dimethylpent-3-yl pentadecyl ester
Formula: C25 H48 O4
Molecular weight: 412
Origin: L.N.Kulikova, V.G. Zaikin, RPFU, Moscow, Russia
m/z	RELATIVE INTENSITY
26	40
27	250
28	170
29	430
31	20
39	250
40	60
41	1501
42	480
43	3313
44	250
45	50
53	90
54	240
55	2192
56	1351
57	9999
58	450
59	20
60	50
61	110
66	30
67	430
68	510
69	1812
70	1001
71	2823
72	250
73	330
79	40
80	30
81	320
82	951
83	3293
84	761
85	1992
86	130
87	2052
88	60
89	190
94	20
95	230
96	420
97	1922
98	1772
99	3073
100	260
101	70
102	50
103	40
104	70
105	9729
106	350
107	80
109	110
110	190
111	1221
112	350
113	450
114	250
115	1581
116	140
123	40
124	110
125	781
126	260
127	320
128	30
130	220
131	440
132	50
137	20
138	80
139	370
140	170
141	240
142	30
145	20
152	50
153	210
154	110
155	140
159	130
167	80
168	60
169	60
180	20
181	30
182	550
183	70
209	190
210	1021
211	300
212	30
227	20
237	30
255	20
279	390
280	70
297	6526
298	1301
299	150
315	100
340	110
341	80
369	450
370	110
