Mass Spectrum: Succinic acid, docosyl isobutyl ester
Formula: C30 H58 O4
Molecular weight: 482
Origin: L.N.Kulikova, V.G. Zaikin, RPFU, Moscow, Russia
m/z	RELATIVE INTENSITY
26	50
27	200
29	550
39	210
40	40
41	1321
42	350
43	2042
44	100
53	70
54	280
55	1962
56	1211
57	7887
58	350
66	20
67	430
68	430
69	1661
70	711
71	1621
72	90
73	160
74	180
75	80
79	40
80	30
81	320
82	571
83	1722
84	430
85	1061
86	60
91	20
94	10
95	230
96	360
97	1391
98	300
99	350
100	170
101	9999
102	450
103	90
109	100
110	120
111	711
112	190
113	260
114	50
115	20
116	30
117	50
118	150
119	6846
120	320
121	60
123	50
124	80
125	310
126	120
127	200
128	50
129	40
130	40
137	20
138	50
139	110
140	90
141	180
142	20
149	50
153	50
154	70
155	160
156	70
157	1822
158	160
159	20
166	20
167	20
168	30
169	80
174	30
175	5235
176	460
177	50
180	20
182	30
183	120
198	80
202	70
211	90
212	50
215	20
225	90
226	40
239	70
240	40
243	20
254	40
267	30
268	30
280	30
282	20
306	20
308	30
309	721
310	180
324	20
338	10
353	30
408	90
409	90
427	100
467	40
