Mass Spectrum: Succinic acid, 2,3-dimethylphenyl isohexyl ester
Formula: C18 H26 O4
Molecular weight: 306
Origin: L.N.Kulikova, V.G. Zaikin, RPFU, Moscow, Russia
m/z	RELATIVE INTENSITY
29	30
39	130
40	30
41	530
42	250
43	3643
44	160
45	30
51	60
52	20
53	80
55	1041
56	330
57	901
58	40
63	20
65	100
67	80
69	450
73	100
77	550
78	140
79	240
80	20
81	20
83	130
84	40
85	9999
86	701
87	20
91	390
92	70
93	60
94	40
95	20
100	30
101	1892
102	110
103	190
104	90
105	390
106	40
107	1091
108	90
120	30
121	571
122	6146
123	1421
124	100
135	50
142	20
177	170
178	30
185	2783
186	310
187	20
205	1842
206	250
207	20
263	140
264	20
