Mass Spectrum: Malonic acid, 2-methylpentyl nonyl ester
Formula: C18 H34 O4
Molecular weight: 314
Origin: L.N.Kulikova, V.G. Zaikin, RPFU, Moscow, Russia
m/z	RELATIVE INTENSITY
26	90
27	621
28	360
29	901
30	50
31	100
37	20
39	480
40	130
41	2783
42	1061
43	6626
44	430
45	120
52	20
53	170
54	290
55	2442
56	2022
57	4334
58	220
59	320
60	90
61	420
65	30
66	30
67	380
68	550
69	3333
70	1371
71	4784
72	310
73	190
77	20
79	50
80	20
81	200
82	571
83	1371
84	3853
85	9999
86	671
87	2242
88	60
89	40
95	120
96	240
97	1051
98	941
99	110
100	260
101	1782
102	110
103	20
104	40
105	7547
106	260
107	60
109	20
110	40
111	220
112	100
113	100
114	20
115	70
116	30
117	70
123	10
124	80
125	581
126	1321
127	591
128	40
129	30
130	230
131	280
132	40
139	20
140	60
141	30
142	20
145	40
147	20
153	150
154	20
159	30
167	20
171	30
189	10
195	20
213	7186
214	931
215	80
231	140
256	60
257	30
271	60
285	50
