Mass Spectrum: Succinic acid, 4-methylpent-2-yl tetradecyl ester
Formula: C24 H46 O4
Molecular weight: 398
Origin: L.N.Kulikova, V.G. Zaikin, RPFU, Moscow, Russia
m/z	RELATIVE INTENSITY
26	40
27	190
29	400
39	190
40	40
41	1271
42	400
43	3173
45	50
53	70
54	180
55	1621
56	1001
57	3363
58	160
59	20
66	10
67	290
68	330
69	2232
70	791
71	1832
72	90
73	150
74	270
75	220
80	10
81	160
82	500
83	1361
84	2032
85	5795
86	390
87	10
95	100
96	200
97	981
98	310
99	591
100	170
101	8538
102	400
103	70
109	30
110	90
111	520
112	210
113	510
114	30
116	10
117	10
118	150
119	9999
120	450
121	80
123	10
124	50
125	240
126	130
127	460
128	80
129	10
130	10
138	30
139	90
140	90
141	360
142	30
145	10
146	40
152	10
153	30
154	40
155	170
156	20
157	190
158	10
159	20
166	10
167	10
168	150
169	20
175	530
176	40
182	10
185	40
194	20
196	280
197	1531
198	220
199	10
203	250
204	10
211	120
212	30
213	20
226	10
240	10
241	50
243	10
254	10
269	30
270	20
271	20
296	20
297	691
298	120
299	10
311	10
314	20
315	420
316	70
329	10
355	10
383	60
384	10
