Mass Spectrum: Succinic acid, 2,4-dimethylpent-3-yl dodecyl ester
Formula: C23 H44 O4
Molecular weight: 384
Origin: L.N.Kulikova, V.G. Zaikin, RPFU, Moscow, Russia
m/z	RELATIVE INTENSITY
26	30
27	300
29	410
31	10
38	10
39	270
41	1451
42	390
43	2692
45	10
51	10
53	80
54	130
55	1942
56	1361
57	8608
58	260
65	20
67	280
68	240
69	1251
70	891
71	3333
72	140
73	240
74	150
75	130
77	20
78	10
79	30
81	130
82	330
83	2502
84	550
85	2622
86	80
91	20
95	30
96	190
97	811
98	1251
99	4054
100	330
101	9999
102	370
103	20
105	10
109	10
110	30
111	380
112	110
113	1051
114	450
115	2202
116	80
118	40
119	7757
120	230
121	20
125	90
126	30
127	460
128	10
129	80
135	10
140	110
149	10
164	10
168	290
169	3433
170	310
213	10
242	10
267	10
269	2562
270	350
271	10
287	70
