Mass Spectrum: Succinic acid, 4-methylpent-2-yl undecyl ester
Formula: C21 H40 O4
Molecular weight: 356
Origin: L.N.Kulikova, V.G. Zaikin, RPFU, Moscow, Russia
m/z	RELATIVE INTENSITY
26	60
27	360
29	731
30	10
31	10
39	300
40	70
41	1912
42	651
43	4784
44	140
45	100
53	90
54	180
55	1832
56	1311
57	3984
58	180
59	40
65	10
66	10
67	260
68	300
69	2712
70	901
71	2212
72	110
73	200
74	400
75	340
81	100
82	420
83	1091
84	2662
85	7957
86	530
87	20
95	50
96	150
97	761
98	280
99	951
100	340
101	9999
102	460
103	80
109	10
110	60
111	330
112	130
113	440
114	10
117	10
118	90
119	8978
120	420
121	70
124	20
125	150
126	250
127	30
128	20
145	10
146	30
152	20
154	410
155	1812
156	210
157	50
159	20
169	40
171	30
173	10
175	120
185	40
199	30
203	160
204	10
228	100
229	40
254	10
255	1211
256	190
257	10
272	10
273	581
274	80
313	20
341	50
