Mass Spectrum: Succinic acid, 4-biphenyl pentyl ester
Formula: C21 H24 O4
Molecular weight: 340
Origin: L.N.Kulikova, V.G. Zaikin, RPFU, Moscow, Russia
m/z	RELATIVE INTENSITY
26	10
27	70
29	130
39	50
41	170
42	80
43	971
44	40
51	20
55	520
56	70
63	40
65	20
69	50
70	40
71	591
72	60
73	60
75	20
76	170
77	190
85	50
89	30
91	30
99	30
100	40
101	4744
102	260
103	40
113	20
114	20
115	360
116	40
126	20
127	130
139	140
140	40
141	500
142	80
151	70
152	290
153	220
154	30
155	20
167	40
168	50
169	290
170	9999
171	2172
172	200
183	10
185	20
225	30
226	20
240	20
253	1211
254	220
255	20
340	190
341	40
