Mass Spectrum: Succinic acid, isohexyl 3-methylbutyl ester
Formula: C15 H28 O4
Molecular weight: 272
Origin: L.N.Kulikova, V.G. Zaikin, RPFU, Moscow, Russia
m/z	RELATIVE INTENSITY
26	40
27	440
28	290
29	731
30	30
31	30
39	280
40	50
41	1181
42	540
43	5395
44	150
45	160
53	100
54	90
55	1762
56	951
57	360
58	10
59	30
67	40
68	30
69	1501
70	1802
71	9999
72	591
73	200
74	150
83	10
84	3083
85	3924
86	270
87	50
89	10
91	120
93	30
100	80
101	5385
102	250
103	90
104	10
105	40
107	10
114	450
115	150
118	20
119	2412
120	100
121	10
127	40
128	170
132	70
133	30
144	370
145	240
146	90
155	120
158	40
170	20
171	1611
172	150
173	90
184	10
185	110
186	10
188	20
189	741
190	60
202	60
203	70
229	40
257	60
