Mass Spectrum: Malonic acid, 2-methylpentyl tetradecyl ester
Formula: C23 H44 O4
Molecular weight: 384
Origin: L.N.Kulikova, V.G. Zaikin, RPFU, Moscow, Russia
m/z	RELATIVE INTENSITY
26	110
27	540
29	931
30	30
31	70
37	50
39	490
40	120
41	2352
42	761
43	6146
44	691
45	70
51	10
52	20
53	160
54	410
55	2722
56	1581
57	4304
58	210
59	240
60	80
61	190
65	30
66	50
67	581
68	661
69	3273
70	1211
71	2732
72	180
73	100
77	30
78	20
79	80
80	30
81	380
82	1171
83	2232
84	3203
85	7877
86	510
87	1341
88	30
89	110
91	90
93	20
95	250
96	450
97	2002
98	520
99	500
100	230
101	981
102	50
103	40
104	110
105	9999
106	340
107	100
108	20
109	110
110	190
111	1201
112	400
113	280
115	50
116	20
117	70
123	60
124	110
125	761
126	290
127	230
128	20
130	140
131	180
132	20
138	60
139	320
140	160
141	110
142	30
145	30
147	30
149	20
150	30
152	20
153	60
154	70
155	40
159	40
166	20
167	30
168	490
169	50
177	30
189	30
192	20
193	20
194	20
195	270
196	771
197	210
207	100
265	170
281	60
282	20
283	2783
284	490
301	50
326	30
341	20
355	20
