Mass Spectrum: Succinic acid, 4-heptyl isobutyl ester
Formula: C15 H28 O4
Molecular weight: 272
Origin: L.N.Kulikova, V.G. Zaikin, RPFU, Moscow, Russia
m/z	RELATIVE INTENSITY
26	20
27	270
28	230
29	591
30	10
31	30
39	170
40	30
41	1001
42	150
43	581
44	110
45	90
53	30
54	40
55	581
56	1061
57	6986
58	310
59	20
67	20
68	20
69	290
70	250
71	60
72	40
73	240
74	220
75	50
83	40
84	90
86	20
97	20
98	490
99	861
100	150
101	9999
102	450
103	100
114	350
115	1011
116	70
118	30
119	1181
120	40
130	130
131	30
132	20
141	10
157	2652
158	230
159	80
174	20
175	350
176	20
199	200
200	20
