Mass Spectrum: Succinic acid, 4-biphenyl butyl ester
Formula: C20 H22 O4
Molecular weight: 326
Origin: L.N.Kulikova, V.G. Zaikin, RPFU, Moscow, Russia
m/z	RELATIVE INTENSITY
26	20
27	90
29	300
39	60
41	310
44	20
51	30
55	591
56	110
57	711
58	20
63	60
65	20
73	110
75	20
76	240
77	250
85	30
89	50
91	20
97	60
99	70
100	50
101	5785
102	310
103	50
113	20
114	30
115	440
116	50
124	20
126	20
127	180
128	20
139	170
140	40
141	581
142	100
151	80
152	360
153	250
154	40
155	30
157	1271
158	110
167	50
168	60
169	340
170	9999
171	1451
172	120
183	20
225	40
226	50
253	1591
254	280
255	30
326	260
327	50
