Mass Spectrum: Succinic acid, 4-biphenyl isobutyl ester
Formula: C20 H22 O4
Molecular weight: 326
Origin: L.N.Kulikova, V.G. Zaikin, RPFU, Moscow, Russia
m/z	RELATIVE INTENSITY
27	70
29	180
39	60
41	260
42	20
43	50
51	20
55	571
56	120
57	2332
58	100
63	50
65	20
73	60
75	20
76	180
77	200
84	20
85	30
89	40
91	20
99	60
100	20
101	3083
102	180
103	30
105	20
113	20
114	60
115	400
116	50
119	20
126	20
127	140
128	20
139	160
140	40
141	561
142	90
151	90
152	360
153	250
154	40
155	30
157	721
158	60
167	40
168	50
169	300
170	9999
171	1311
172	110
225	50
226	20
253	1902
254	360
255	40
326	230
327	40
