Mass Spectrum: Succinic acid, 4-phenoxybenzyl propyl ester
Formula: C20 H22 O5
Molecular weight: 342
Origin: L.N.Kulikova, V.G. Zaikin, RPFU, Moscow, Russia
m/z	RELATIVE INTENSITY
26	40
27	260
28	60
29	160
31	20
39	190
40	30
41	290
42	90
43	891
44	90
45	50
50	80
51	360
52	50
55	380
56	230
57	30
59	20
62	20
63	140
64	110
65	240
66	30
73	280
74	540
75	380
76	150
77	821
78	320
79	60
84	30
89	941
90	400
91	1852
92	1001
93	320
94	210
95	20
100	30
101	9999
102	460
103	70
105	50
106	40
107	260
115	330
116	180
117	20
122	90
127	160
128	230
129	140
139	70
140	20
141	260
142	420
143	2362
144	190
151	30
152	220
153	561
154	220
155	210
156	30
165	280
166	40
168	470
169	290
170	50
171	1081
172	130
180	20
181	651
182	320
183	7257
184	1351
185	110
196	20
197	250
198	691
199	2102
200	5815
201	811
202	70
254	330
255	40
282	60
300	20
314	50
342	3163
343	691
344	90
