Mass Spectrum: Malonic acid, 2-decyl isohexyl ester
Formula: C19 H36 O4
Molecular weight: 328
Origin: L.N.Kulikova, V.G. Zaikin, RPFU, Moscow, Russia
m/z	RELATIVE INTENSITY
26	50
27	380
29	741
31	10
39	310
40	50
41	1762
42	911
43	5005
53	120
54	200
55	2332
56	1812
57	2522
58	130
59	90
60	180
67	210
68	170
69	1852
70	1061
71	1511
72	140
81	90
82	220
83	751
84	4104
85	9999
86	681
87	1271
88	30
89	20
90	110
95	30
96	150
97	741
98	430
99	300
100	140
101	320
102	170
103	70
105	8027
106	270
107	60
110	40
111	991
112	280
113	30
114	20
118	1551
119	160
125	210
127	40
129	60
130	20
131	380
132	20
140	881
141	891
142	90
145	20
153	190
156	150
157	661
158	110
159	110
160	20
167	40
171	2422
172	220
173	20
186	130
188	120
189	480
190	40
200	20
215	30
227	70
313	40
