Mass Spectrum: Succinic acid, ethyl 4-methylpent-2-yl ester
Formula: C12 H22 O4
Molecular weight: 230
Origin: L.N.Kulikova, V.G. Zaikin, RPFU, Moscow, Russia
m/z	RELATIVE INTENSITY
26	40
27	460
28	320
29	811
30	30
31	40
39	190
40	40
41	861
42	280
43	1982
44	110
45	260
47	10
53	40
54	10
55	691
56	420
57	420
58	40
59	50
67	40
68	10
69	1712
70	90
71	10
72	10
73	510
74	220
75	60
83	90
84	1311
85	3003
86	190
87	20
99	10
100	210
101	7146
102	981
103	130
118	10
128	100
129	9999
130	661
131	80
144	20
146	60
147	641
148	40
160	40
187	10
