Mass Spectrum: Succinic acid, dodecyl 4-methylpent-2-yl ester
Formula: C22 H42 O4
Molecular weight: 370
Origin: L.N.Kulikova, V.G. Zaikin, RPFU, Moscow, Russia
m/z	RELATIVE INTENSITY
26	40
27	260
29	540
30	10
31	10
39	240
40	50
41	1581
42	520
43	3954
44	90
45	80
53	90
54	170
55	1702
56	1151
57	3453
58	160
59	30
65	10
66	10
67	270
68	300
69	2522
70	841
71	2042
72	100
73	200
74	350
75	290
81	120
82	420
83	1191
84	2562
85	7297
86	500
87	10
95	60
96	160
97	831
98	320
99	811
100	380
101	9459
102	440
103	70
109	20
110	80
111	450
112	190
113	651
114	40
117	10
118	120
119	9999
120	450
121	80
124	30
125	170
126	90
127	310
128	30
129	10
138	20
139	50
140	230
141	40
145	10
146	40
157	40
159	20
166	20
168	390
169	1842
170	230
171	10
173	10
175	90
183	30
185	80
203	230
204	10
212	10
213	40
242	60
243	50
268	10
269	1061
270	180
271	10
286	10
287	540
288	80
327	20
355	60
