Mass Spectrum: Malonic acid, ethyl 3-heptyl ester
Formula: C12 H22 O4
Molecular weight: 230
Origin: L.N.Kulikova, V.G. Zaikin, RPFU, Moscow, Russia
m/z	RELATIVE INTENSITY
26	30
27	280
29	1461
30	30
31	40
39	100
41	591
42	300
43	1331
44	10
45	80
47	20
53	30
54	50
55	420
56	671
57	1191
58	50
60	80
61	30
67	20
68	30
69	380
70	330
71	30
72	20
73	80
83	60
86	20
87	420
88	140
97	30
98	490
99	180
105	40
114	50
115	9999
116	540
117	70
125	90
130	160
131	20
132	30
133	1041
134	50
139	20
145	40
160	20
167	40
173	140
185	80
201	140
