Mass Spectrum: Malonic acid, isobutyl undecyl ester
Formula: C18 H34 O4
Molecular weight: 314
Origin: L.N.Kulikova, V.G. Zaikin, RPFU, Moscow, Russia
m/z	RELATIVE INTENSITY
27	140
29	440
39	160
40	40
41	1201
42	430
43	1401
53	50
54	180
55	1451
56	1501
57	5675
58	250
60	90
61	40
67	220
68	310
69	1231
70	841
71	1181
72	80
73	60
81	120
82	340
83	1001
84	540
85	851
86	50
87	941
88	20
89	30
90	20
91	110
93	30
95	60
96	110
97	861
98	290
99	250
100	30
102	20
104	60
105	9999
106	350
107	90
109	20
110	40
111	330
112	140
113	120
114	20
118	180
119	70
124	20
125	120
126	230
127	50
130	40
131	40
132	60
141	30
143	160
145	60
153	50
154	190
155	110
159	20
160	20
161	1331
162	100
201	20
241	160
242	20
259	40
299	30
