Mass Spectrum: Succinic acid, di(2,4-dimethylpent-3-yl) ester
Formula: C18 H34 O4
Molecular weight: 314
Origin: L.N.Kulikova, V.G. Zaikin, RPFU, Moscow, Russia
m/z	RELATIVE INTENSITY
26	20
27	190
29	180
31	10
39	130
40	20
41	601
42	80
43	1261
45	40
53	30
54	10
55	420
56	761
57	5935
58	260
59	10
67	30
69	90
70	50
71	250
72	80
73	230
74	10
81	10
82	10
83	581
84	40
85	20
97	40
98	270
99	9999
100	751
101	520
102	20
114	90
115	701
116	50
118	10
119	160
127	20
156	10
171	20
172	20
173	40
197	60
199	370
200	40
201	10
216	30
217	10
