Mass Spectrum: Succinic acid, 3-heptyl octyl ester
Formula: C19 H36 O4
Molecular weight: 328
Origin: L.N.Kulikova, V.G. Zaikin, RPFU, Moscow, Russia
m/z	RELATIVE INTENSITY
26	20
27	160
28	150
29	390
39	110
40	20
41	871
42	310
43	1031
44	80
45	60
53	40
54	80
55	741
56	891
57	3233
58	160
59	20
67	80
68	110
69	681
70	591
71	2112
72	110
73	140
74	280
75	170
81	30
82	90
83	330
84	240
85	50
97	70
98	631
99	340
100	60
101	9999
102	450
103	70
111	50
112	280
113	1321
114	360
115	941
116	70
118	30
119	3313
120	150
129	10
186	80
199	60
213	1591
214	200
231	410
232	50
