Mass Spectrum: Malonic acid, 2-heptyl hexyl ester
Formula: C16 H30 O4
Molecular weight: 286
Origin: L.N.Kulikova, V.G. Zaikin, RPFU, Moscow, Russia
m/z	RELATIVE INTENSITY
26	50
27	400
29	400
31	30
39	290
40	50
41	1651
42	881
43	3323
45	460
53	80
54	180
55	1651
56	2602
57	3713
58	100
59	40
60	130
61	380
67	160
68	120
69	1141
70	741
71	130
72	20
81	60
82	160
83	470
84	1061
85	2592
86	170
87	2012
88	60
89	20
96	20
97	60
98	1551
99	470
100	60
101	110
102	110
103	180
104	40
105	9999
106	340
107	80
111	480
112	30
113	40
114	120
115	941
116	80
125	250
127	40
129	50
131	50
132	20
139	40
143	20
144	20
145	70
153	60
159	20
161	30
167	60
171	5895
172	581
173	60
185	180
186	120
189	621
190	50
215	80
243	30
