Mass Spectrum: Malonic acid, 2-butyl isobutyl ester
Formula: C11 H20 O4
Molecular weight: 216
Origin: L.N.Kulikova, V.G. Zaikin, RPFU, Moscow, Russia
m/z	RELATIVE INTENSITY
26	20
27	270
29	1121
30	20
39	270
41	1712
42	1031
43	791
45	581
53	30
54	40
55	490
56	2282
57	8838
58	400
59	460
60	671
61	130
69	210
70	20
71	30
72	80
73	2652
74	110
83	1922
84	90
87	4254
88	130
89	50
99	10
101	70
105	2192
106	110
107	20
112	20
114	20
116	180
117	450
118	450
119	40
125	2662
126	260
127	150
130	180
131	360
132	130
133	40
143	9999
144	991
145	320
146	20
159	30
160	130
161	360
162	30
187	190
201	50
