Mass Spectrum: Malonic acid, di(2-methylpent-3-yl) ester
Formula: C15 H28 O4
Molecular weight: 272
Origin: L.N.Kulikova, V.G. Zaikin, RPFU, Moscow, Russia
m/z	RELATIVE INTENSITY
27	190
29	220
39	120
40	20
41	550
42	350
43	1972
45	40
53	30
55	160
56	110
57	420
67	20
69	530
70	30
71	110
72	30
83	40
84	651
85	9999
86	611
87	330
100	50
101	540
102	30
105	180
111	20
112	10
113	40
117	20
125	30
130	200
131	80
145	340
146	20
159	200
160	20
171	120
188	60
189	20
