Mass Spectrum: Malonic acid, decyl 2-decyl ester
Formula: C23 H44 O4
Molecular weight: 384
Origin: L.N.Kulikova, V.G. Zaikin, RPFU, Moscow, Russia
m/z	RELATIVE INTENSITY
27	70
29	220
39	80
41	711
42	350
43	1431
53	50
54	150
55	1341
56	1001
57	2162
58	100
60	30
61	80
67	200
68	290
69	1091
70	1031
71	1601
72	90
81	120
82	440
83	1151
84	721
85	1682
86	120
87	631
88	20
89	20
95	70
96	200
97	971
98	480
99	340
100	30
102	20
103	240
104	50
105	9999
106	350
107	80
109	30
110	90
111	540
112	651
113	70
115	20
138	50
139	190
140	1261
141	360
142	30
156	140
157	360
158	40
159	20
201	20
227	1942
228	290
229	30
245	941
246	130
271	30
285	20
