Mass Spectrum: Malonic acid, isobutyl octadecyl ester
Formula: C25 H48 O4
Molecular weight: 412
Origin: L.N.Kulikova, V.G. Zaikin, RPFU, Moscow, Russia
m/z	RELATIVE INTENSITY
26	20
27	80
28	110
29	270
39	110
40	30
41	821
42	230
43	1151
53	40
54	190
55	1291
56	911
57	4344
58	200
60	50
61	30
66	20
67	290
68	350
69	1261
70	601
71	1041
72	70
73	40
80	20
81	220
82	540
83	1441
84	410
85	651
86	40
87	621
89	40
91	20
95	160
96	240
97	1261
98	300
99	180
100	20
102	20
104	50
105	9999
106	370
107	90
109	70
110	110
111	691
112	210
113	130
115	20
118	100
119	70
123	30
124	60
125	340
126	130
127	80
130	30
131	30
132	40
136	10
138	40
139	130
140	80
141	50
143	100
145	50
152	20
153	50
154	50
155	30
160	20
161	2732
162	210
163	20
167	30
168	40
169	30
181	30
182	30
183	20
196	20
224	80
251	30
252	70
321	180
322	30
339	40
397	40
