Mass Spectrum: Succinic acid, 4-heptyl undecyl ester
Formula: C22 H42 O4
Molecular weight: 370
Origin: L.N.Kulikova, V.G. Zaikin, RPFU, Moscow, Russia
m/z	RELATIVE INTENSITY
26	40
27	290
29	571
31	20
39	200
40	40
41	1351
42	460
43	2042
45	60
53	70
54	160
55	1651
56	1511
57	4744
58	210
67	190
68	240
69	1341
70	1001
71	2052
72	130
73	190
74	290
75	190
81	90
82	270
83	761
84	390
85	1942
86	120
95	40
96	110
97	601
98	1131
99	1471
100	190
101	9999
102	470
103	70
109	10
110	30
111	230
112	100
113	430
114	360
115	1361
116	100
118	60
119	6436
120	300
121	40
124	10
125	100
126	190
127	30
128	10
145	10
146	10
152	10
154	290
155	1982
156	220
159	10
199	120
217	20
228	30
229	10
255	1621
256	250
257	20
273	460
274	60
