Mass Spectrum: Malonic acid, heptyl 2-methylpent-3-yl ester
Formula: C16 H30 O4
Molecular weight: 286
Origin: L.N.Kulikova, V.G. Zaikin, RPFU, Moscow, Russia
m/z	RELATIVE INTENSITY
26	80
27	641
28	410
29	1041
30	30
31	90
39	400
40	110
41	2422
42	1191
43	4284
44	150
45	120
52	10
53	110
54	150
55	1371
56	1471
57	9999
58	370
59	250
60	110
61	370
67	120
68	260
69	2332
70	1111
71	410
72	60
81	80
83	40
84	2963
85	5055
86	370
87	2692
88	80
89	20
96	30
97	220
98	1121
99	661
100	260
101	2062
102	110
104	30
105	5325
106	170
107	60
112	30
113	80
114	50
115	50
117	60
125	520
126	30
127	30
129	20
130	250
131	230
132	20
139	120
141	10
143	40
145	30
159	30
167	60
185	8418
186	911
187	80
203	170
228	70
229	50
243	110
257	60
