Mass Spectrum: Succinic acid, 3-heptyl tridecyl ester
Formula: C24 H46 O4
Molecular weight: 398
Origin: L.N.Kulikova, V.G. Zaikin, RPFU, Moscow, Russia
m/z	RELATIVE INTENSITY
26	30
27	220
29	550
39	180
40	40
41	1341
42	400
43	2002
44	80
45	60
53	80
54	190
55	1812
56	1431
57	4604
58	220
59	50
67	250
68	300
69	1591
70	1021
71	2152
72	120
73	170
74	280
75	180
81	130
82	390
83	1111
84	430
85	1702
86	100
95	60
96	150
97	861
98	1181
99	1251
100	170
101	9999
102	450
103	70
109	20
110	70
111	400
112	170
113	671
114	350
115	1101
116	80
118	110
119	8247
120	370
121	70
124	30
125	190
126	90
127	520
128	30
139	50
140	40
141	230
146	20
153	20
154	150
182	260
183	1902
184	260
199	110
217	40
227	20
283	961
284	170
301	400
302	60
