Mass Spectrum: Malonic acid, butyl 3-hexyl ester
Formula: C13 H24 O4
Molecular weight: 244
Origin: L.N.Kulikova, V.G. Zaikin, RPFU, Moscow, Russia
m/z	RELATIVE INTENSITY
26	40
27	450
28	320
29	801
30	30
31	150
39	270
40	60
41	1461
42	771
43	1672
44	100
45	50
51	20
53	70
54	80
55	1111
56	1742
57	4484
58	150
59	210
60	250
61	120
67	40
68	20
69	530
70	60
71	310
72	90
73	280
82	10
83	540
84	1291
85	561
86	60
87	3924
88	120
99	30
100	140
101	1481
102	90
104	20
105	4414
106	140
107	30
111	320
112	20
113	20
116	80
117	130
125	250
129	20
130	20
131	50
141	10
143	9999
144	751
145	100
153	130
160	20
161	550
162	20
171	400
172	30
201	90
215	110
