Mass Spectrum: Succinic acid, 3-hexyl tridecyl ester
Formula: C23 H44 O4
Molecular weight: 384
Origin: L.N.Kulikova, V.G. Zaikin, RPFU, Moscow, Russia
m/z	RELATIVE INTENSITY
26	20
27	180
29	380
39	150
40	30
41	971
42	420
43	2392
44	40
45	40
53	60
54	150
55	1581
56	1001
57	2432
58	110
59	40
67	210
68	240
69	1291
70	641
71	1822
72	100
73	160
74	280
75	180
81	110
82	350
83	981
84	1171
85	2312
86	150
95	60
96	140
97	751
98	260
99	671
100	210
101	9999
102	460
103	70
110	70
111	380
112	170
113	581
114	40
118	100
119	7697
120	350
121	60
124	30
125	180
126	90
127	460
128	30
139	40
140	40
141	190
146	20
154	150
182	260
183	1712
184	230
185	100
203	60
227	30
283	891
284	150
301	360
302	50
