Mass Spectrum: Succinic acid, 2,4-dimethylpent-3-yl undecyl ester
Formula: C22 H42 O4
Molecular weight: 370
Origin: L.N.Kulikova, V.G. Zaikin, RPFU, Moscow, Russia
m/z	RELATIVE INTENSITY
27	50
29	120
31	10
37	10
39	200
41	1061
42	300
43	2172
45	10
50	10
53	50
54	100
55	1531
56	1181
57	7497
58	250
67	230
68	180
69	1091
70	761
71	3033
72	140
73	260
74	160
75	150
76	10
77	10
78	20
79	20
81	90
82	290
83	2252
84	450
85	2903
86	100
91	10
95	40
96	150
97	671
98	1141
99	3914
100	320
101	9999
102	390
103	30
110	30
111	220
112	60
113	581
114	410
115	2152
116	90
118	30
119	6246
120	200
121	20
125	70
126	140
127	20
128	10
129	10
143	10
154	300
155	3123
156	250
199	10
228	20
255	2712
256	360
273	80
