Mass Spectrum: Succinic acid, di(3,3-dimethylbut-2-yl) ester
Formula: C16 H30 O4
Molecular weight: 286
Origin: L.N.Kulikova, V.G. Zaikin, RPFU, Moscow, Russia
m/z	RELATIVE INTENSITY
27	140
29	280
39	140
40	20
41	751
42	90
43	1571
44	40
45	70
53	40
55	290
56	460
57	851
58	30
67	30
69	520
70	80
71	20
73	30
83	50
84	400
85	9999
86	621
87	500
88	20
100	40
101	721
102	50
118	120
119	290
128	50
129	30
146	400
147	90
158	40
174	90
185	370
186	30
187	230
188	20
202	30
203	20
271	20
