Mass Spectrum: Malonic acid, 2-heptyl propyl ester
Formula: C13 H24 O4
Molecular weight: 244
Origin: L.N.Kulikova, V.G. Zaikin, RPFU, Moscow, Russia
m/z	RELATIVE INTENSITY
26	20
27	300
28	100
29	260
30	30
31	40
39	190
40	50
41	1211
42	621
43	2582
53	40
54	110
55	811
56	1601
57	2903
58	110
59	140
60	360
61	520
67	40
68	70
69	821
70	721
71	150
72	20
81	40
83	80
84	80
87	2242
88	60
97	90
98	1261
99	741
100	60
102	290
103	20
104	30
105	3954
106	140
107	30
111	50
114	120
115	691
116	70
117	40
118	70
125	260
126	20
127	20
129	9999
130	661
131	80
139	80
143	20
144	470
145	50
146	40
147	1441
148	90
157	30
158	20
160	50
167	140
173	190
185	490
186	50
