Mass Spectrum: Malonic acid, hexadecyl 2-hexyl ester
Formula: C25 H48 O4
Molecular weight: 412
Origin: L.N.Kulikova, V.G. Zaikin, RPFU, Moscow, Russia
m/z	RELATIVE INTENSITY
26	50
27	260
28	150
29	380
39	240
40	60
41	1261
42	631
43	3163
44	190
45	150
53	80
54	260
55	2122
56	1191
57	2512
58	130
60	40
61	130
66	20
67	410
68	470
69	1752
70	821
71	1361
72	60
73	50
77	10
78	20
79	50
80	10
81	280
82	911
83	1792
84	1451
85	1631
86	100
87	701
89	50
91	30
95	190
96	280
97	1561
98	440
99	260
100	60
101	270
102	20
103	110
104	40
105	9999
106	320
107	80
109	80
110	140
111	891
112	270
113	140
115	30
123	30
124	70
125	480
126	180
127	90
132	20
138	40
139	180
140	120
141	120
145	30
147	20
152	20
153	90
154	70
155	20
167	40
168	30
171	20
189	100
196	250
197	20
223	110
224	380
225	80
293	280
294	20
311	561
312	80
329	40
