Mass Spectrum: Succinic acid, ethyl 2-methylpent-3-yl ester
Formula: C12 H22 O4
Molecular weight: 230
Origin: L.N.Kulikova, V.G. Zaikin, RPFU, Moscow, Russia
m/z	RELATIVE INTENSITY
26	40
27	380
28	290
29	721
30	20
31	70
39	100
40	10
41	510
42	80
43	1391
44	40
45	160
53	20
55	540
56	390
57	260
58	40
59	80
69	811
70	40
71	20
73	410
74	100
75	20
83	20
84	721
85	2412
86	140
100	310
101	6456
102	571
103	50
128	70
129	9999
130	661
131	70
146	30
147	190
