Mass Spectrum: Malonic acid, heptyl 2-heptyl ester
Formula: C17 H32 O4
Molecular weight: 300
Origin: L.N.Kulikova, V.G. Zaikin, RPFU, Moscow, Russia
m/z	RELATIVE INTENSITY
26	60
27	350
29	781
31	10
39	270
40	60
41	1591
42	741
43	1712
53	80
54	210
55	1812
56	2242
57	8137
58	280
59	30
60	100
61	350
67	130
68	310
69	1291
70	1712
71	290
72	30
81	110
82	30
83	300
84	30
85	30
86	20
87	1451
88	40
96	90
97	300
98	2232
99	651
100	60
101	60
102	60
103	280
104	40
105	9999
106	310
107	80
113	30
114	110
115	661
116	50
125	250
126	20
139	80
141	30
143	20
159	50
161	40
167	40
185	4364
186	470
187	40
203	430
204	40
229	50
243	20
