Mass Spectrum: Succinic acid, 3-methylpentyl propyl ester
Formula: C13 H24 O4
Molecular weight: 244
Origin: L.N.Kulikova, V.G. Zaikin, RPFU, Moscow, Russia
m/z	RELATIVE INTENSITY
26	40
27	270
28	170
29	430
30	20
31	40
39	160
40	30
41	871
42	270
43	2202
44	120
45	100
53	50
54	70
55	1411
56	1021
57	641
58	30
59	30
61	30
67	50
68	30
69	1872
70	120
71	30
73	320
74	270
75	190
82	20
83	120
84	2152
85	4394
86	310
99	80
100	210
101	9999
102	470
103	80
114	20
116	210
119	390
127	60
128	130
129	20
142	70
143	2682
144	210
145	120
155	50
158	20
161	901
162	60
185	310
186	20
187	220
188	50
203	70
215	70
