Mass Spectrum: Succinic acid, 3-hexyl propyl ester
Formula: C13 H24 O4
Molecular weight: 244
Origin: L.N.Kulikova, V.G. Zaikin, RPFU, Moscow, Russia
m/z	RELATIVE INTENSITY
26	20
27	290
28	110
29	290
30	10
31	50
39	110
40	20
41	510
42	250
43	1421
44	40
45	80
53	10
54	20
55	390
56	490
57	220
58	30
59	70
69	180
70	20
71	50
73	170
74	240
75	170
83	20
84	360
85	661
86	40
91	40
100	200
101	9999
102	430
103	80
116	170
119	140
143	3683
144	270
145	30
161	320
162	10
185	110
