Mass Spectrum: Succinic acid, ethyl 3-heptyl ester
Formula: C13 H24 O4
Molecular weight: 244
Origin: L.N.Kulikova, V.G. Zaikin, RPFU, Moscow, Russia
m/z	RELATIVE INTENSITY
26	30
27	260
28	250
29	631
30	20
31	40
39	90
41	500
42	110
43	320
44	70
45	90
53	30
54	40
55	591
56	540
57	1131
58	70
59	50
67	20
68	20
69	340
70	250
71	20
73	320
74	120
75	20
83	40
85	30
97	20
98	390
99	310
100	100
101	6416
102	520
103	50
114	210
115	841
116	60
128	60
129	9999
130	661
131	80
144	20
146	30
147	500
148	20
199	30
