Mass Spectrum: Succinic acid, 2-decyl undecyl ester
Formula: C25 H48 O4
Molecular weight: 412
Origin: L.N.Kulikova, V.G. Zaikin, RPFU, Moscow, Russia
m/z	RELATIVE INTENSITY
26	40
27	210
29	480
39	190
40	30
41	1261
42	530
43	2362
45	60
53	80
54	190
55	1992
56	1461
57	3873
58	190
67	280
68	320
69	1511
70	1221
71	2823
72	140
73	150
74	330
75	250
81	150
82	460
83	1191
84	781
85	2813
86	160
95	70
96	230
97	1221
98	530
99	1091
100	190
101	9999
102	440
103	70
109	20
110	80
111	641
112	330
113	440
114	20
117	30
118	70
119	8618
120	380
121	60
125	140
126	200
128	20
129	20
140	641
141	771
142	60
146	20
152	20
154	340
155	2152
156	430
157	681
158	60
171	10
199	20
228	40
241	20
255	1531
256	210
259	40
273	1221
274	180
