Mass Spectrum: Succinic acid, 4-heptyl hexadecyl ester
Formula: C27 H52 O4
Molecular weight: 440
Origin: L.N.Kulikova, V.G. Zaikin, RPFU, Moscow, Russia
m/z	RELATIVE INTENSITY
26	40
27	240
29	490
31	10
39	200
40	40
41	1391
42	420
43	2322
44	20
45	40
53	80
54	230
55	2182
56	1551
57	4724
58	210
65	10
66	10
67	330
68	390
69	1902
70	1101
71	2382
72	130
73	170
74	280
75	190
80	10
81	210
82	550
83	1521
84	490
85	1802
86	110
95	120
96	190
97	1251
98	1311
99	1291
100	210
101	9599
102	430
103	70
109	50
110	110
111	631
112	210
113	581
114	370
115	1301
116	100
117	10
118	160
119	9999
120	470
121	80
123	20
124	70
125	280
126	140
127	480
128	30
129	10
138	40
139	100
140	100
141	450
142	90
145	10
146	30
152	20
153	50
154	60
155	400
156	40
166	10
167	20
168	40
169	280
170	50
174	80
181	10
182	10
183	120
184	10
196	120
199	110
200	10
212	10
217	60
222	20
224	220
225	2062
226	350
227	10
240	30
241	10
269	50
272	10
324	60
325	791
326	170
342	30
343	330
344	60
