Mass Spectrum: Adipic acid, di(4-heptyl) ester
Formula: C20 H38 O4
Molecular weight: 342
Origin: L.N.Kulikova, V.G. Zaikin, RPFU, Moscow, Russia
m/z	RELATIVE INTENSITY
27	100
29	160
39	60
41	410
42	100
43	460
44	30
45	20
53	20
54	20
55	440
56	330
57	901
58	40
59	70
67	20
69	190
70	120
71	60
73	90
83	210
84	60
85	30
87	70
97	20
98	270
99	30
100	170
101	510
102	230
111	741
112	130
114	80
115	430
116	30
128	430
129	9999
130	631
131	70
146	430
147	611
148	40
172	20
200	20
227	540
228	80
244	30
245	20
