Mass Spectrum: Succinic acid, butyl 2,3-dimethylphenyl ester
Formula: C16 H22 O4
Molecular weight: 278
Origin: L.N.Kulikova, V.G. Zaikin, RPFU, Moscow, Russia
m/z	RELATIVE INTENSITY
26	30
27	160
29	380
39	120
41	330
50	20
51	80
52	30
53	60
55	581
57	1081
58	40
63	20
65	90
67	20
73	120
75	20
77	490
78	120
79	210
91	320
92	50
93	40
94	30
100	20
101	9999
102	470
103	320
104	70
105	300
106	20
107	921
108	80
120	20
121	430
122	3763
123	641
124	30
157	3173
158	250
177	150
178	30
205	2182
206	290
207	20
278	20
