Mass Spectrum: Succinic acid, 2-ethylbutyl propyl ester
Formula: C13 H24 O4
Molecular weight: 244
Origin: L.N.Kulikova, V.G. Zaikin, RPFU, Moscow, Russia
m/z	RELATIVE INTENSITY
26	20
27	290
29	330
30	20
31	40
39	130
40	10
41	641
42	260
43	1942
45	70
53	30
54	30
55	581
56	611
57	270
58	20
59	40
67	20
69	741
70	50
71	60
73	230
74	240
75	180
83	20
84	1541
85	2022
86	130
100	150
101	9999
102	460
103	80
114	290
115	60
116	330
117	30
119	410
142	30
143	2552
144	200
145	40
155	30
160	30
161	480
162	30
174	40
185	70
215	30
