Mass Spectrum: Succinic acid, 2-heptyl pentadecyl ester
Formula: C26 H50 O4
Molecular weight: 426
Origin: L.N.Kulikova, V.G. Zaikin, RPFU, Moscow, Russia
m/z	RELATIVE INTENSITY
26	40
27	220
29	480
39	190
40	40
41	1251
42	390
43	2022
44	30
45	50
53	70
54	210
55	1902
56	1331
57	4094
58	190
67	280
68	340
69	1581
70	981
71	1651
72	90
73	140
74	300
75	200
81	190
82	470
83	1341
84	430
85	1311
86	80
95	100
96	210
97	1101
98	1221
99	1051
100	200
101	9168
102	420
103	70
109	40
110	100
111	510
112	190
113	410
114	130
115	490
116	40
117	30
118	150
119	9999
120	470
121	80
124	50
125	240
126	130
127	370
128	20
138	30
139	80
140	80
141	350
142	30
146	30
152	20
153	40
154	60
155	260
156	20
167	10
168	20
169	110
182	150
199	130
210	270
211	1882
212	300
217	260
218	20
255	50
310	30
311	911
312	170
328	30
329	691
330	130
