Mass Spectrum: Adipic acid, 2,4-dimethylpent-3-yl isobutyl ester
Formula: C17 H32 O4
Molecular weight: 300
Origin: L.N.Kulikova, V.G. Zaikin, RPFU, Moscow, Russia
m/z	RELATIVE INTENSITY
26	20
27	170
29	320
31	20
39	130
40	20
41	691
42	170
43	871
44	30
45	40
53	30
54	20
55	1421
56	510
57	2272
58	90
59	120
60	30
61	30
67	30
68	40
69	80
70	50
71	110
72	20
73	130
83	811
84	290
85	70
87	170
98	210
99	270
100	260
101	871
102	340
103	80
111	2042
112	330
113	30
114	50
115	330
116	50
127	10
128	230
129	9999
130	721
131	90
142	20
143	270
146	30
147	180
156	170
157	330
158	290
171	120
183	10
184	50
185	4494
186	500
187	60
202	230
203	40
227	220
228	40
