Mass Spectrum: Malonic acid, 2-hexyl octyl ester
Formula: C17 H32 O4
Molecular weight: 300
Origin: L.N.Kulikova, V.G. Zaikin, RPFU, Moscow, Russia
m/z	RELATIVE INTENSITY
26	50
27	360
28	240
29	601
31	30
36	20
39	250
40	60
41	1431
42	971
43	2863
44	100
45	140
53	70
54	150
55	1692
56	1451
57	2873
58	140
59	30
60	80
61	250
67	190
68	270
69	1251
70	871
71	2462
72	120
79	20
81	90
82	290
83	781
84	2072
85	1221
86	70
87	1341
88	30
95	20
97	80
100	60
101	671
102	60
103	200
104	30
105	9999
106	330
107	70
110	40
111	340
112	801
113	300
114	20
115	30
125	20
129	20
131	20
139	100
145	30
153	40
161	20
171	90
189	30
199	3503
200	420
217	230
243	20
