Mass Spectrum: Succinic acid, decyl 3-methylbutyl ester
Formula: C19 H36 O4
Molecular weight: 328
Origin: L.N.Kulikova, V.G. Zaikin, RPFU, Moscow, Russia
m/z	RELATIVE INTENSITY
26	40
27	270
28	240
29	601
30	20
31	10
39	220
40	50
41	1341
42	571
43	3353
44	100
45	80
53	80
54	170
55	2032
56	1011
57	2182
58	90
67	180
68	240
69	1011
70	2252
71	9999
72	571
73	190
74	180
75	80
81	50
82	180
83	621
84	320
85	1251
86	80
87	20
89	60
95	20
96	60
97	410
98	180
99	330
100	90
101	7477
102	350
103	70
110	20
111	210
112	210
113	20
114	30
115	20
118	10
119	2772
120	110
121	10
127	10
128	150
129	40
138	10
140	180
141	691
142	70
144	60
145	110
146	20
147	10
155	90
157	60
170	40
171	1852
172	180
173	20
189	2612
190	260
191	20
214	40
215	10
216	30
229	40
240	10
241	250
242	30
255	10
257	10
259	330
260	40
285	170
286	20
313	40
