Mass Spectrum: Malonic acid, di(2-heptyl) ester
Formula: C17 H32 O4
Molecular weight: 300
Origin: L.N.Kulikova, V.G. Zaikin, RPFU, Moscow, Russia
m/z	RELATIVE INTENSITY
26	40
27	400
29	751
39	350
40	50
41	1822
42	731
43	1742
53	110
54	160
55	1682
56	2332
57	8748
58	330
59	50
60	110
61	30
67	90
68	110
69	1171
70	941
71	210
72	20
81	90
82	20
83	310
86	20
87	2833
88	90
89	90
96	50
97	380
98	2943
99	2462
100	170
101	130
102	330
103	120
105	9999
106	320
107	100
113	40
114	80
115	2532
116	210
125	1621
126	140
127	20
129	50
131	3833
132	220
133	40
139	340
140	50
141	50
143	190
144	20
158	80
159	130
167	530
168	50
185	2532
186	270
187	240
188	20
200	100
203	170
229	130
