Mass Spectrum: Succinic acid, decyl 3-methylpentyl ester
Formula: C20 H38 O4
Molecular weight: 342
Origin: L.N.Kulikova, V.G. Zaikin, RPFU, Moscow, Russia
m/z	RELATIVE INTENSITY
26	70
27	330
29	761
31	20
39	220
40	50
41	1441
42	500
43	4004
44	200
45	30
53	80
54	190
55	2102
56	1471
57	2592
58	100
67	230
68	240
69	1932
70	771
71	1291
72	60
73	150
74	140
75	100
81	90
82	250
83	771
84	2162
85	9999
86	661
95	30
96	70
97	370
98	160
99	300
100	100
101	6426
102	280
103	40
110	30
111	170
112	190
119	3103
120	130
127	50
128	150
129	70
140	130
141	591
142	50
145	70
146	20
147	20
155	50
185	550
186	50
203	1551
204	160
241	160
243	30
259	470
260	50
285	130
286	20
313	90
