Mass Spectrum: Succinic acid, di(3-ethylphenyl) ester
Formula: C20 H22 O4
Molecular weight: 326
Origin: L.N.Kulikova, V.G. Zaikin, RPFU, Moscow, Russia
m/z	RELATIVE INTENSITY
26	10
27	170
29	20
39	160
41	50
50	30
51	120
52	60
53	80
55	3263
56	120
63	80
64	40
65	160
66	30
67	30
77	811
78	280
79	350
80	20
82	120
89	50
90	30
91	370
92	50
93	70
94	80
95	110
102	20
103	270
104	50
105	470
106	40
107	1141
108	80
117	20
119	30
120	30
121	240
122	2042
123	1221
124	100
135	50
149	40
175	40
176	40
177	791
178	90
203	20
205	9999
206	1241
207	110
326	20
