Mass Spectrum: Malonic acid, 2-butyl dodecyl ester
Formula: C19 H36 O4
Molecular weight: 328
Origin: L.N.Kulikova, V.G. Zaikin, RPFU, Moscow, Russia
m/z	RELATIVE INTENSITY
26	50
27	260
29	741
31	20
39	230
40	50
41	1551
42	500
43	1682
44	110
45	70
53	80
54	220
55	1752
56	1571
57	3333
58	140
59	20
60	90
61	120
66	20
67	300
68	420
69	1461
70	1011
71	1321
72	100
73	260
81	160
82	621
83	1421
84	681
85	921
86	60
87	1201
88	40
89	50
95	90
96	220
97	1141
98	410
99	240
100	20
102	20
104	50
105	9999
106	360
107	90
109	30
110	90
111	651
112	230
113	170
116	20
117	60
124	30
125	280
126	100
127	70
132	20
138	20
139	50
140	410
141	40
143	60
161	330
162	20
167	160
168	410
169	110
237	20
255	571
256	90
273	30
