Mass Spectrum: Succinic acid, 2-ethylbutyl nonadecyl ester
Formula: C29 H56 O4
Molecular weight: 468
Origin: L.N.Kulikova, V.G. Zaikin, RPFU, Moscow, Russia
m/z	RELATIVE INTENSITY
26	70
27	260
29	480
30	10
31	10
39	230
40	10
41	1301
42	450
43	4044
50	10
53	100
54	290
55	2152
56	1301
57	3073
58	110
59	10
65	10
66	20
67	430
68	410
69	2152
70	811
71	1832
72	90
73	130
74	180
75	90
77	20
80	30
81	300
82	591
83	1702
84	2602
85	6346
86	390
91	30
93	20
94	10
95	190
96	290
97	1381
98	310
99	470
100	150
101	9208
102	380
103	70
104	10
109	90
110	130
111	731
112	200
113	320
114	190
115	180
116	20
117	30
118	170
119	9999
120	440
121	70
123	30
124	60
125	310
126	110
127	250
128	30
129	40
132	40
133	110
137	10
138	50
139	110
140	80
141	210
146	30
149	10
152	20
153	40
154	60
155	170
158	10
166	10
167	20
168	20
169	140
181	10
182	20
183	120
184	10
185	170
197	80
198	10
203	1611
204	140
211	50
212	20
225	10
226	10
238	40
239	10
240	20
253	10
254	20
264	10
266	70
267	661
268	130
296	10
311	20
366	40
367	70
385	260
386	30
439	40
