Mass Spectrum: Malonic acid, 3-heptyl octyl ester
Formula: C18 H34 O4
Molecular weight: 314
Origin: L.N.Kulikova, V.G. Zaikin, RPFU, Moscow, Russia
m/z	RELATIVE INTENSITY
26	70
27	360
28	290
29	741
30	20
31	130
36	110
38	30
39	330
40	80
41	2072
42	931
43	2432
44	500
45	70
51	20
52	20
53	120
54	230
55	2052
56	2232
57	6886
58	370
59	370
60	90
61	270
65	10
66	10
67	230
68	390
69	2022
70	1551
71	3813
72	240
73	50
79	50
81	120
82	300
83	941
84	881
85	280
86	50
87	2372
88	80
89	30
95	30
96	30
97	240
98	1441
99	310
100	40
101	80
102	50
103	210
104	50
105	9999
106	340
107	80
110	50
111	330
112	951
113	440
114	220
115	1651
116	140
117	110
125	80
127	40
128	30
129	40
132	20
139	220
140	20
145	80
149	40
153	40
157	20
167	30
173	30
181	30
185	80
199	6976
200	831
201	80
217	360
218	40
243	20
257	40
285	40
