Mass Spectrum: Adipic acid, heptadecyl 4-heptyl ester
Formula: C30 H58 O4
Molecular weight: 482
Origin: L.N.Kulikova, V.G. Zaikin, RPFU, Moscow, Russia
m/z	RELATIVE INTENSITY
26	30
27	150
28	100
29	250
39	150
40	20
41	801
42	220
43	1121
44	60
53	50
54	150
55	1251
56	701
57	1862
58	60
59	60
60	20
61	40
67	230
68	230
69	941
70	450
71	641
72	20
73	230
79	40
81	160
82	290
83	821
84	320
85	430
86	20
87	250
95	110
96	180
97	550
98	621
99	130
100	440
101	831
102	310
103	210
109	50
110	70
111	1451
112	230
113	100
114	40
115	180
124	20
125	110
126	90
127	120
128	370
129	9999
130	651
131	90
138	20
139	50
140	30
141	20
144	60
145	20
146	50
147	2482
148	140
154	20
155	20
157	20
168	20
169	20
184	60
199	30
210	30
238	120
239	40
240	40
254	50
268	40
282	30
283	100
296	30
310	20
324	40
325	160
338	20
365	40
366	130
367	2502
368	591
369	50
384	60
385	60
