Mass Spectrum: Succinic acid, ethyl 2-heptyl ester
Formula: C13 H24 O4
Molecular weight: 244
Origin: L.N.Kulikova, V.G. Zaikin, RPFU, Moscow, Russia
m/z	RELATIVE INTENSITY
26	30
27	280
28	260
29	661
31	20
39	110
40	20
41	621
42	190
43	530
44	40
45	180
53	30
54	50
55	691
56	821
57	1521
58	80
59	20
67	20
68	30
69	380
70	360
71	50
73	400
74	220
75	50
83	70
97	30
98	601
99	410
100	120
101	7116
102	851
103	90
114	180
115	701
116	50
128	110
129	9999
130	671
131	80
144	50
146	50
147	781
148	40
199	30
