Mass Spectrum: Succinic acid, ethyl 3-ethylphenyl ester
Formula: C14 H18 O4
Molecular weight: 250
Origin: L.N.Kulikova, V.G. Zaikin, RPFU, Moscow, Russia
m/z	RELATIVE INTENSITY
26	70
27	340
28	260
29	651
31	20
39	170
41	50
43	30
44	40
45	160
50	30
51	140
52	70
53	80
55	1411
56	120
63	80
64	30
65	150
66	30
67	360
68	20
73	571
74	40
77	751
78	230
79	260
81	130
89	30
91	310
92	30
93	60
94	60
95	360
96	20
99	20
100	80
101	9999
102	470
103	440
104	30
105	250
106	20
107	2342
108	170
120	50
121	260
122	3763
123	601
124	30
128	70
129	9378
130	631
131	60
135	10
150	50
177	60
205	2772
206	360
207	30
250	90
