Mass Spectrum: Succinic acid, 2-decyl propyl ester
Formula: C17 H32 O4
Molecular weight: 300
Origin: L.N.Kulikova, V.G. Zaikin, RPFU, Moscow, Russia
m/z	RELATIVE INTENSITY
26	20
27	240
28	130
29	330
31	20
39	130
40	30
41	801
42	320
43	1441
53	30
54	60
55	721
56	571
57	861
58	80
59	40
61	30
67	70
68	60
69	390
70	410
71	601
72	30
73	200
74	340
75	300
81	30
82	70
83	250
84	220
85	621
86	40
96	60
97	310
98	180
99	90
100	140
101	9999
102	430
103	90
111	180
112	110
116	350
117	30
119	210
140	320
141	971
142	110
143	7156
144	571
156	180
157	571
158	110
160	60
161	1742
162	130
241	30
