Mass Spectrum: Succinic acid, 2,4-dimethylpent-3-yl heptyl ester
Formula: C18 H34 O4
Molecular weight: 314
Origin: L.N.Kulikova, V.G. Zaikin, RPFU, Moscow, Russia
m/z	RELATIVE INTENSITY
26	40
27	310
29	420
39	230
41	1091
42	350
43	1551
45	10
51	10
52	30
53	50
54	30
55	871
56	801
57	6696
58	210
67	70
68	50
69	250
70	320
71	230
72	50
73	230
74	170
75	90
78	20
81	30
83	1021
84	30
96	30
97	130
98	681
99	2783
100	210
101	9999
102	400
103	30
104	20
114	170
115	1241
116	30
119	1341
120	10
127	10
128	20
129	260
147	50
149	10
172	30
199	2482
200	190
217	20
