Mass Spectrum: Malonic acid, octadecyl 3-heptyl ester
Formula: C28 H54 O4
Molecular weight: 454
Origin: L.N.Kulikova, V.G. Zaikin, RPFU, Moscow, Russia
m/z	RELATIVE INTENSITY
26	60
27	280
28	210
29	530
30	20
31	40
36	30
39	280
40	50
41	1621
42	480
43	2292
44	180
45	40
51	20
52	20
53	120
54	310
55	2242
56	1591
57	4374
58	200
59	260
60	40
61	130
65	30
66	40
67	490
68	571
69	2302
70	1131
71	1611
72	100
73	40
77	30
79	60
80	30
81	340
82	1031
83	2152
84	631
85	1151
86	80
87	921
88	20
89	90
91	20
93	20
94	20
95	240
96	390
97	1942
98	1221
99	430
100	30
102	30
103	100
104	50
105	9999
106	330
107	90
109	120
110	170
111	1011
112	290
113	200
114	160
115	581
116	50
117	50
123	50
124	120
125	510
126	170
127	130
128	20
138	70
139	240
140	150
141	100
147	20
152	30
153	150
154	90
155	80
167	80
168	70
169	60
181	40
182	60
183	40
185	20
196	40
203	40
224	200
225	20
251	30
252	350
253	20
269	50
321	270
322	40
339	1231
340	260
357	50
