Mass Spectrum: Succinic acid, hexadecyl 4-methylpent-2-yl ester
Formula: C26 H50 O4
Molecular weight: 426
Origin: L.N.Kulikova, V.G. Zaikin, RPFU, Moscow, Russia
m/z	RELATIVE INTENSITY
26	40
27	230
29	450
39	220
40	40
41	1391
42	420
43	3703
44	40
45	50
53	80
54	190
55	1672
56	1031
57	3033
58	130
59	20
65	10
66	20
67	330
68	350
69	2322
70	741
71	1802
72	90
73	130
74	260
75	220
80	10
81	190
82	550
83	1481
84	2022
85	5945
86	380
87	10
95	120
96	220
97	1141
98	290
99	540
100	150
101	7106
102	320
103	50
109	50
110	110
111	581
112	210
113	410
114	20
116	10
117	10
118	170
119	9999
120	430
121	80
123	20
124	60
125	260
126	130
127	330
128	60
129	10
137	10
138	40
139	100
140	90
141	320
142	30
145	10
146	30
152	20
153	50
154	60
155	270
156	20
157	30
158	10
159	20
166	10
167	30
168	40
169	180
170	10
175	90
181	10
182	10
183	80
185	30
196	110
197	10
203	210
204	10
212	10
222	30
224	210
225	1291
226	210
227	10
239	10
240	20
241	20
254	10
268	20
269	40
299	10
324	30
325	370
326	70
342	20
343	260
344	40
411	40
