Mass Spectrum: Malonic acid, 2-decyl propyl ester
Formula: C16 H30 O4
Molecular weight: 286
Origin: L.N.Kulikova, V.G. Zaikin, RPFU, Moscow, Russia
m/z	RELATIVE INTENSITY
26	50
27	661
29	841
30	20
31	20
39	400
40	80
41	2292
42	1231
43	5935
53	110
54	210
55	2012
56	1722
57	2112
58	70
59	150
60	390
61	540
67	240
68	210
69	1261
70	1291
71	1241
72	70
81	120
82	250
83	721
84	721
85	971
86	70
87	2312
88	60
89	20
95	30
96	200
97	941
98	571
99	230
100	50
102	330
104	40
105	6476
106	220
107	50
110	50
111	581
112	250
113	30
117	20
118	60
125	20
127	20
129	9999
130	671
131	90
139	20
140	981
141	1451
142	150
144	601
145	80
146	110
147	4824
148	330
149	40
156	290
157	1131
158	120
160	40
167	50
173	230
201	20
209	30
227	160
228	20
