Mass Spectrum: Malonic acid, 2-decyl tetradecyl ester
Formula: C27 H52 O4
Molecular weight: 440
Origin: L.N.Kulikova, V.G. Zaikin, RPFU, Moscow, Russia
m/z	RELATIVE INTENSITY
26	30
27	70
28	80
29	210
39	120
40	30
41	751
42	320
43	1421
44	70
45	180
53	70
54	180
55	1561
56	1061
57	2232
58	130
60	20
61	80
66	20
67	330
68	410
69	1531
70	1041
71	1631
72	90
77	20
79	30
80	20
81	200
82	671
83	1571
84	751
85	1381
86	90
87	500
88	20
89	40
91	60
93	10
95	140
96	270
97	1491
98	601
99	340
100	20
102	30
103	180
104	50
105	9999
106	360
107	90
109	60
110	140
111	941
112	410
113	220
114	20
115	40
116	20
123	30
124	70
125	380
126	150
127	140
128	20
132	20
136	40
137	30
138	50
139	170
140	761
141	350
142	30
152	20
153	30
154	60
155	40
156	120
157	310
167	20
168	320
169	30
194	20
195	180
196	571
197	200
245	40
265	140
266	20
283	711
284	120
285	20
301	500
302	80
