Mass Spectrum: Succinic acid, heptadecyl 4-methylpent-2-yl ester
Formula: C27 H52 O4
Molecular weight: 440
Origin: L.N.Kulikova, V.G. Zaikin, RPFU, Moscow, Russia
m/z	RELATIVE INTENSITY
26	40
27	170
29	350
39	180
40	30
41	1141
42	360
43	3083
45	40
53	60
54	180
55	1461
56	911
57	2772
58	130
59	20
65	10
66	20
67	320
68	330
69	2082
70	651
71	1661
72	80
73	110
74	220
75	180
80	10
81	210
82	540
83	1441
84	1802
85	5355
86	350
87	10
93	10
95	130
96	220
97	1161
98	290
99	510
100	130
101	6866
102	320
103	50
109	50
110	110
111	621
112	200
113	400
114	20
116	10
117	20
118	180
119	9999
120	450
121	80
123	30
124	70
125	290
126	130
127	320
128	20
129	20
130	10
137	10
138	40
139	120
140	90
141	290
142	20
145	10
146	40
152	30
153	60
154	70
155	280
156	20
157	90
158	10
159	10
166	20
167	30
168	40
169	220
170	20
175	270
176	10
180	10
181	20
182	30
183	160
184	10
185	30
196	10
197	60
198	10
203	300
204	20
210	110
211	10
212	20
226	10
236	30
238	220
239	1391
240	260
241	10
253	40
254	20
255	10
268	10
283	40
313	10
338	30
339	430
340	80
356	30
357	360
358	70
397	10
425	60
426	10
