Mass Spectrum: Succinic acid, 2-methylpent-3-yl pentadecyl ester
Formula: C25 H48 O4
Molecular weight: 412
Origin: L.N.Kulikova, V.G. Zaikin, RPFU, Moscow, Russia
m/z	RELATIVE INTENSITY
26	30
27	150
29	320
39	170
40	30
41	1081
42	340
43	2953
44	60
45	30
53	70
54	150
55	1571
56	1001
57	2933
58	130
59	40
67	280
68	310
69	2032
70	721
71	2282
72	110
73	130
74	220
75	200
80	10
81	160
82	500
83	1311
84	2022
85	6766
86	430
95	100
96	190
97	1041
98	300
99	801
100	370
101	8247
102	380
103	50
109	30
110	90
111	571
112	200
113	671
114	40
118	150
119	9999
120	460
121	70
123	10
124	50
125	270
126	140
127	611
128	40
129	10
138	30
139	90
140	90
141	591
142	40
146	20
152	10
153	40
154	50
155	410
156	30
159	10
167	10
168	20
169	190
182	160
183	10
185	20
203	50
208	10
210	310
211	2512
212	400
213	10
226	10
227	10
240	10
255	50
310	10
311	1171
312	220
313	10
328	30
329	300
330	40
