Mass Spectrum: Malonic acid, dodecyl isobutyl ester
Formula: C19 H36 O4
Molecular weight: 328
Origin: L.N.Kulikova, V.G. Zaikin, RPFU, Moscow, Russia
m/z	RELATIVE INTENSITY
27	150
29	500
39	150
40	40
41	1241
42	420
43	1371
53	50
54	200
55	1461
56	1431
57	5645
58	240
60	80
61	30
67	250
68	320
69	1291
70	841
71	1111
72	80
73	40
81	140
82	380
83	1111
84	490
85	681
86	40
87	891
88	20
89	30
90	10
95	70
96	130
97	861
98	330
99	190
100	30
102	20
104	50
105	9999
106	350
107	80
109	30
110	60
111	480
112	160
113	140
114	20
118	150
119	50
125	150
126	70
127	70
130	30
131	30
132	50
135	20
137	20
139	30
140	170
141	30
143	140
145	50
159	20
160	20
161	1461
162	110
167	100
168	140
169	80
201	20
255	90
273	30
313	30
