Mass Spectrum: Succinic acid, 4-methylpent-2-yl octadecyl ester
Formula: C28 H54 O4
Molecular weight: 454
Origin: L.N.Kulikova, V.G. Zaikin, RPFU, Moscow, Russia
m/z	RELATIVE INTENSITY
26	50
27	210
29	410
39	210
40	40
41	1271
42	380
43	3533
45	40
53	70
54	200
55	1631
56	911
57	2883
58	120
59	20
65	10
66	20
67	330
68	360
69	2192
70	681
71	1661
72	80
73	100
74	240
75	190
80	10
81	220
82	581
83	1521
84	1862
85	5275
86	350
87	10
93	10
95	140
96	240
97	1201
98	290
99	500
100	140
101	6466
102	300
103	50
109	60
110	120
111	651
112	190
113	370
114	20
116	20
117	20
118	180
119	9999
120	430
121	80
123	30
124	70
125	300
126	120
127	290
128	50
129	20
137	10
138	50
139	120
140	90
141	250
142	20
146	30
152	30
153	60
154	60
155	210
156	10
157	20
159	10
166	20
167	30
168	50
169	210
170	10
175	70
180	10
181	20
182	30
183	170
184	10
185	30
194	10
195	10
196	20
197	110
198	10
203	280
204	20
211	50
212	20
224	80
225	10
226	10
240	10
250	30
252	180
253	1131
254	220
255	10
268	10
269	10
296	10
297	40
352	30
353	270
354	50
370	20
371	240
372	50
411	10
439	50
