Mass Spectrum: Malonic acid, ethyl 2-methylpent-3-yl ester
Formula: C11 H20 O4
Molecular weight: 216
Origin: L.N.Kulikova, V.G. Zaikin, RPFU, Moscow, Russia
m/z	RELATIVE INTENSITY
27	120
28	200
29	510
31	30
36	20
39	90
41	420
42	290
43	1852
44	60
45	110
53	30
55	190
56	180
57	290
58	50
59	180
60	80
61	40
67	20
69	801
70	110
71	210
72	30
73	130
83	20
84	891
85	1321
86	100
87	490
88	170
100	50
101	801
102	50
105	70
112	50
115	9999
116	591
117	80
129	30
133	330
145	20
158	160
159	80
172	20
173	270
174	20
187	90
