Mass Spectrum: Succinic acid, 4-methylpent-2-yl propyl ester
Formula: C13 H24 O4
Molecular weight: 244
Origin: L.N.Kulikova, V.G. Zaikin, RPFU, Moscow, Russia
m/z	RELATIVE INTENSITY
26	20
27	340
28	130
29	320
30	10
31	30
39	180
40	40
41	851
42	300
43	2222
44	50
45	130
53	20
55	460
56	370
57	370
58	40
59	70
61	10
67	30
68	10
69	1311
70	70
71	10
73	290
74	340
75	290
83	70
84	1171
85	3653
86	250
87	10
100	180
101	9999
102	470
103	90
114	10
116	390
117	80
119	300
120	10
129	60
141	10
142	30
143	4544
144	360
145	40
158	20
160	40
161	591
162	40
174	20
185	20
201	10
229	10
