Mass Spectrum: Succinic acid, 3-hexyl nonadecyl ester
Formula: C29 H56 O4
Molecular weight: 468
Origin: L.N.Kulikova, V.G. Zaikin, RPFU, Moscow, Russia
m/z	RELATIVE INTENSITY
26	60
27	270
29	500
39	230
41	1221
42	530
43	3023
53	90
54	250
55	2202
56	1201
57	2953
58	100
59	30
67	400
68	390
69	1832
70	691
71	1982
72	90
73	130
74	220
75	150
79	30
80	20
81	270
82	631
83	1631
84	1211
85	2212
86	100
95	170
96	190
97	1421
98	310
99	571
100	180
101	8788
102	370
103	50
109	60
110	120
111	711
112	180
113	420
118	140
119	9999
120	410
121	50
123	20
124	50
125	310
126	100
127	340
138	30
139	120
140	70
141	250
152	10
153	50
154	50
155	220
167	20
168	20
169	200
183	180
185	120
197	140
203	150
211	80
225	20
238	50
266	120
267	1291
268	240
367	290
368	50
385	170
