Mass Spectrum: Malonic acid, 2,4-dimethylpent-3-yl pentyl ester
Formula: C15 H28 O4
Molecular weight: 272
Origin: L.N.Kulikova, V.G. Zaikin, RPFU, Moscow, Russia
m/z	RELATIVE INTENSITY
26	30
27	380
28	210
29	520
31	20
39	250
40	40
41	1291
42	801
43	3773
44	70
45	60
53	60
54	30
55	801
56	400
57	2823
58	110
59	30
60	80
61	80
67	60
68	60
69	350
70	761
71	4344
72	350
73	500
83	1601
84	110
86	30
87	3553
88	120
89	20
97	971
98	771
99	1321
100	130
101	70
105	981
106	30
111	160
112	90
113	100
114	110
115	1551
116	110
130	230
131	280
132	20
133	40
139	130
141	40
145	20
157	9999
158	951
159	220
175	90
200	50
201	120
228	30
229	631
230	80
