Mass Spectrum: Malonic acid, 2-methylpent-3-yl tetradecyl ester
Formula: C23 H44 O4
Molecular weight: 384
Origin: L.N.Kulikova, V.G. Zaikin, RPFU, Moscow, Russia
m/z	RELATIVE INTENSITY
26	60
27	280
28	200
29	500
30	20
31	20
36	30
39	260
40	70
41	1601
42	460
43	3773
44	350
45	60
53	90
54	260
55	1822
56	1081
57	2762
58	160
59	170
60	50
61	110
65	20
66	30
67	370
68	500
69	2532
70	871
71	1932
72	120
73	120
77	20
79	60
80	20
81	300
82	921
83	1822
84	2542
85	6496
86	440
87	1171
88	30
89	120
91	30
93	20
94	20
95	190
96	410
97	1752
98	520
99	440
100	250
101	931
102	80
103	40
104	70
105	9999
106	370
107	100
109	100
110	180
111	1211
112	400
113	380
114	30
115	40
116	20
117	70
123	40
124	100
125	751
126	260
127	250
128	20
129	20
130	160
131	230
132	40
135	20
138	70
139	350
140	170
141	140
142	20
145	30
152	30
153	90
154	90
155	80
159	20
166	20
167	30
168	651
169	70
173	20
182	20
189	270
194	30
195	380
196	1121
197	300
198	20
223	20
265	350
266	50
281	20
283	4844
284	951
285	90
301	130
302	10
326	110
327	40
341	30
355	70
