Mass Spectrum: Succinic acid, octyl 4-phenoxybenzyl ester
Formula: C25 H32 O5
Molecular weight: 412
Origin: L.N.Kulikova, V.G. Zaikin, RPFU, Moscow, Russia
m/z	RELATIVE INTENSITY
26	50
27	230
29	480
39	240
40	40
41	901
42	250
43	1521
44	190
45	20
50	60
51	310
52	40
53	50
54	40
55	1001
56	440
57	3984
58	160
63	110
64	70
65	240
66	40
67	110
68	60
69	871
70	210
71	3914
72	180
73	180
74	450
75	210
76	120
77	771
78	280
79	100
81	40
82	40
83	140
84	100
85	40
89	781
90	400
91	1501
92	891
93	320
94	280
95	50
97	20
100	20
101	9669
102	430
103	70
105	70
106	60
107	340
108	20
109	50
111	270
112	140
113	1181
114	70
115	340
116	50
119	120
121	20
122	110
127	160
128	220
129	280
139	70
140	20
141	310
142	250
144	20
149	50
151	30
152	250
153	611
154	250
155	290
156	40
165	370
166	50
168	591
169	410
170	140
171	1471
172	180
180	20
181	781
182	430
183	9138
184	2923
185	330
195	20
196	80
197	390
198	1111
199	3743
200	9999
201	1441
202	120
209	20
210	20
213	540
214	40
253	40
254	771
255	120
256	10
282	160
283	30
300	601
301	330
302	60
312	40
384	60
412	4434
413	1171
414	170
