Mass Spectrum: Succinic acid, heptadecyl 3-methylbutyl ester
Formula: C26 H50 O4
Molecular weight: 426
Origin: L.N.Kulikova, V.G. Zaikin, RPFU, Moscow, Russia
m/z	RELATIVE INTENSITY
26	40
27	180
29	420
39	180
40	40
41	1071
42	380
43	2973
44	20
45	40
53	60
54	210
55	2012
56	831
57	2742
58	120
66	10
67	320
68	350
69	1501
70	1641
71	9999
72	581
73	120
74	130
75	60
81	200
82	410
83	1271
84	320
85	771
86	50
89	60
95	130
96	150
97	1051
98	270
99	350
100	70
101	5765
102	270
103	50
109	50
110	90
111	510
112	170
113	260
114	20
117	20
118	50
119	3183
120	150
121	20
123	20
124	60
125	220
126	110
127	210
128	120
129	60
138	40
139	80
140	80
141	180
144	50
145	70
146	20
147	20
152	20
153	30
154	60
155	200
156	20
157	210
168	40
169	150
170	70
171	2742
172	270
173	40
175	611
176	40
182	20
183	100
189	5225
190	530
191	30
197	50
210	50
212	40
216	60
226	30
229	20
238	50
239	571
240	130
253	80
254	50
257	20
268	30
283	20
338	40
339	80
357	240
358	40
383	160
384	20
411	80
