Mass Spectrum: Adipic acid, 4-heptyl hexyl ester
Formula: C19 H36 O4
Molecular weight: 328
Origin: L.N.Kulikova, V.G. Zaikin, RPFU, Moscow, Russia
m/z	RELATIVE INTENSITY
26	30
27	230
29	420
31	30
39	160
40	30
41	991
42	390
43	1631
44	170
45	40
53	50
54	100
55	851
56	1021
57	1431
58	60
59	170
60	50
61	260
67	90
68	80
69	470
70	260
71	110
72	30
73	330
82	80
83	530
84	641
85	340
86	20
87	370
97	20
98	540
99	160
100	550
101	1021
102	440
103	230
111	2082
112	310
113	30
114	80
115	330
116	20
127	30
128	330
129	9999
130	661
131	90
144	30
146	100
147	641
148	30
157	40
171	390
172	40
184	220
186	100
213	3273
214	400
215	30
227	110
230	100
231	60
