Mass Spectrum: Succinic acid, 2-ethylbutyl tetradecyl ester
Formula: C24 H46 O4
Molecular weight: 398
Origin: L.N.Kulikova, V.G. Zaikin, RPFU, Moscow, Russia
m/z	RELATIVE INTENSITY
26	30
27	190
29	450
30	10
39	170
40	20
41	1171
42	450
43	3663
45	20
53	80
54	190
55	1972
56	1341
57	2873
58	120
59	20
66	20
67	270
68	280
69	1922
70	751
71	1872
72	90
73	150
74	230
75	110
80	10
81	140
82	430
83	1181
84	3083
85	6906
86	460
95	70
96	110
97	901
98	280
99	540
100	90
101	9999
102	460
103	80
109	20
110	80
111	460
112	190
113	410
114	330
115	170
116	20
118	130
119	9198
120	440
121	70
123	10
124	40
125	200
126	120
127	370
128	50
129	30
132	80
133	90
138	30
139	60
140	80
141	260
142	10
145	10
146	50
153	10
154	30
155	150
156	10
158	10
159	10
167	10
168	130
169	20
173	10
184	20
185	150
186	10
194	10
196	170
197	911
198	130
203	1151
204	100
212	20
226	20
230	10
240	20
241	30
243	20
254	10
270	10
296	20
297	160
298	20
315	330
316	50
369	50
370	10
