Mass Spectrum: Succinic acid, di(3-heptyl) ester
Formula: C18 H34 O4
Molecular weight: 314
Origin: L.N.Kulikova, V.G. Zaikin, RPFU, Moscow, Russia
m/z	RELATIVE INTENSITY
26	40
27	360
28	290
29	741
30	20
31	40
39	210
40	40
41	1141
42	190
43	781
44	40
45	130
53	60
54	60
55	721
56	811
57	3603
58	200
59	230
67	40
68	40
69	631
70	290
73	160
74	170
83	50
85	20
87	490
88	20
97	60
98	581
99	2762
100	220
101	9999
102	440
103	70
114	150
115	1311
116	110
118	60
119	2142
120	90
157	40
159	190
172	70
173	20
187	120
199	1812
200	220
201	20
217	70
