Mass Spectrum: Succinic acid, decyl 4-methylpent-2-yl ester
Formula: C20 H38 O4
Molecular weight: 342
Origin: L.N.Kulikova, V.G. Zaikin, RPFU, Moscow, Russia
m/z	RELATIVE INTENSITY
26	40
27	260
28	210
29	530
30	10
31	10
39	220
40	50
41	1471
42	540
43	3713
44	110
45	90
53	80
54	140
55	1501
56	1151
57	3043
58	150
59	30
65	10
66	10
67	200
68	240
69	2192
70	771
71	1982
72	100
73	190
74	390
75	320
81	70
82	280
83	891
84	2362
85	7627
86	530
87	10
95	40
96	90
97	520
98	220
99	571
100	400
101	9999
102	470
103	80
109	10
110	40
111	280
112	270
113	30
117	10
118	80
119	7817
120	370
121	60
127	10
128	20
138	20
139	10
140	440
141	1742
142	190
145	10
146	30
155	30
157	60
159	30
175	60
185	90
203	160
204	10
214	140
215	50
241	1491
242	220
243	30
255	10
258	10
259	661
260	90
299	20
327	60
