Mass Spectrum: Succinic acid, 2-ethylbutyl isobutyl ester
Formula: C14 H26 O4
Molecular weight: 258
Origin: L.N.Kulikova, V.G. Zaikin, RPFU, Moscow, Russia
m/z	RELATIVE INTENSITY
26	20
27	260
28	260
29	651
30	30
31	30
39	210
40	30
41	1141
42	250
43	2102
44	20
45	40
53	50
54	50
55	741
56	1231
57	5055
58	230
59	50
67	20
69	961
70	80
71	110
72	30
73	230
74	230
75	40
83	80
84	2162
85	4204
86	290
91	100
93	30
100	90
101	9999
102	490
103	120
105	20
114	410
115	110
118	60
119	2322
120	100
129	100
130	280
131	30
132	240
133	20
141	30
155	60
156	30
157	931
158	110
159	80
173	20
174	30
175	460
176	30
185	240
186	20
188	40
203	40
229	50
