Mass Spectrum: Succinic acid, di(2-ethylbutyl) ester
Formula: C16 H30 O4
Molecular weight: 286
Origin: L.N.Kulikova, V.G. Zaikin, RPFU, Moscow, Russia
m/z	RELATIVE INTENSITY
26	40
27	540
29	891
30	40
31	40
39	320
40	40
41	1411
42	490
43	5565
44	60
45	130
53	120
54	100
55	1541
56	1411
57	851
58	30
59	100
67	60
68	20
69	1692
70	120
71	180
72	30
73	210
74	250
75	20
83	130
84	4044
85	9479
86	631
87	10
100	10
101	9999
102	450
103	140
114	571
115	140
118	70
119	3333
120	150
121	10
127	10
129	30
131	10
132	561
133	50
155	70
156	10
158	230
159	20
173	100
174	30
184	30
185	460
186	40
187	10
202	20
203	330
204	30
216	20
257	80
287	20
