Mass Spectrum: Succinic acid, hexyl 2-hexyl ester
Formula: C16 H30 O4
Molecular weight: 286
Origin: L.N.Kulikova, V.G. Zaikin, RPFU, Moscow, Russia
m/z	RELATIVE INTENSITY
27	110
28	60
29	170
39	50
41	300
42	200
43	1141
44	70
45	30
53	30
54	50
55	540
56	540
57	400
58	30
67	120
68	20
69	320
70	70
71	60
73	140
74	340
75	200
82	90
83	170
84	871
85	2132
86	150
87	20
99	30
100	180
101	9999
102	470
103	80
118	20
119	1852
120	80
143	30
158	140
159	50
185	1661
186	190
203	400
204	40
