Mass Spectrum: Succinic acid, dodecyl 2-methylpent-3-yl ester
Formula: C22 H42 O4
Molecular weight: 370
Origin: L.N.Kulikova, V.G. Zaikin, RPFU, Moscow, Russia
m/z	RELATIVE INTENSITY
26	60
27	330
29	641
31	20
39	250
40	40
41	1712
42	550
43	4474
44	150
45	50
53	90
54	180
55	2002
56	1411
57	4154
58	180
59	60
67	300
68	310
69	2332
70	871
71	2772
72	130
73	190
74	270
75	260
77	10
81	120
82	430
83	1061
84	2402
85	8207
86	480
91	10
95	50
96	140
97	811
98	270
99	1121
100	440
101	9999
102	430
103	50
109	10
110	50
111	410
112	150
113	861
114	30
118	70
119	8187
120	330
121	30
124	10
125	130
126	60
127	370
128	10
139	20
140	170
159	10
168	310
169	2232
170	240
185	30
203	10
213	10
242	20
269	1401
270	180
287	210
288	10
