Mass Spectrum: Succinic acid, decyl 2,4-dimethylpent-3-yl ester
Formula: C21 H40 O4
Molecular weight: 356
Origin: L.N.Kulikova, V.G. Zaikin, RPFU, Moscow, Russia
m/z	RELATIVE INTENSITY
26	30
27	280
29	430
39	280
41	1601
42	500
43	3113
45	20
50	20
51	20
53	90
54	130
55	1712
56	1251
57	8227
58	330
67	210
68	180
69	931
70	731
71	3283
72	190
73	280
74	200
75	120
76	10
77	10
78	10
80	10
81	90
82	230
83	2062
84	370
85	3313
86	160
91	10
95	20
96	130
97	420
98	991
99	3103
100	280
101	9999
102	420
103	20
110	10
111	170
112	150
114	360
115	2022
116	90
118	20
119	4784
120	150
121	10
125	10
140	270
141	2642
142	220
177	10
214	30
241	2492
242	300
259	50
