Mass Spectrum: Malonic acid, decyl 2-methylpent-3-yl ester
Formula: C19 H36 O4
Molecular weight: 328
Origin: L.N.Kulikova, V.G. Zaikin, RPFU, Moscow, Russia
m/z	RELATIVE INTENSITY
26	90
27	611
28	450
29	1121
30	30
31	90
37	20
39	450
40	110
41	2793
42	1111
43	7106
44	500
45	140
51	20
53	150
54	290
55	2542
56	1912
57	5055
58	250
59	240
60	90
61	290
65	20
66	30
67	390
68	530
69	3103
70	1271
71	3433
72	200
73	100
79	30
80	20
81	210
82	661
83	1722
84	3673
85	9999
86	671
87	2032
88	60
89	70
95	90
96	220
97	981
98	380
99	621
100	310
101	1571
102	110
104	50
105	8037
106	260
107	60
109	30
110	90
111	470
112	801
113	130
114	20
115	40
116	20
117	60
125	30
127	30
128	10
129	20
130	190
131	250
132	30
138	40
139	340
140	1051
141	390
142	40
145	30
159	20
167	70
189	20
209	20
227	4194
228	561
229	70
245	100
270	40
271	20
285	30
299	30
