Mass Spectrum: Malonic acid, 2-hexyl tridecyl ester
Formula: C22 H42 O4
Molecular weight: 370
Origin: L.N.Kulikova, V.G. Zaikin, RPFU, Moscow, Russia
m/z	RELATIVE INTENSITY
26	60
27	300
28	210
29	530
39	240
40	60
41	1381
42	711
43	3373
44	120
45	40
53	80
54	240
55	1992
56	1311
57	2512
58	130
60	50
61	110
66	20
67	320
68	400
69	1661
70	871
71	1361
72	70
81	200
82	691
83	1481
84	1491
85	1692
86	120
87	881
88	20
89	50
95	120
96	260
97	1151
98	400
99	280
100	100
101	390
102	40
103	150
104	40
105	9999
106	330
107	80
109	50
110	110
111	781
112	240
113	170
115	20
123	20
124	50
125	390
126	150
127	110
138	20
139	80
140	60
141	30
145	30
153	40
154	380
155	30
171	30
180	20
181	230
182	520
183	130
189	80
251	70
269	871
270	130
287	90
