Mass Spectrum: Succinic acid, 3-methylpentyl tetradecyl ester
Formula: C24 H46 O4
Molecular weight: 398
Origin: L.N.Kulikova, V.G. Zaikin, RPFU, Moscow, Russia
m/z	RELATIVE INTENSITY
26	40
27	150
29	320
39	130
40	30
41	851
42	260
43	2322
44	110
53	60
54	180
55	1611
56	1031
57	2402
58	80
67	280
68	280
69	1822
70	691
71	1301
72	50
73	110
74	90
75	70
79	40
81	160
82	390
83	1121
84	1852
85	9999
86	671
91	30
95	80
96	100
97	771
98	230
99	340
100	90
101	5435
102	230
103	30
104	20
109	20
110	60
111	360
112	140
113	260
118	20
119	3723
120	150
124	20
125	130
126	70
127	230
128	140
129	80
139	20
140	50
141	160
145	50
147	30
155	100
168	70
175	20
185	831
186	60
196	50
197	520
198	60
203	3163
204	320
205	20
297	60
315	450
316	50
341	130
369	120
