Mass Spectrum: Succinic acid, 2-decyl hexyl ester
Formula: C20 H38 O4
Molecular weight: 342
Origin: L.N.Kulikova, V.G. Zaikin, RPFU, Moscow, Russia
m/z	RELATIVE INTENSITY
26	20
27	190
29	380
39	130
40	30
41	841
42	400
43	2292
45	30
53	40
54	90
55	1031
56	951
57	1221
58	80
67	90
68	70
69	601
70	460
71	641
72	30
73	140
74	390
75	280
81	40
82	90
83	360
84	641
85	2452
86	150
96	70
97	380
98	220
99	170
100	110
101	9999
102	460
103	80
110	20
111	240
112	150
118	30
119	2612
120	110
140	410
141	641
142	60
156	140
157	510
158	190
159	40
185	2843
186	300
187	20
200	20
203	1331
204	140
241	20
