Mass Spectrum: Malonic acid, 2-methylpentyl pentadecyl ester
Formula: C24 H46 O4
Molecular weight: 398
Origin: L.N.Kulikova, V.G. Zaikin, RPFU, Moscow, Russia
m/z	RELATIVE INTENSITY
26	20
27	130
28	70
29	190
39	140
40	40
41	941
42	320
43	2722
44	200
45	30
53	80
54	200
55	1581
56	971
57	2732
58	140
59	180
60	40
61	120
66	30
67	390
68	460
69	2262
70	871
71	1912
72	120
73	80
79	30
80	30
81	270
82	971
83	1892
84	2482
85	6496
86	460
87	1111
88	30
89	140
91	20
94	10
95	190
96	390
97	1902
98	480
99	440
100	240
101	911
102	80
103	30
104	70
105	9999
106	360
107	90
109	100
110	170
111	1171
112	360
113	340
114	30
115	40
116	30
117	50
123	40
124	120
125	721
126	260
127	250
128	30
130	150
131	200
132	20
137	30
138	70
139	330
140	170
141	120
142	20
145	20
152	40
153	180
154	120
155	90
159	20
167	70
168	60
169	40
180	20
181	30
182	510
183	70
189	60
209	220
210	851
211	230
212	20
237	10
279	390
280	80
297	3233
298	651
299	70
315	100
340	70
341	30
355	20
369	40
