Mass Spectrum: Succinic acid, 3-ethylphenyl isobutyl ester
Formula: C16 H22 O4
Molecular weight: 278
Origin: L.N.Kulikova, V.G. Zaikin, RPFU, Moscow, Russia
m/z	RELATIVE INTENSITY
26	20
27	140
28	110
29	290
39	130
41	400
42	40
43	200
44	20
45	30
51	60
52	30
53	50
55	811
56	240
57	4084
58	200
63	50
64	20
65	120
66	20
67	200
73	190
74	20
76	10
77	751
78	240
79	290
80	20
81	90
84	30
89	40
90	20
91	320
92	40
93	60
94	150
95	270
97	40
99	40
100	70
101	9999
102	500
103	370
104	50
105	300
106	30
107	2632
108	220
114	90
115	20
119	20
120	50
121	330
122	5935
123	1031
124	100
127	30
132	20
135	20
141	80
149	30
157	3303
158	290
159	20
177	220
178	40
205	4574
206	631
207	50
263	20
278	30
