Mass Spectrum: Succinic acid, heptadecyl 3-methylpentyl ester
Formula: C27 H52 O4
Molecular weight: 440
Origin: L.N.Kulikova, V.G. Zaikin, RPFU, Moscow, Russia
m/z	RELATIVE INTENSITY
26	70
27	250
29	520
39	210
40	30
41	1241
42	390
43	3693
44	180
53	70
54	240
55	2062
56	1191
57	2742
58	100
67	370
68	310
69	1962
70	641
71	1341
72	50
73	100
74	90
75	70
77	20
79	50
81	220
82	450
83	1281
84	1651
85	9999
86	641
91	20
95	110
96	100
97	901
98	230
99	320
100	60
101	4304
102	170
103	30
109	50
110	70
111	420
112	130
113	200
118	20
119	3163
120	120
124	30
125	160
126	70
127	170
128	100
129	80
139	40
140	40
141	130
145	30
147	30
154	30
155	130
169	100
183	50
185	761
186	50
203	3013
204	300
210	20
238	20
239	340
240	60
339	20
357	270
358	30
383	80
411	90
