Mass Spectrum: Malonic acid, 3-heptyl nonyl ester
Formula: C19 H36 O4
Molecular weight: 328
Origin: L.N.Kulikova, V.G. Zaikin, RPFU, Moscow, Russia
m/z	RELATIVE INTENSITY
26	40
27	240
29	601
31	20
39	210
40	50
41	1501
42	611
43	2152
45	30
53	80
54	210
55	1832
56	1862
57	4544
58	190
59	30
60	60
61	250
67	220
68	360
69	1702
70	1271
71	3013
72	200
73	20
81	130
82	350
83	1011
84	550
85	1972
86	140
87	1782
88	60
89	30
95	70
96	160
97	771
98	1952
99	330
100	30
101	30
102	40
103	170
104	40
105	9999
106	340
107	80
111	120
112	30
113	20
114	190
115	1331
116	120
117	90
124	30
125	390
126	911
127	390
128	40
129	20
132	20
139	40
140	40
141	30
142	10
143	20
145	60
153	90
154	20
159	20
167	40
185	80
195	20
203	20
213	5835
214	771
215	80
231	300
232	30
243	30
271	30
299	30
