Mass Spectrum: Succinic acid, 4-biphenyl octyl ester
Formula: C24 H30 O4
Molecular weight: 382
Origin: L.N.Kulikova, V.G. Zaikin, RPFU, Moscow, Russia
m/z	RELATIVE INTENSITY
26	20
27	100
29	170
39	70
41	360
42	120
43	691
44	40
51	20
53	20
54	10
55	621
56	140
57	1631
58	60
63	40
65	20
67	20
68	20
69	220
70	80
71	1571
72	50
73	50
76	70
77	110
83	60
84	50
85	50
89	30
91	20
97	20
100	30
101	3533
102	190
103	30
111	20
112	20
113	380
114	30
115	330
116	40
126	10
127	70
128	10
139	120
140	30
141	490
142	90
151	60
152	250
153	190
154	40
155	20
167	40
168	50
169	270
170	9999
171	1591
172	130
183	20
213	591
214	70
225	30
253	901
254	150
282	20
382	140
383	20
