Mass Spectrum: Adipic acid, 2,4-dimethylpent-3-yl pentyl ester
Formula: C18 H34 O4
Molecular weight: 314
Origin: L.N.Kulikova, V.G. Zaikin, RPFU, Moscow, Russia
m/z	RELATIVE INTENSITY
26	20
27	150
29	210
31	20
39	110
40	20
41	520
42	250
43	1081
44	30
45	20
53	30
54	30
55	1261
56	240
57	1802
58	70
59	110
60	20
61	20
67	40
68	50
69	110
70	430
71	340
72	30
73	180
83	1041
84	230
85	80
87	140
97	20
98	320
99	370
100	300
101	1071
102	380
103	190
111	2793
112	360
113	20
114	60
115	581
116	20
127	20
128	210
129	9999
130	801
131	60
143	90
147	420
157	621
158	40
170	380
171	60
172	430
173	30
198	70
199	9028
200	1171
201	100
216	360
217	70
227	120
