Mass Spectrum: Malonic acid, 3-methylpent-2-yl pentadecyl ester
Formula: C24 H46 O4
Molecular weight: 398
Origin: L.N.Kulikova, V.G. Zaikin, RPFU, Moscow, Russia
m/z	RELATIVE INTENSITY
26	30
27	160
29	360
39	170
40	40
41	1151
42	380
43	3293
44	220
45	130
53	90
54	230
55	1842
56	1051
57	3013
58	140
59	20
60	60
61	150
66	30
67	410
68	490
69	2342
70	881
71	1782
72	130
73	30
79	30
80	20
81	290
82	1031
83	2012
84	3473
85	7757
86	550
87	781
88	20
89	150
93	20
95	210
96	420
97	1932
98	530
99	410
100	150
101	731
102	60
103	30
104	100
105	9999
106	370
107	90
109	100
110	190
111	1221
112	350
113	290
114	30
115	50
116	40
117	40
123	40
124	120
125	731
126	300
127	240
128	20
132	90
133	70
137	30
138	70
139	360
140	180
141	120
142	20
144	140
145	200
152	40
153	200
154	130
155	90
166	20
167	70
168	60
169	40
173	30
180	20
181	20
182	540
183	70
189	60
209	410
210	921
211	240
212	20
227	10
237	20
279	681
280	130
297	1611
298	320
299	30
315	100
326	20
354	170
355	30
369	20
