Mass Spectrum: Malonic acid, 2-methylpent-3-yl propyl ester
Formula: C12 H22 O4
Molecular weight: 230
Origin: L.N.Kulikova, V.G. Zaikin, RPFU, Moscow, Russia
m/z	RELATIVE INTENSITY
27	210
28	60
29	170
31	70
39	110
40	20
41	520
42	300
43	2162
44	190
45	60
53	20
54	20
55	190
56	150
57	290
58	40
59	450
60	100
61	100
67	40
68	20
69	601
70	60
71	150
72	20
73	230
82	20
83	20
84	751
85	1211
86	90
87	1822
88	70
99	20
100	80
101	931
102	130
105	540
106	20
111	70
112	70
113	30
117	30
127	20
129	9999
130	881
131	140
145	90
146	20
147	290
159	50
171	30
172	110
173	60
186	20
187	280
188	20
201	110
