Mass Spectrum: Succinic acid, 3-heptyl octadecyl ester
Formula: C29 H56 O4
Molecular weight: 468
Origin: L.N.Kulikova, V.G. Zaikin, RPFU, Moscow, Russia
m/z	RELATIVE INTENSITY
26	60
27	210
29	430
39	200
40	40
41	1181
42	350
43	1912
53	60
54	220
55	1792
56	1201
57	4014
58	170
59	30
67	320
68	360
69	1712
70	921
71	1922
72	100
73	120
74	210
75	150
81	230
82	540
83	1521
84	440
85	1481
86	80
95	140
96	240
97	1321
98	1071
99	1051
100	180
101	8247
102	370
103	60
109	50
110	120
111	671
112	200
113	490
114	250
115	831
116	60
117	20
118	160
119	9999
120	450
121	70
123	30
124	70
125	310
126	120
127	400
128	20
138	40
139	120
140	90
141	340
142	20
146	20
152	30
153	60
154	60
155	310
156	20
166	10
167	40
168	50
169	310
170	20
182	30
183	270
184	20
196	20
197	170
198	10
199	90
211	70
217	90
224	100
250	20
252	210
253	2062
254	420
255	20
297	40
352	30
353	691
354	140
370	40
371	420
372	70
