Mass Spectrum: Succinic acid, decyl 2-hexyl ester
Formula: C20 H38 O4
Molecular weight: 342
Origin: L.N.Kulikova, V.G. Zaikin, RPFU, Moscow, Russia
m/z	RELATIVE INTENSITY
26	20
27	130
29	250
39	80
41	500
42	260
43	1301
44	80
45	40
53	30
54	70
55	791
56	661
57	1231
58	60
67	100
68	130
69	661
70	460
71	1161
72	50
73	120
74	250
75	170
81	50
82	180
83	561
84	921
85	2142
86	140
95	30
96	70
97	370
98	170
99	400
100	190
101	9999
102	480
103	80
110	40
111	200
112	210
113	20
118	60
119	5685
120	270
121	50
125	20
138	20
140	280
141	1281
142	140
146	20
185	180
203	130
214	80
215	30
241	1101
242	160
243	20
259	440
260	60
