Mass Spectrum: Malonic acid, 2-decyl isobutyl ester
Formula: C17 H32 O4
Molecular weight: 300
Origin: L.N.Kulikova, V.G. Zaikin, RPFU, Moscow, Russia
m/z	RELATIVE INTENSITY
26	40
27	490
29	1321
30	30
39	460
40	80
41	2642
42	1021
43	2172
53	120
54	190
55	1982
56	2632
57	9999
58	400
59	50
60	280
61	30
67	230
68	190
69	1021
70	1141
71	1331
72	140
73	220
81	100
82	220
83	941
84	581
85	1151
86	80
87	2352
88	70
90	30
95	30
96	190
97	851
98	490
99	250
100	90
101	70
102	330
105	8368
106	290
107	60
110	40
111	500
112	230
113	20
114	20
116	20
117	50
118	320
119	30
125	240
127	50
130	40
131	90
132	60
139	20
140	981
141	1421
142	140
143	6276
144	480
145	200
156	260
157	1071
158	440
159	70
160	110
161	1852
162	140
167	40
187	170
209	40
227	190
228	20
285	30
