Mass Spectrum: Malonic acid, heptyl 3-heptyl ester
Formula: C17 H32 O4
Molecular weight: 300
Origin: L.N.Kulikova, V.G. Zaikin, RPFU, Moscow, Russia
m/z	RELATIVE INTENSITY
26	30
27	220
29	500
39	140
40	30
41	941
42	430
43	801
53	40
54	110
55	981
56	1101
57	4984
58	130
60	30
61	290
67	150
68	310
69	1001
70	1181
71	410
72	40
73	50
81	140
82	380
83	1061
84	370
85	40
87	1061
88	30
95	40
96	120
97	631
98	1862
99	671
100	60
101	130
102	40
103	110
104	30
105	8408
106	320
107	90
111	90
112	50
113	40
114	200
115	1792
116	170
117	120
125	510
126	60
127	40
128	10
132	20
139	130
140	20
141	20
143	20
155	20
159	30
167	90
185	9999
186	1121
187	110
203	581
204	60
243	100
271	70
