Mass Spectrum: Succinic acid, 3-methylpentyl tridecyl ester
Formula: C23 H44 O4
Molecular weight: 384
Origin: L.N.Kulikova, V.G. Zaikin, RPFU, Moscow, Russia
m/z	RELATIVE INTENSITY
26	30
27	130
29	320
39	130
40	20
41	931
42	290
43	2652
44	130
53	60
54	180
55	1772
56	1081
57	2422
58	100
67	250
68	260
69	1832
70	671
71	1261
72	60
73	120
74	110
75	80
79	20
81	130
82	330
83	1011
84	1922
85	9999
86	681
95	60
96	110
97	641
98	230
99	360
100	90
101	5445
102	250
103	50
109	20
110	60
111	300
112	140
113	280
114	40
118	30
119	3523
120	150
121	20
124	20
125	120
126	70
127	230
128	170
129	100
139	20
140	40
141	100
145	70
146	20
147	30
154	100
155	70
158	20
182	90
183	550
184	70
185	771
186	70
203	2742
204	300
205	20
212	20
227	20
230	30
243	20
282	20
283	100
301	480
302	80
327	160
328	30
355	150
356	20
