Mass Spectrum: Succinic acid, 3-methylbutyl nonadecyl ester
Formula: C28 H54 O4
Molecular weight: 454
Origin: L.N.Kulikova, V.G. Zaikin, RPFU, Moscow, Russia
m/z	RELATIVE INTENSITY
26	50
27	200
29	450
31	10
39	210
40	40
41	1161
42	410
43	3043
45	30
53	80
54	250
55	2162
56	921
57	3453
58	150
66	20
67	380
68	400
69	1641
70	1611
71	9999
72	571
73	110
74	140
75	60
77	10
80	20
81	270
82	490
83	1461
84	320
85	741
86	50
87	10
89	60
94	10
95	170
96	200
97	1241
98	290
99	370
100	90
101	6146
102	290
103	60
109	80
110	110
111	611
112	180
113	280
114	20
115	30
116	10
117	40
118	60
119	3593
120	160
121	30
123	30
124	70
125	270
126	120
127	220
128	100
129	70
130	10
137	10
138	50
139	100
140	90
141	190
142	10
144	40
145	60
146	10
147	20
152	30
153	50
154	60
155	170
156	20
158	20
166	20
167	30
168	40
169	150
170	60
171	2752
172	270
173	40
176	80
180	10
181	10
182	20
183	130
184	10
188	10
189	5425
190	530
191	20
194	10
196	20
197	100
198	20
210	10
211	80
212	40
216	50
225	40
226	40
229	10
238	30
239	10
240	40
254	30
257	20
264	10
266	30
267	490
268	130
281	60
282	40
296	20
310	20
311	30
313	10
324	10
366	50
367	50
381	10
385	190
386	30
399	10
411	130
412	20
439	80
440	10
455	10
