Mass Spectrum: Succinic acid, 2-methylpent-3-yl propyl ester
Formula: C13 H24 O4
Molecular weight: 244
Origin: L.N.Kulikova, V.G. Zaikin, RPFU, Moscow, Russia
m/z	RELATIVE INTENSITY
27	180
29	180
31	20
39	90
41	470
42	120
43	1411
44	30
45	100
55	330
56	390
57	280
58	40
59	110
69	621
70	40
71	20
73	250
74	170
75	140
84	691
85	3013
86	190
100	280
101	9999
102	490
103	80
116	190
119	130
143	4884
144	380
145	30
161	190
