Mass Spectrum: Succinic acid, 3-oxobut-2-yl pentadecyl ester
Formula: C23 H42 O5
Molecular weight: 398
Origin: L.N.Kulikova, V.G. Zaikin, RPFU, Moscow, Russia
m/z	RELATIVE INTENSITY
26	90
27	360
28	310
29	781
39	250
40	50
41	1832
42	611
43	3823
44	210
45	170
53	110
54	300
55	3013
56	1812
57	6156
58	260
66	20
67	440
68	460
69	2302
70	1201
71	7457
72	500
73	240
74	180
75	90
79	50
80	20
81	270
82	671
83	1942
84	701
85	3753
86	240
88	120
89	6626
90	260
91	50
95	150
96	320
97	1471
98	450
99	1411
100	200
101	9999
102	450
103	80
109	50
110	100
111	681
112	290
113	1061
114	70
116	20
117	30
118	80
119	230
123	20
124	90
125	280
126	210
127	931
128	581
129	130
138	60
139	90
140	160
141	711
142	60
143	20
144	80
145	120
146	40
147	70
149	20
151	20
152	50
153	60
154	110
155	591
156	50
166	20
167	20
168	50
169	240
170	100
171	4814
172	410
173	40
182	190
183	30
189	771
190	50
198	40
208	20
210	140
211	3023
212	571
213	40
226	100
229	20
240	90
253	20
254	90
255	50
268	50
310	130
311	2372
312	460
313	40
