Mass Spectrum: Succinic acid, 2,3-dimethylphenyl pentadecyl ester
Formula: C27 H44 O4
Molecular weight: 432
Origin: L.N.Kulikova, V.G. Zaikin, RPFU, Moscow, Russia
m/z	RELATIVE INTENSITY
26	50
27	160
29	350
39	190
40	20
41	1151
42	350
43	2512
44	120
50	20
51	60
52	20
53	120
54	140
55	2662
56	791
57	6576
58	280
65	70
66	20
67	280
68	220
69	1601
70	581
71	5975
72	310
73	100
74	20
75	20
77	510
78	150
79	280
80	30
81	190
82	250
83	1181
84	340
85	4954
86	290
91	470
92	60
93	80
94	40
95	120
96	240
97	851
98	200
99	1802
100	170
101	9368
102	420
103	210
104	100
105	490
106	50
107	1311
108	110
109	50
110	30
111	370
112	110
113	1301
114	70
117	40
118	110
119	240
120	30
121	761
122	9999
123	2803
124	220
125	140
126	50
127	1061
128	70
129	20
135	80
139	30
140	30
141	891
142	60
149	30
154	20
155	671
156	40
169	290
177	260
178	40
182	30
205	2702
206	310
211	2302
212	360
223	110
311	2092
312	390
