Mass Spectrum: Succinic acid, ethyl 3-methylpentyl ester
Formula: C12 H22 O4
Molecular weight: 230
Origin: L.N.Kulikova, V.G. Zaikin, RPFU, Moscow, Russia
m/z	RELATIVE INTENSITY
26	90
27	591
29	1511
30	50
31	80
39	200
40	40
41	1171
42	310
43	2732
44	170
45	230
47	30
53	90
54	120
55	2372
56	1611
57	911
58	30
67	100
68	40
69	3433
70	200
71	30
73	611
74	330
75	80
82	30
83	180
84	3833
85	4754
86	290
99	180
100	200
101	8638
102	1191
103	100
127	70
128	530
129	9999
130	681
131	100
146	30
147	1581
148	90
155	70
173	430
174	90
185	140
201	110
