Mass Spectrum: Malonic acid, 2-heptyl isohexyl ester
Formula: C16 H30 O4
Molecular weight: 286
Origin: L.N.Kulikova, V.G. Zaikin, RPFU, Moscow, Russia
m/z	RELATIVE INTENSITY
26	50
27	581
29	1081
30	50
31	20
39	390
40	50
41	2172
42	1081
43	5005
53	170
54	250
55	2752
56	3123
57	6526
58	160
59	150
60	330
61	50
67	130
68	120
69	2592
70	1091
71	420
72	120
73	80
81	70
82	60
83	400
84	5235
85	9999
86	631
87	2332
88	80
89	30
90	210
96	60
97	240
98	1852
99	1031
100	210
101	470
102	200
105	9068
106	290
107	80
111	991
112	80
113	20
114	100
115	1201
116	110
117	30
118	2472
119	240
120	20
125	691
126	60
127	70
129	120
130	40
131	631
132	40
139	130
140	30
141	60
145	20
153	310
154	30
158	70
159	170
160	40
167	150
168	20
171	3803
172	360
173	40
185	420
186	200
187	20
188	130
189	160
203	20
215	20
252	60
271	40
