Mass Spectrum: Succinic acid, 2-hexyl nonyl ester
Formula: C19 H36 O4
Molecular weight: 328
Origin: L.N.Kulikova, V.G. Zaikin, RPFU, Moscow, Russia
m/z	RELATIVE INTENSITY
26	60
27	310
28	240
29	611
39	190
40	40
41	1141
42	601
43	2883
44	190
45	100
53	60
54	120
55	1411
56	1171
57	1802
58	110
67	120
68	150
69	891
70	530
71	2002
72	90
73	150
74	380
75	230
81	40
82	150
83	450
84	1061
85	2222
86	130
96	40
97	320
98	230
99	20
100	150
101	9999
102	440
103	70
111	20
118	30
119	4544
120	190
121	20
126	250
127	1051
128	90
185	150
200	80
201	20
203	70
227	961
228	110
245	320
246	30
