Mass Spectrum: Succinic acid, 3-ethylphenyl octadecyl ester
Formula: C30 H50 O4
Molecular weight: 474
Origin: L.N.Kulikova, V.G. Zaikin, RPFU, Moscow, Russia
m/z	RELATIVE INTENSITY
26	100
27	330
29	571
38	40
39	370
40	60
41	1672
42	480
43	3703
44	170
50	40
51	80
52	50
53	130
54	240
55	3723
56	1151
57	8378
58	330
63	40
65	100
66	30
67	420
68	310
69	2392
70	811
71	7237
72	370
73	130
74	40
75	20
77	591
78	190
79	290
80	40
81	270
82	370
83	1812
84	450
85	5845
86	350
91	350
92	40
93	90
94	130
95	320
96	130
97	1301
98	260
99	2322
100	240
101	9999
102	430
103	260
104	30
105	290
106	20
107	2472
108	200
109	70
110	50
111	591
112	130
113	1661
114	110
117	50
120	90
121	330
122	9438
123	2833
124	230
125	230
126	70
127	1271
128	90
132	20
133	10
135	80
139	60
140	30
141	1001
142	70
149	40
153	20
154	20
155	831
156	60
169	761
170	60
176	20
177	200
178	30
183	641
184	60
197	430
198	40
205	3093
206	360
211	190
212	20
223	150
224	20
253	2913
254	550
255	30
351	20
352	20
353	1421
354	300
374	20
