Mass Spectrum: Succinic acid, 2,4-dimethylpent-3-yl isobutyl ester
Formula: C15 H28 O4
Molecular weight: 272
Origin: L.N.Kulikova, V.G. Zaikin, RPFU, Moscow, Russia
m/z	RELATIVE INTENSITY
26	20
27	170
29	320
31	10
39	110
40	20
41	581
42	70
43	641
44	70
45	20
53	10
55	300
56	550
57	5205
58	220
67	10
69	70
70	40
71	180
72	40
73	280
74	90
75	10
83	861
84	170
85	20
97	30
98	340
99	3163
100	330
101	9999
102	490
103	80
114	390
115	1291
116	80
118	10
119	480
120	10
127	10
129	10
130	120
141	10
143	40
155	10
157	4364
158	370
159	90
173	10
174	20
175	70
199	10
