Mass Spectrum: Malonic acid, 2-heptyl nonyl ester
Formula: C19 H36 O4
Molecular weight: 328
Origin: L.N.Kulikova, V.G. Zaikin, RPFU, Moscow, Russia
m/z	RELATIVE INTENSITY
26	60
27	330
29	741
39	260
40	50
41	1672
42	741
43	2442
45	110
53	80
54	210
55	1842
56	2112
57	4464
58	180
59	30
60	70
61	200
67	190
68	360
69	1491
70	1341
71	2382
72	130
81	130
82	310
83	841
84	530
85	1401
86	90
87	1111
88	30
89	20
95	60
96	140
97	631
98	1822
99	400
100	30
101	20
102	50
103	260
104	40
105	9999
106	340
107	80
111	40
113	20
114	100
115	601
116	50
124	20
125	300
126	681
127	300
128	20
131	20
132	20
139	30
140	30
143	20
153	60
161	20
167	30
185	30
203	20
213	2412
214	310
215	20
231	230
232	20
