Mass Spectrum: Succinic acid, isobutyl 3-methylpentyl ester
Formula: C14 H26 O4
Molecular weight: 258
Origin: L.N.Kulikova, V.G. Zaikin, RPFU, Moscow, Russia
m/z	RELATIVE INTENSITY
26	60
27	480
28	520
29	1301
30	60
31	40
39	350
40	70
41	1932
42	310
43	3313
44	170
45	100
53	90
54	100
55	1682
56	2202
57	6075
58	270
67	80
68	40
69	2182
70	130
71	60
72	40
73	350
74	270
75	100
82	30
83	200
84	2722
85	9999
86	681
99	60
100	180
101	9679
102	430
103	90
114	90
118	30
119	3383
120	150
121	20
127	60
128	260
129	90
130	170
131	20
141	40
145	240
146	80
155	120
156	40
157	651
158	140
159	40
173	40
175	761
176	50
185	861
186	80
201	170
202	50
203	300
204	20
229	110
243	20
