Mass Spectrum: Succinic acid, di(3-hexyl) ester
Formula: C16 H30 O4
Molecular weight: 286
Origin: L.N.Kulikova, V.G. Zaikin, RPFU, Moscow, Russia
m/z	RELATIVE INTENSITY
27	160
28	80
29	220
31	20
39	80
41	370
42	170
43	1401
44	60
45	60
53	20
54	20
55	490
56	380
57	250
58	30
59	200
67	20
69	180
71	50
72	20
73	360
74	170
83	40
84	430
85	2212
86	150
100	130
101	9999
102	470
103	70
118	40
119	1341
120	60
143	30
157	20
158	90
159	140
173	100
185	1651
186	190
203	40
