Mass Spectrum: Malonic acid, butyl 2-decyl ester
Formula: C17 H32 O4
Molecular weight: 300
Origin: L.N.Kulikova, V.G. Zaikin, RPFU, Moscow, Russia
m/z	RELATIVE INTENSITY
26	70
27	641
29	1862
30	30
39	490
40	80
41	3143
42	1171
43	2432
53	150
54	250
55	2512
56	3163
57	6616
58	260
59	20
60	350
61	120
67	270
68	230
69	1281
70	1391
71	1351
72	140
73	160
81	130
82	250
83	1021
84	801
85	1161
86	100
87	3333
88	100
89	30
95	30
96	220
97	1051
98	611
99	250
100	30
101	90
102	200
103	80
104	40
105	9999
106	340
107	80
110	60
111	611
112	290
113	40
114	20
116	50
117	90
125	110
131	30
132	50
139	20
140	1141
141	1061
142	110
143	9008
144	661
145	90
156	320
157	1181
158	571
159	80
160	130
161	4324
162	330
163	40
167	40
171	20
174	30
187	200
209	20
215	20
227	130
