Mass Spectrum: Succinic acid, decyl 2-heptyl ester
Formula: C21 H40 O4
Molecular weight: 356
Origin: L.N.Kulikova, V.G. Zaikin, RPFU, Moscow, Russia
m/z	RELATIVE INTENSITY
26	40
27	230
29	540
39	180
40	40
41	1261
42	440
43	1882
44	40
45	70
53	60
54	150
55	1551
56	1431
57	3924
58	190
67	150
68	210
69	1071
70	971
71	1712
72	80
73	180
74	360
75	240
81	80
82	210
83	691
84	310
85	1782
86	110
95	30
96	90
97	450
98	1071
99	1001
100	190
101	9999
102	440
103	70
110	30
111	210
112	210
113	20
114	120
115	510
116	30
117	20
118	60
119	6136
120	260
121	40
140	300
141	1481
142	140
146	20
199	80
214	60
215	20
217	90
241	1181
242	160
259	510
260	70
