Mass Spectrum: Succinic acid, 2-decyl tridecyl ester
Formula: C27 H52 O4
Molecular weight: 440
Origin: L.N.Kulikova, V.G. Zaikin, RPFU, Moscow, Russia
m/z	RELATIVE INTENSITY
26	50
27	250
29	550
39	220
40	40
41	1421
42	540
43	2722
45	50
53	90
54	230
55	2202
56	1501
57	4184
58	210
66	20
67	340
68	390
69	1842
70	1331
71	3053
72	150
73	130
74	300
75	250
81	200
82	581
83	1561
84	831
85	2562
86	150
95	110
96	240
97	1381
98	581
99	971
100	170
101	9098
102	420
103	60
109	30
110	120
111	771
112	390
113	701
114	40
117	30
118	110
119	9999
120	450
121	70
124	40
125	220
126	100
127	520
128	30
138	30
139	50
140	731
141	971
142	80
146	20
154	150
156	160
157	611
158	50
180	20
182	280
183	2192
184	280
227	30
241	20
259	70
283	1221
284	210
300	20
301	1221
302	210
