Mass Spectrum: Succinic acid, 2,3-dimethylphenyl octadecyl ester
Formula: C30 H50 O4
Molecular weight: 474
Origin: L.N.Kulikova, V.G. Zaikin, RPFU, Moscow, Russia
m/z	RELATIVE INTENSITY
26	100
27	320
29	571
38	30
39	340
40	50
41	1631
42	500
43	3583
44	180
50	20
51	100
52	50
53	160
54	230
55	3593
56	1111
57	8297
58	330
63	20
65	110
66	40
67	430
68	330
69	2272
70	781
71	6956
72	360
73	120
74	40
75	30
77	561
78	150
79	330
80	40
81	260
82	370
83	1742
84	470
85	5705
86	340
91	490
92	60
93	110
94	50
95	160
96	110
97	1251
98	260
99	2232
100	200
101	9589
102	440
103	230
104	90
105	520
106	50
107	1451
108	100
109	60
110	60
111	530
112	130
113	1601
114	100
117	30
119	160
120	40
121	821
122	9999
123	2993
124	240
125	210
126	60
127	1211
128	80
129	20
133	20
135	90
139	60
140	30
141	1001
142	70
149	30
153	20
154	20
155	801
156	60
169	691
170	50
176	20
177	300
178	50
183	591
184	40
197	400
198	30
205	2793
206	320
211	170
212	20
223	160
224	20
253	2712
254	530
353	1561
354	350
