Mass Spectrum: Succinic acid, 2-decyl pentadecyl ester
Formula: C29 H56 O4
Molecular weight: 468
Origin: L.N.Kulikova, V.G. Zaikin, RPFU, Moscow, Russia
m/z	RELATIVE INTENSITY
26	50
27	210
29	450
39	200
40	20
41	1161
42	450
43	2292
45	50
53	80
54	210
55	1992
56	1261
57	3453
58	170
67	340
68	370
69	1732
70	1141
71	2552
72	130
73	110
74	240
75	190
81	210
82	601
83	1571
84	721
85	2192
86	130
95	130
96	270
97	1421
98	530
99	761
100	150
101	7987
102	350
103	50
109	50
110	120
111	791
112	360
113	500
114	30
117	30
118	120
119	9999
120	450
121	70
124	50
125	250
126	110
127	440
128	20
138	50
139	90
140	701
141	1051
142	80
146	20
153	30
154	40
155	290
156	170
157	510
158	40
169	120
182	120
210	240
211	2072
212	330
255	30
259	90
311	901
312	170
328	20
329	1131
330	210
