Mass Spectrum: Succinic acid, 4-heptyl hexyl ester
Formula: C17 H32 O4
Molecular weight: 300
Origin: L.N.Kulikova, V.G. Zaikin, RPFU, Moscow, Russia
m/z	RELATIVE INTENSITY
27	30
28	20
29	60
39	60
40	10
41	430
42	170
43	1081
44	80
45	50
53	20
54	40
55	510
56	651
57	1171
58	50
67	40
68	30
69	350
70	230
71	90
72	20
73	160
74	240
75	140
81	10
82	20
83	120
84	230
85	1481
86	100
97	10
98	480
99	210
100	80
101	9999
102	480
103	80
114	210
115	881
116	70
118	10
119	1461
120	70
128	10
158	90
159	30
185	2292
186	260
187	20
199	30
200	10
203	390
204	40
