Mass Spectrum: Succinic acid, butyl 2-heptyl ester
Formula: C15 H28 O4
Molecular weight: 272
Origin: L.N.Kulikova, V.G. Zaikin, RPFU, Moscow, Russia
m/z	RELATIVE INTENSITY
26	20
27	200
28	210
29	530
39	120
40	20
41	801
42	150
43	440
44	30
45	70
53	30
54	40
55	530
56	931
57	1992
58	90
68	20
69	260
70	260
71	50
72	20
73	210
74	400
75	150
83	50
97	20
98	480
99	430
100	150
101	9999
102	440
103	100
114	120
115	410
116	20
119	661
120	20
130	270
131	40
157	3203
158	280
159	30
172	20
174	30
175	591
176	40
199	90
