Mass Spectrum: Malonic acid, 2,4-dimethylpent-3-yl tetradecyl ester
Formula: C24 H46 O4
Molecular weight: 398
Origin: L.N.Kulikova, V.G. Zaikin, RPFU, Moscow, Russia
m/z	RELATIVE INTENSITY
26	80
27	470
28	270
29	681
30	20
31	60
36	30
37	20
39	410
40	90
41	2212
42	711
43	4124
44	550
45	60
50	20
51	20
53	130
54	270
55	2502
56	1551
57	9999
58	430
59	30
60	40
61	130
65	30
66	30
67	470
68	520
69	1862
70	1131
71	2692
72	250
73	460
74	20
77	20
79	50
80	40
81	310
82	841
83	2943
84	701
85	1561
86	110
87	1712
88	40
89	120
93	20
94	20
95	180
96	340
97	1541
98	1391
99	2362
100	190
101	30
102	20
103	30
104	70
105	6176
106	210
107	50
109	80
110	130
111	941
112	320
113	390
114	170
115	1121
116	90
123	40
124	80
125	530
126	190
127	200
128	20
129	20
130	150
131	300
132	30
135	20
138	40
139	260
140	120
141	180
142	20
145	30
147	20
149	340
150	40
153	60
154	60
155	70
159	150
166	20
167	100
168	420
169	40
194	20
195	210
196	811
197	230
209	20
265	210
266	20
281	40
282	20
283	6876
284	1331
285	130
301	60
326	90
327	60
355	500
356	110
