Mass Spectrum: Succinic acid, 2-heptyl octadecyl ester
Formula: C29 H56 O4
Molecular weight: 468
Origin: L.N.Kulikova, V.G. Zaikin, RPFU, Moscow, Russia
m/z	RELATIVE INTENSITY
26	50
27	220
29	470
39	190
40	40
41	1221
42	380
43	2092
44	50
45	50
53	70
54	250
55	1942
56	1341
57	4314
58	190
66	20
67	330
68	390
69	1702
70	971
71	1742
72	90
73	110
74	260
75	190
81	250
82	561
83	1501
84	450
85	1321
86	80
95	140
96	250
97	1301
98	1071
99	971
100	190
101	7927
102	360
103	50
109	60
110	110
111	651
112	190
113	380
114	110
115	370
116	30
117	30
118	190
119	9999
120	430
121	70
123	30
124	70
125	310
126	110
127	320
128	20
138	40
139	120
140	80
141	250
146	20
152	30
153	60
154	60
155	230
167	30
168	40
169	220
181	20
182	30
183	180
196	20
197	120
199	70
211	50
217	210
224	90
250	30
252	170
253	1351
254	270
297	30
352	20
353	370
354	70
370	20
371	330
372	60
