Mass Spectrum: Malonic acid, 2-butyl octadecyl ester
Formula: C25 H48 O4
Molecular weight: 412
Origin: L.N.Kulikova, V.G. Zaikin, RPFU, Moscow, Russia
m/z	RELATIVE INTENSITY
27	60
28	40
29	100
39	100
40	30
41	751
42	190
43	831
44	60
45	70
53	50
54	180
55	1181
56	871
57	2062
58	90
59	30
60	50
61	70
66	20
67	300
68	370
69	1341
70	691
71	1081
72	80
73	150
77	20
79	30
80	30
81	250
82	771
83	1722
84	561
85	771
86	50
87	731
88	20
89	60
91	20
95	190
96	280
97	1601
98	390
99	230
101	20
102	20
103	20
104	50
105	9999
106	360
107	100
109	90
110	150
111	871
112	270
113	140
115	20
116	20
117	50
123	40
124	90
125	510
126	180
127	100
132	20
135	20
138	60
139	190
140	120
141	50
143	40
152	30
153	80
154	90
155	40
161	530
162	30
166	30
167	60
168	70
169	40
181	50
182	40
183	20
194	20
195	20
196	30
224	210
225	20
251	60
252	290
253	30
321	300
322	60
339	310
340	70
357	20
