Mass Spectrum: Succinic acid, 2-hexyl propyl ester
Formula: C13 H24 O4
Molecular weight: 244
Origin: L.N.Kulikova, V.G. Zaikin, RPFU, Moscow, Russia
m/z	RELATIVE INTENSITY
26	30
27	270
28	120
29	310
31	30
39	110
40	20
41	530
42	300
43	1541
44	110
45	120
53	20
54	20
55	530
56	500
57	200
58	30
59	40
67	20
69	230
73	220
74	330
75	240
83	30
84	480
85	771
86	50
97	20
100	220
101	9999
102	450
103	80
116	260
117	40
119	260
129	40
142	20
143	3483
144	270
145	30
158	20
160	20
161	400
162	20
174	20
185	120
