Mass Spectrum: Succinic acid, 2,3-dimethylphenyl isobutyl ester
Formula: C16 H22 O4
Molecular weight: 278
Origin: L.N.Kulikova, V.G. Zaikin, RPFU, Moscow, Russia
m/z	RELATIVE INTENSITY
26	50
27	330
28	250
29	631
38	10
39	270
40	30
41	841
45	40
50	30
51	130
52	60
53	110
55	1451
56	140
57	8918
58	400
63	40
65	150
66	20
67	80
73	190
77	911
78	250
79	440
80	40
81	30
89	20
91	601
92	100
93	90
94	70
95	40
100	30
101	9999
102	490
103	450
104	160
105	671
106	70
107	1922
108	180
114	90
115	20
120	40
121	881
122	8418
123	1431
124	90
135	30
141	50
149	20
157	4324
158	350
159	30
177	380
178	50
205	5335
206	691
207	50
278	40
