Mass Spectrum: Succinic acid, 3,3-dimethylbut-2-yl isohexyl ester
Formula: C16 H30 O4
Molecular weight: 286
Origin: L.N.Kulikova, V.G. Zaikin, RPFU, Moscow, Russia
m/z	RELATIVE INTENSITY
26	20
27	210
28	160
29	410
39	140
40	20
41	831
42	180
43	2933
44	130
45	70
53	50
54	30
55	581
56	701
57	901
58	40
59	30
67	40
69	911
70	90
71	40
73	80
74	240
75	20
83	80
84	1591
85	9999
86	651
87	180
100	70
101	5055
102	230
103	60
114	60
118	120
119	1071
120	40
128	80
129	50
132	140
146	120
147	30
158	220
159	40
173	60
185	550
186	50
202	30
203	40
230	70
271	20
