Mass Spectrum: Succinic acid, hexadecyl 2-methylpent-3-yl ester
Formula: C26 H50 O4
Molecular weight: 426
Origin: L.N.Kulikova, V.G. Zaikin, RPFU, Moscow, Russia
m/z	RELATIVE INTENSITY
26	50
27	230
29	430
39	210
40	10
41	1271
42	400
43	3193
45	20
50	10
51	10
53	60
54	160
55	1672
56	1081
57	3183
58	110
59	20
66	10
67	330
68	340
69	2142
70	841
71	2472
72	80
73	150
74	170
75	160
80	10
81	190
82	561
83	1421
84	1852
85	5865
86	340
91	10
95	110
96	270
97	1121
98	320
99	761
100	270
101	8588
102	350
103	30
109	20
110	80
111	591
112	190
113	631
114	10
118	100
119	9999
120	410
121	40
123	10
124	40
125	240
126	100
127	550
128	10
138	10
139	60
140	80
141	470
142	10
147	10
149	10
153	10
154	40
155	430
156	10
168	10
169	320
183	130
196	70
224	230
225	2232
226	330
227	20
325	891
326	140
327	10
331	10
342	10
343	180
344	10
