Mass Spectrum: Malonic acid, 2-butyl hexyl ester
Formula: C13 H24 O4
Molecular weight: 244
Origin: L.N.Kulikova, V.G. Zaikin, RPFU, Moscow, Russia
m/z	RELATIVE INTENSITY
27	60
28	40
29	120
39	120
40	30
41	1031
42	380
43	1271
53	70
54	110
55	1171
56	2182
57	2622
58	100
60	150
61	360
67	170
68	40
69	500
70	90
71	140
72	50
73	460
74	10
81	20
82	180
83	621
84	1031
85	1621
86	150
87	2482
88	90
89	20
91	190
93	60
97	20
99	50
100	50
101	130
102	20
104	40
105	9999
106	380
107	100
111	440
112	40
113	20
116	30
117	150
125	460
126	30
127	40
129	160
132	20
143	240
144	40
145	30
147	20
153	30
161	100
171	3653
172	370
173	40
189	200
201	30
215	50
