Mass Spectrum: Succinic acid, di(2-methylpent-3-yl) ester
Formula: C16 H30 O4
Molecular weight: 286
Origin: L.N.Kulikova, V.G. Zaikin, RPFU, Moscow, Russia
m/z	RELATIVE INTENSITY
26	10
27	150
28	80
29	200
30	10
31	20
39	80
40	10
41	430
42	70
43	1631
44	40
45	50
53	20
55	210
56	500
57	350
58	40
59	80
67	20
69	440
70	30
71	10
72	10
73	90
74	10
83	30
84	500
85	9999
86	641
87	40
100	90
101	1111
102	60
118	20
119	460
120	10
142	10
143	10
158	40
159	50
185	490
186	50
187	10
202	10
203	20
