Mass Spectrum: Succinic acid, decyl 2-methylpent-3-yl ester
Formula: C20 H38 O4
Molecular weight: 342
Origin: L.N.Kulikova, V.G. Zaikin, RPFU, Moscow, Russia
m/z	RELATIVE INTENSITY
26	80
27	430
29	811
31	20
39	290
40	50
41	1882
42	611
43	4704
45	60
50	10
53	90
54	140
55	1692
56	1241
57	3663
58	150
59	50
67	230
68	260
69	1912
70	781
71	2692
72	110
73	160
74	290
75	250
81	90
82	320
83	761
84	2142
85	7957
86	460
95	40
96	110
97	480
98	180
99	711
100	370
101	9999
102	430
103	40
110	20
111	220
112	200
118	20
119	5695
120	180
121	20
128	10
140	290
141	1962
142	140
149	10
157	10
185	20
214	50
241	1501
242	190
259	150
