Mass Spectrum: Succinic acid, 3-methylbutyl pentyl ester
Formula: C14 H26 O4
Molecular weight: 258
Origin: L.N.Kulikova, V.G. Zaikin, RPFU, Moscow, Russia
m/z	RELATIVE INTENSITY
26	70
27	591
28	380
29	971
30	30
31	40
39	320
40	70
41	1371
42	971
43	4784
44	140
45	170
53	90
54	80
55	1942
56	530
57	200
58	20
67	60
68	80
69	470
70	2783
71	8528
72	450
73	260
74	340
75	130
81	10
82	40
83	120
84	20
85	80
86	10
87	50
89	30
96	30
97	150
98	40
99	40
100	170
101	9999
102	420
103	70
110	10
111	90
112	30
114	50
115	50
118	10
119	1201
120	40
125	40
126	30
127	70
128	110
129	10
139	10
140	10
144	220
145	110
146	10
155	10
169	10
170	30
171	1742
172	140
173	20
182	10
189	731
190	60
215	120
216	20
