Mass Spectrum: Succinic acid, 2-ethylbutyl pentyl ester
Formula: C15 H28 O4
Molecular weight: 272
Origin: L.N.Kulikova, V.G. Zaikin, RPFU, Moscow, Russia
m/z	RELATIVE INTENSITY
26	20
27	250
29	470
30	20
31	20
39	140
41	711
42	480
43	2843
45	20
53	40
54	40
55	721
56	601
57	320
59	20
67	30
68	20
69	751
70	400
71	961
72	40
73	180
74	280
75	130
83	20
84	1692
85	2532
86	180
87	30
100	90
101	9999
102	460
103	90
114	280
115	70
118	20
119	1621
120	60
132	40
144	180
145	30
155	30
171	1101
172	90
173	20
185	80
189	400
190	30
202	30
203	50
243	40
