Mass Spectrum: Succinic acid, 3-hexyl octadecyl ester
Formula: C28 H54 O4
Molecular weight: 454
Origin: L.N.Kulikova, V.G. Zaikin, RPFU, Moscow, Russia
m/z	RELATIVE INTENSITY
26	60
27	240
29	460
39	200
40	30
41	1131
42	510
43	2973
53	70
54	230
55	2062
56	1081
57	2853
58	120
59	30
67	340
68	380
69	1712
70	721
71	1962
72	100
73	130
74	260
75	180
81	230
82	601
83	1611
84	1211
85	2242
86	130
95	150
96	240
97	1321
98	320
99	621
100	220
101	9138
102	400
103	60
109	60
110	120
111	691
112	200
113	470
114	10
118	170
119	9999
120	450
121	70
123	20
124	70
125	320
126	130
127	380
128	40
138	40
139	120
140	90
141	310
146	20
152	20
153	60
154	60
155	280
167	30
168	40
169	270
182	20
183	220
185	140
197	140
203	180
211	60
224	80
250	20
252	170
253	1541
254	300
297	30
352	20
353	440
354	80
370	20
371	260
372	40
