Mass Spectrum: Succinic acid, butyl 2,4-dimethylpent-3-yl ester
Formula: C15 H28 O4
Molecular weight: 272
Origin: L.N.Kulikova, V.G. Zaikin, RPFU, Moscow, Russia
m/z	RELATIVE INTENSITY
26	20
27	240
28	200
29	500
31	10
39	130
40	20
41	761
42	70
43	801
44	110
45	90
53	20
54	10
55	470
56	621
57	2602
58	100
67	10
69	50
70	50
71	300
72	50
73	290
74	130
75	40
83	661
84	50
97	10
98	220
99	1351
100	160
101	9999
102	450
103	60
114	190
115	811
116	40
119	180
130	90
157	3743
158	310
159	10
171	10
174	10
175	50
