Mass Spectrum: Malonic acid, 2,4-dimethylpent-3-yl tridecyl ester
Formula: C23 H44 O4
Molecular weight: 384
Origin: L.N.Kulikova, V.G. Zaikin, RPFU, Moscow, Russia
m/z	RELATIVE INTENSITY
26	60
27	350
28	230
29	581
31	20
39	300
40	70
41	1792
42	601
43	3803
44	310
45	50
53	110
54	240
55	2252
56	1411
57	9999
58	440
59	30
60	50
61	120
65	20
66	30
67	390
68	460
69	1561
70	1011
71	2883
72	280
73	450
77	20
79	40
80	20
81	260
82	801
83	3123
84	731
85	1942
86	130
87	2212
88	70
89	140
91	10
93	20
94	20
95	170
96	350
97	1692
98	1732
99	3183
100	270
101	80
102	40
103	30
104	50
105	7056
106	250
107	60
109	80
110	150
111	1181
112	350
113	500
114	250
115	1712
116	140
123	30
124	80
125	721
126	210
127	310
128	30
130	230
131	470
132	50
138	40
139	170
140	100
141	180
142	30
145	30
152	30
153	50
154	601
155	80
159	140
173	20
180	40
181	380
182	1151
183	360
184	30
199	20
209	20
227	20
251	150
252	20
269	8207
270	1491
271	170
287	110
312	110
313	120
341	561
342	120
