Mass Spectrum: Malonic acid, 2,4-dimethylpent-3-yl nonyl ester
Formula: C19 H36 O4
Molecular weight: 328
Origin: L.N.Kulikova, V.G. Zaikin, RPFU, Moscow, Russia
m/z	RELATIVE INTENSITY
26	20
27	170
28	100
29	270
39	120
40	30
41	791
42	270
43	1461
44	150
45	10
53	40
54	50
55	701
56	530
57	2993
58	120
60	20
61	50
67	110
68	140
69	651
70	470
71	2332
72	200
73	280
79	20
81	110
82	210
83	1822
84	390
85	1932
86	140
87	2012
88	70
89	40
95	60
96	130
97	460
98	1351
99	1942
100	170
101	90
104	30
105	3693
106	130
107	30
111	70
112	80
113	120
114	180
115	1812
116	150
124	40
125	430
126	901
127	460
128	50
129	20
130	240
131	490
132	50
133	40
139	20
140	40
141	80
142	20
143	20
153	160
159	140
167	20
171	20
195	30
213	9999
214	1451
215	150
231	90
256	80
257	130
284	20
285	641
286	110
