Mass Spectrum: Malonic acid, di(2,4-dimethylpent-3-yl) ester
Formula: C17 H32 O4
Molecular weight: 300
Origin: L.N.Kulikova, V.G. Zaikin, RPFU, Moscow, Russia
m/z	RELATIVE INTENSITY
27	280
29	190
39	210
40	30
41	891
42	350
43	1912
45	20
53	50
55	250
56	290
57	7487
58	280
59	20
67	40
69	140
70	40
71	480
72	130
83	851
84	80
87	300
97	50
98	540
99	9999
100	681
101	110
105	30
112	20
113	200
114	70
115	550
116	40
130	270
131	260
132	20
143	30
159	440
160	40
185	130
202	130
203	40
256	20
