Mass Spectrum: Succinic acid, butyl 4-heptyl ester
Formula: C15 H28 O4
Molecular weight: 272
Origin: L.N.Kulikova, V.G. Zaikin, RPFU, Moscow, Russia
m/z	RELATIVE INTENSITY
26	20
27	230
28	210
29	520
30	10
31	20
39	120
40	20
41	751
42	90
43	400
44	90
45	70
53	20
54	30
55	470
56	691
57	1692
58	70
59	10
67	10
68	20
69	230
70	200
71	70
72	30
73	150
74	240
75	80
83	30
84	10
97	10
98	390
99	390
100	110
101	9999
102	430
103	90
114	200
115	761
116	50
119	360
120	10
130	130
131	20
145	10
157	3213
158	280
159	30
174	20
175	340
176	20
199	70
