Mass Spectrum: Succinic acid, di(3-methylbutyl) ester
Formula: C14 H26 O4
Molecular weight: 258
Origin: L.N.Kulikova, V.G. Zaikin, RPFU, Moscow, Russia
m/z	RELATIVE INTENSITY
26	40
27	440
28	230
29	581
30	20
31	20
39	280
40	50
41	981
42	470
43	3553
44	120
45	130
53	80
54	60
55	1772
56	410
57	40
67	20
68	20
69	260
70	3023
71	9999
72	540
73	170
74	80
75	10
85	60
86	10
87	30
89	20
99	50
100	60
101	2863
102	130
103	20
114	50
115	60
119	861
120	30
126	10
127	90
128	170
129	30
144	260
145	190
146	20
155	50
170	40
171	1341
172	130
173	30
189	631
190	60
215	250
216	40
243	20
259	20
