Mass Spectrum: Succinic acid, 2-heptyl nonyl ester
Formula: C20 H38 O4
Molecular weight: 342
Origin: L.N.Kulikova, V.G. Zaikin, RPFU, Moscow, Russia
m/z	RELATIVE INTENSITY
26	30
27	180
28	160
29	400
39	130
40	30
41	941
42	350
43	1531
44	90
45	60
53	50
54	100
55	1181
56	1211
57	3083
58	150
67	90
68	130
69	911
70	841
71	2082
72	110
73	160
74	340
75	230
81	50
82	120
83	460
84	300
85	1491
86	100
96	60
97	380
98	1051
99	671
100	160
101	9999
102	480
103	80
111	40
112	20
114	120
115	540
116	30
117	20
118	50
119	5505
120	260
121	40
126	310
127	1391
128	130
143	20
145	20
146	20
199	150
200	130
201	30
217	90
227	1661
228	240
229	20
245	701
246	90
