Mass Spectrum: Malonic acid, ethyl 3-hexyl ester
Formula: C11 H20 O4
Molecular weight: 216
Origin: L.N.Kulikova, V.G. Zaikin, RPFU, Moscow, Russia
m/z	RELATIVE INTENSITY
26	30
27	320
28	480
29	1201
30	20
31	110
39	160
40	20
41	591
42	460
43	2002
44	200
45	110
53	20
54	30
55	831
56	621
57	761
58	50
59	310
60	140
61	60
67	20
69	310
70	80
71	220
72	30
73	170
83	70
84	581
85	160
86	30
87	841
88	200
100	60
101	831
102	40
105	330
111	160
115	9999
116	581
117	70
118	10
125	50
130	20
133	1051
134	30
143	180
145	20
153	50
171	80
173	110
187	120
