Mass Spectrum: Succinic acid, 2-methylpent-3-yl octadecyl ester
Formula: C28 H54 O4
Molecular weight: 454
Origin: L.N.Kulikova, V.G. Zaikin, RPFU, Moscow, Russia
m/z	RELATIVE INTENSITY
26	50
27	220
29	420
31	10
39	220
40	30
41	1251
42	380
43	3293
44	30
45	30
51	10
53	80
54	200
55	1702
56	1061
57	3243
58	130
59	20
66	10
67	350
68	370
69	2132
70	751
71	2292
72	90
73	120
74	190
75	170
77	10
80	10
81	230
82	561
83	1541
84	1832
85	5525
86	340
91	20
95	140
96	320
97	1231
98	300
99	661
100	230
101	7597
102	330
103	40
109	40
110	100
111	671
112	190
113	641
114	10
118	130
119	9999
120	430
121	40
123	20
124	40
125	300
126	90
127	450
128	10
129	10
138	20
139	90
140	60
141	360
142	10
152	10
153	30
154	40
155	320
156	10
168	20
169	290
170	10
183	240
197	150
203	30
211	110
212	10
224	50
250	10
252	190
253	1932
254	350
255	10
329	30
353	611
354	80
370	20
371	160
372	10
