Mass Spectrum: Succinic acid, 2-decyl dodecyl ester
Formula: C26 H50 O4
Molecular weight: 426
Origin: L.N.Kulikova, V.G. Zaikin, RPFU, Moscow, Russia
m/z	RELATIVE INTENSITY
26	60
27	270
29	601
39	240
40	40
41	1511
42	601
43	2793
45	60
53	90
54	230
55	2352
56	1591
57	4444
58	220
67	350
68	410
69	1972
70	1371
71	3163
72	150
73	150
74	330
75	270
81	270
82	561
83	1441
84	841
85	2793
86	160
95	110
96	230
97	1361
98	601
99	1101
100	190
101	9999
102	450
103	60
109	40
110	110
111	801
112	390
113	741
114	40
117	30
118	90
119	9779
120	440
121	70
123	20
124	20
125	170
126	60
127	310
128	10
137	20
138	40
139	40
140	931
141	811
142	60
146	20
156	180
157	671
158	50
166	20
168	330
169	2392
170	280
185	10
213	20
241	20
242	30
259	70
269	1631
270	260
287	1491
288	240
