Mass Spectrum: Adipic acid, 2,4-dimethylpent-3-yl isohexyl ester
Formula: C19 H36 O4
Molecular weight: 328
Origin: L.N.Kulikova, V.G. Zaikin, RPFU, Moscow, Russia
m/z	RELATIVE INTENSITY
26	40
27	320
29	370
31	20
39	290
40	50
41	1481
42	340
43	3523
44	90
45	70
53	80
54	70
55	2662
56	1141
57	4054
58	190
59	180
60	20
67	110
68	120
69	500
70	70
71	110
72	50
73	190
81	30
82	60
83	1521
84	1361
85	2392
86	150
87	110
98	400
99	561
100	350
101	1031
102	220
103	390
111	2022
112	290
113	30
114	80
115	490
116	70
128	160
129	9999
130	641
131	80
144	50
146	30
147	961
148	50
157	50
158	20
171	380
172	30
184	160
185	20
186	90
187	20
197	20
213	3623
214	460
215	50
227	130
228	10
230	110
231	20
285	60
