Mass Spectrum: Succinic acid, decyl 3-heptyl ester
Formula: C21 H40 O4
Molecular weight: 356
Origin: L.N.Kulikova, V.G. Zaikin, RPFU, Moscow, Russia
m/z	RELATIVE INTENSITY
26	30
27	190
28	190
29	470
39	150
40	30
41	1071
42	360
43	1561
44	40
45	50
53	60
54	130
55	1161
56	1131
57	3443
58	170
59	40
67	140
68	190
69	1001
70	831
71	1812
72	100
73	160
74	270
75	170
81	60
82	190
83	631
84	280
85	2032
86	130
95	20
96	70
97	420
98	971
99	1021
100	110
101	9999
102	450
103	70
110	30
111	200
112	210
113	20
114	290
115	1101
116	80
118	50
119	5595
120	250
121	40
140	310
141	1822
142	190
157	20
185	20
199	100
214	60
215	10
217	30
241	1852
242	270
243	20
259	601
260	80
