Mass Spectrum: Succinic acid, 3-hexyl octyl ester
Formula: C18 H34 O4
Molecular weight: 314
Origin: L.N.Kulikova, V.G. Zaikin, RPFU, Moscow, Russia
m/z	RELATIVE INTENSITY
26	40
27	280
28	200
29	520
31	30
39	150
40	30
41	1001
42	540
43	2152
44	70
45	60
53	50
54	80
55	1021
56	811
57	2412
58	100
59	50
67	80
68	100
69	681
70	390
71	2182
72	110
73	160
74	330
75	210
81	20
82	90
83	320
84	931
85	791
86	40
97	40
100	190
101	9999
102	450
103	70
111	50
112	250
113	1071
114	80
118	20
119	3073
120	120
185	110
186	80
203	20
213	1131
214	120
231	260
232	20
