Mass Spectrum: Malonic acid, 2,4-dimethylpent-3-yl propyl ester
Formula: C13 H24 O4
Molecular weight: 244
Origin: L.N.Kulikova, V.G. Zaikin, RPFU, Moscow, Russia
m/z	RELATIVE INTENSITY
26	20
27	420
29	210
31	60
39	210
40	30
41	961
42	450
43	4394
44	260
45	60
53	30
55	440
56	250
57	1702
58	90
59	50
60	110
61	120
67	30
69	200
70	100
71	520
72	150
73	360
74	20
83	1141
84	80
87	2272
88	70
97	50
98	390
99	1321
100	110
101	70
102	40
105	210
111	60
112	60
113	60
114	70
115	781
116	60
129	9999
130	751
131	190
141	30
147	90
159	80
172	60
173	130
200	30
201	641
202	70
