Mass Spectrum: Succinic acid, 4-methylpent-2-yl nonadecyl ester
Formula: C29 H56 O4
Molecular weight: 468
Origin: L.N.Kulikova, V.G. Zaikin, RPFU, Moscow, Russia
m/z	RELATIVE INTENSITY
26	50
27	200
29	370
39	220
40	50
41	1241
42	400
43	3213
44	180
45	40
53	80
54	210
55	1581
56	931
57	3123
58	140
59	10
65	10
66	20
67	370
68	370
69	2132
70	701
71	1641
72	80
73	120
74	210
75	170
77	10
79	10
80	20
81	240
82	631
83	1581
84	1722
85	4864
86	320
91	20
93	10
94	10
95	170
96	250
97	1281
98	300
99	490
100	150
101	6816
102	300
103	50
109	70
110	130
111	731
112	190
113	370
114	10
116	20
117	30
118	190
119	9999
120	460
121	80
123	30
124	80
125	330
126	130
127	290
128	20
129	30
137	20
138	50
139	140
140	80
141	250
142	10
145	10
146	30
152	30
153	70
154	70
155	200
156	20
157	160
158	10
159	10
166	10
167	40
168	40
169	190
170	10
175	480
176	30
180	10
181	20
182	40
183	190
184	10
185	30
195	10
196	20
197	150
198	20
203	280
204	10
210	10
211	100
212	20
225	50
226	20
238	80
239	10
240	20
254	10
264	20
266	170
267	1131
268	250
281	80
282	10
283	20
296	10
311	40
366	30
367	260
368	50
384	20
385	260
386	40
425	10
453	50
454	10
