Mass Spectrum: Succinic acid, 3,3-dimethylbut-2-yl pentyl ester
Formula: C15 H28 O4
Molecular weight: 272
Origin: L.N.Kulikova, V.G. Zaikin, RPFU, Moscow, Russia
m/z	RELATIVE INTENSITY
26	40
27	270
29	540
39	170
40	30
41	931
42	360
43	2762
44	170
45	90
53	50
54	20
55	530
56	470
57	751
58	30
67	30
68	20
69	831
70	440
71	1171
72	60
73	140
74	410
75	260
83	40
84	651
85	3944
86	280
87	110
100	120
101	9999
102	440
103	80
118	30
119	811
120	30
128	130
129	60
144	460
145	130
171	1982
172	190
173	20
188	40
189	110
216	90
217	20
257	20
