Mass Spectrum: Succinic acid, 2-methylpent-3-yl tetradecyl ester
Formula: C24 H46 O4
Molecular weight: 398
Origin: L.N.Kulikova, V.G. Zaikin, RPFU, Moscow, Russia
m/z	RELATIVE INTENSITY
26	20
27	60
29	130
31	10
39	100
41	791
42	220
43	2152
45	10
51	20
52	40
53	50
54	80
55	1141
56	821
57	2602
58	60
59	10
67	260
68	230
69	1852
70	681
71	2112
72	50
73	130
74	180
75	150
77	10
78	10
79	60
81	130
82	390
83	1121
84	1982
85	6426
86	320
95	60
96	210
97	971
98	280
99	781
100	320
101	8528
102	340
103	20
109	10
110	60
111	480
112	170
113	671
114	10
118	80
119	9999
120	350
121	30
124	20
125	190
126	80
127	601
128	30
129	10
135	10
139	40
140	30
141	460
149	10
153	10
155	170
164	10
168	100
196	260
197	2532
198	290
203	10
241	10
253	10
297	1231
298	150
315	210
316	10
