Mass Spectrum: Succinic acid, 3,3-dimethylbut-2-yl octadecyl ester
Formula: C28 H54 O4
Molecular weight: 454
Origin: L.N.Kulikova, V.G. Zaikin, RPFU, Moscow, Russia
m/z	RELATIVE INTENSITY
26	60
27	210
29	430
38	10
39	240
40	50
41	1541
42	380
43	3583
44	170
45	30
51	20
53	90
54	200
55	1762
56	991
57	3543
58	150
66	10
67	360
68	370
69	2312
70	771
71	1942
72	90
73	90
74	270
75	280
79	30
81	210
82	601
83	1471
84	1742
85	7597
86	510
87	60
91	20
95	140
96	250
97	1231
98	300
99	621
100	130
101	6516
102	280
103	50
109	50
110	120
111	661
112	190
113	450
114	20
118	200
119	9999
120	440
121	80
123	20
124	70
125	310
126	120
127	340
128	160
129	140
138	40
139	120
140	90
141	300
142	20
146	40
147	100
152	20
153	60
154	60
155	260
166	20
167	30
168	50
169	240
170	10
182	30
183	190
185	20
196	20
197	130
203	30
211	50
224	100
250	20
252	250
253	1361
254	280
297	60
326	20
352	20
353	380
354	70
370	40
371	80
399	10
439	140
440	20
