Mass Spectrum: Malonic acid, hexadecyl isobutyl ester
Formula: C23 H44 O4
Molecular weight: 384
Origin: L.N.Kulikova, V.G. Zaikin, RPFU, Moscow, Russia
m/z	RELATIVE INTENSITY
27	50
28	80
29	200
39	80
40	20
41	641
42	200
43	911
53	30
54	160
55	1111
56	881
57	3853
58	190
60	40
61	30
67	260
68	300
69	1191
70	611
71	931
72	60
73	20
81	190
82	470
83	1311
84	400
85	611
86	40
87	631
88	20
89	40
91	20
95	120
96	190
97	1081
98	310
99	170
100	20
102	20
104	50
105	9999
106	360
107	90
109	60
110	90
111	611
112	200
113	110
115	10
118	110
119	70
123	20
124	50
125	310
126	120
127	80
130	30
131	30
132	30
138	30
139	130
140	80
141	60
143	120
145	50
153	30
154	50
155	30
160	20
161	2462
162	190
163	20
167	20
168	30
169	20
196	120
223	60
224	120
225	40
293	150
294	30
311	50
329	20
369	50
