Mass Spectrum: Malonic acid, 2-heptyl undecyl ester
Formula: C21 H40 O4
Molecular weight: 356
Origin: L.N.Kulikova, V.G. Zaikin, RPFU, Moscow, Russia
m/z	RELATIVE INTENSITY
26	20
27	120
29	260
39	90
40	20
41	581
42	240
43	951
44	40
45	30
53	30
54	90
55	801
56	731
57	1922
58	80
60	20
61	60
67	120
68	170
69	751
70	601
71	691
72	40
81	100
82	340
83	791
84	400
85	801
86	50
87	691
88	20
89	30
95	70
96	180
97	931
98	1201
99	561
100	40
102	40
103	210
104	40
105	9999
106	350
107	90
109	30
110	60
111	400
112	140
113	150
114	100
115	500
116	40
124	40
125	210
126	510
127	60
132	20
139	20
152	30
153	260
154	731
155	260
156	20
159	30
167	20
175	80
181	20
185	40
203	60
223	20
241	1932
242	290
243	50
259	280
260	40
285	20
