Mass Spectrum: Succinic acid, 3-methylbutyl pentadecyl ester
Formula: C24 H46 O4
Molecular weight: 398
Origin: L.N.Kulikova, V.G. Zaikin, RPFU, Moscow, Russia
m/z	RELATIVE INTENSITY
26	40
27	230
29	520
30	10
31	10
39	210
40	40
41	1241
42	460
43	3153
45	20
53	80
54	210
55	2062
56	821
57	2002
58	80
66	10
67	280
68	300
69	1351
70	1802
71	9999
72	571
73	130
74	130
75	50
81	150
82	320
83	1031
84	330
85	811
86	50
87	10
89	60
95	80
96	130
97	791
98	230
99	300
100	40
101	5245
102	250
103	40
109	30
110	70
111	360
112	130
113	210
114	30
115	20
116	10
117	10
118	30
119	2612
120	120
121	10
124	30
125	140
126	100
127	200
128	120
129	50
138	20
139	40
140	60
141	160
144	50
145	80
146	20
147	20
152	10
153	20
154	40
155	120
156	10
168	10
169	60
170	50
171	2212
172	220
173	30
182	70
188	10
189	4154
190	420
191	30
210	60
211	500
212	90
216	50
226	30
229	20
240	20
254	20
257	10
268	10
310	30
311	90
312	10
313	10
329	220
330	30
355	140
356	20
383	60
384	10
