Mass Spectrum: Malonic acid, 3-hexyl tridecyl ester
Formula: C22 H42 O4
Molecular weight: 370
Origin: L.N.Kulikova, V.G. Zaikin, RPFU, Moscow, Russia
m/z	RELATIVE INTENSITY
26	90
27	370
28	240
29	601
31	90
38	20
39	320
40	80
41	1722
42	831
43	3533
44	260
45	40
51	30
53	130
54	310
55	2612
56	1521
57	3023
58	150
59	250
60	50
61	120
66	30
67	420
68	530
69	1982
70	1041
71	1782
72	100
73	160
77	40
79	70
80	30
81	280
82	821
83	1722
84	1621
85	1982
86	100
87	1191
89	60
91	20
95	140
96	180
97	1481
98	430
99	380
100	160
101	641
102	40
103	30
104	40
105	9999
106	340
107	70
109	50
110	140
111	901
112	290
113	220
115	30
116	20
117	50
123	20
124	50
125	450
126	180
127	140
128	10
131	50
138	20
139	70
140	50
141	40
147	20
153	40
154	450
155	20
171	30
181	180
182	621
183	160
189	60
208	20
251	40
269	1882
270	280
271	20
287	40
