Mass Spectrum: Malonic acid, dodecyl 2-heptyl ester
Formula: C22 H42 O4
Molecular weight: 370
Origin: L.N.Kulikova, V.G. Zaikin, RPFU, Moscow, Russia
m/z	RELATIVE INTENSITY
26	20
27	110
29	240
39	90
40	20
41	581
42	240
43	1021
44	40
45	70
53	40
54	130
55	1151
56	1031
57	2632
58	130
59	20
60	30
61	70
67	210
68	310
69	1251
70	891
71	1121
72	60
81	150
82	490
83	1111
84	500
85	831
86	50
87	731
88	20
89	50
95	80
96	220
97	1051
98	1241
99	510
100	40
102	40
103	190
104	50
105	9999
106	360
107	80
109	40
110	90
111	631
112	220
113	210
114	100
115	440
116	40
124	40
125	250
126	100
127	90
132	20
138	20
139	80
140	460
141	60
159	30
166	30
167	300
168	681
169	220
170	20
175	50
185	40
203	60
237	40
255	1391
256	220
257	20
273	230
274	30
