Mass Spectrum: Malonic acid, 3-methylpent-2-yl tridecyl ester
Formula: C22 H42 O4
Molecular weight: 370
Origin: L.N.Kulikova, V.G. Zaikin, RPFU, Moscow, Russia
m/z	RELATIVE INTENSITY
26	80
27	370
28	340
29	861
30	30
39	340
40	90
41	2142
42	741
43	6075
44	200
45	130
51	20
53	140
54	310
55	2522
56	1531
57	4474
58	200
59	30
60	90
61	170
65	20
66	30
67	470
68	550
69	2933
70	1121
71	2292
72	170
73	40
77	30
79	40
80	30
81	290
82	1011
83	1942
84	4264
85	9549
86	661
87	991
88	30
89	150
93	20
95	190
96	390
97	1832
98	581
99	550
100	170
101	961
102	80
103	30
104	100
105	9999
106	350
107	90
109	80
110	180
111	1281
112	360
113	350
114	30
115	60
116	60
117	40
123	40
124	90
125	741
126	270
127	260
128	20
131	20
132	90
133	70
138	40
139	190
140	110
141	80
142	20
144	170
145	240
152	30
153	50
154	661
155	80
180	40
181	681
182	1131
183	320
184	20
189	60
251	240
252	30
269	2062
270	340
271	30
287	90
313	20
326	140
327	30
