Mass Spectrum: Silane, (dotriacontyloxy)trimethyl-
Formula: C35 H74 O Si
Molecular weight: 538
Origin: NIST Mass Spectrometry Data Center
m/z	RELATIVE INTENSITY
27	110
29	420
30	10
31	10
39	140
40	40
41	1772
42	510
43	5515
44	150
45	240
46	20
47	110
53	100
54	360
55	3853
56	1071
57	7967
58	450
59	490
60	60
61	961
62	70
63	40
65	30
66	40
67	781
68	661
69	3253
70	801
71	4254
72	370
73	4314
74	440
75	9559
76	671
77	801
78	60
79	120
80	70
81	851
82	861
83	3753
84	470
85	2762
86	210
87	240
88	180
89	1792
90	210
91	3093
92	270
93	170
94	40
95	751
96	520
97	3733
98	390
99	1021
100	130
101	911
102	130
103	4804
104	450
105	200
107	50
108	10
109	380
110	190
111	1782
112	220
113	661
114	110
115	721
116	90
117	90
118	30
121	40
122	20
123	180
124	100
125	731
126	120
127	290
128	60
129	681
130	90
131	80
135	30
136	10
137	80
138	60
139	250
140	60
141	160
142	30
143	200
144	20
145	70
149	10
150	10
151	30
152	30
153	140
154	40
155	80
156	10
157	80
158	10
159	20
166	20
167	60
168	20
169	50
170	10
171	70
172	10
173	10
180	10
181	40
182	20
183	30
184	10
185	80
186	20
187	10
194	10
195	30
196	10
197	20
198	10
199	70
200	10
201	10
211	10
213	60
214	10
223	20
224	10
225	10
227	50
228	10
229	10
236	10
237	10
238	10
239	10
241	50
242	10
243	10
250	10
251	10
252	10
255	60
256	10
257	10
265	10
266	10
269	50
270	20
271	10
279	10
283	70
284	10
285	10
292	10
293	10
297	70
298	20
306	10
307	10
309	10
311	70
312	20
320	10
321	10
323	10
325	80
326	10
339	70
340	20
348	10
349	10
353	80
354	30
362	10
365	10
367	90
368	20
369	10
381	110
382	30
383	10
395	100
396	30
397	20
409	80
410	30
411	10
420	20
423	70
424	20
425	10
437	30
438	20
439	20
448	30
449	10
451	20
452	10
453	10
465	10
493	10
497	10
503	10
506	10
507	190
508	90
509	20
510	10
521	40
523	9999
524	4174
525	1191
526	250
527	40
528	10
537	20
538	10
