Mass Spectrum: 1-Heptacosanol,TMS derivative
Formula: C30 H64 O Si
Molecular weight: 468
Origin: NIST Mass Spectrometry Data Center
m/z	RELATIVE INTENSITY
27	70
29	290
30	10
31	10
39	90
41	1151
42	290
43	3043
44	110
45	160
46	10
47	70
53	70
54	190
55	2112
56	571
57	3813
58	260
59	320
60	40
61	641
62	40
63	20
65	10
66	20
67	440
68	310
69	1712
70	380
71	1792
72	190
73	2622
74	280
75	5685
76	410
77	430
78	30
79	70
80	30
81	430
82	400
83	1942
84	240
85	1201
86	100
87	150
88	100
89	1131
90	120
91	1281
92	110
93	70
94	20
95	360
96	240
97	1952
98	210
99	500
100	60
101	581
102	80
103	2762
104	270
105	110
106	10
107	30
109	190
110	90
111	971
112	130
113	300
114	60
115	420
116	60
117	50
118	20
121	20
123	80
124	50
125	380
126	60
127	150
128	30
129	340
130	40
131	50
132	10
135	10
137	40
138	30
139	120
140	30
141	80
142	10
143	100
144	10
145	40
151	20
152	20
153	60
154	20
155	40
156	10
157	60
159	20
165	10
166	10
167	30
168	10
169	20
171	50
172	10
173	10
180	10
181	20
182	10
183	10
185	50
186	10
195	20
196	10
197	10
199	40
200	10
209	10
210	10
213	30
223	10
225	10
227	30
228	10
229	10
237	10
241	40
242	10
251	10
255	40
256	10
269	40
270	10
283	50
284	10
285	10
297	50
298	10
299	10
311	50
312	10
325	70
326	20
327	10
339	70
340	20
350	20
353	60
354	20
355	10
367	50
368	10
369	10
378	20
381	20
383	10
395	10
425	10
437	150
438	60
439	20
451	20
453	9999
454	3703
455	1011
456	190
457	20
467	10
468	10
