Mass Spectrum: 2-[2-[2-(2-Butoxyethoxy)ethoxy]ethoxy]ethyl 2,2,2-trifluoroacetate
Formula: C14 H25 F3 O6
Molecular weight: 346
Origin: NIST Mass Spectrometry Data Center, 2007
m/z	RELATIVE INTENSITY
15	70
16	10
19	30
26	50
27	390
28	731
29	1411
30	130
31	290
32	10
33	10
38	10
39	160
40	30
41	1672
42	240
43	1091
44	611
45	3133
46	80
47	861
48	20
50	30
51	30
53	30
54	10
55	390
56	1191
57	4724
58	671
59	1271
60	60
61	20
63	10
67	10
69	1682
70	130
71	320
72	801
73	781
74	40
75	1131
76	40
77	10
78	30
81	10
82	30
83	100
85	1131
86	110
87	891
88	320
89	721
90	60
91	10
93	10
95	10
97	160
98	80
99	130
100	991
101	1591
102	170
103	561
104	30
105	10
112	10
113	280
114	30
115	190
116	40
117	250
118	20
119	120
120	10
122	40
123	30
127	10
128	10
129	50
130	10
131	430
132	40
133	10
139	10
141	9999
142	440
143	50
144	140
145	100
146	10
147	10
161	10
163	10
175	10
177	10
184	170
185	140
186	10
215	10
228	30
229	90
230	10
259	20
273	10
