Mass Spectrum: Heneicosyl acetate
Formula: C23 H46 O2
Molecular weight: 354
Origin: NIST Mass Spectrometry Data Center
m/z	RELATIVE INTENSITY
15	30
26	20
27	230
28	90
29	801
30	20
38	10
39	310
40	80
41	3253
42	1011
43	9999
44	310
45	70
51	20
52	10
53	210
54	831
55	5795
56	2883
57	6236
58	370
59	80
61	5115
62	110
63	20
65	40
66	90
67	1121
68	1521
69	4604
70	2492
71	2983
72	180
73	430
74	20
77	40
78	10
79	120
80	70
81	801
82	2943
83	6005
84	1842
85	1912
86	140
87	60
88	20
91	20
93	30
94	40
95	490
96	1451
97	5865
98	1371
99	490
100	50
101	70
102	30
107	10
108	10
109	210
110	550
111	3273
112	881
113	280
114	30
115	20
116	360
117	20
122	20
123	120
124	360
125	1581
126	540
127	160
128	20
129	20
130	50
136	10
137	80
138	230
139	581
140	340
141	110
142	10
143	10
151	20
152	150
153	280
154	200
155	50
156	10
165	10
166	100
167	150
168	140
169	40
170	10
180	70
181	80
182	100
183	20
194	50
195	60
196	70
197	20
208	40
209	30
210	50
211	10
222	20
223	20
224	30
225	10
236	20
237	10
238	30
239	10
250	10
251	10
252	10
264	10
265	10
266	160
267	40
268	10
292	10
294	150
295	40
339	10
