Mass Spectrum: 2-[2-[2-[2-[2-[2-[2-[2-[2-[2-(2-Acetyloxyethoxy)ethoxy]ethoxy]ethoxy]ethoxy]ethoxy]ethoxy]ethoxy]ethoxy]ethoxy]ethyl acetate
Formula: C26 H50 O14
Molecular weight: 586
Origin: NIST Mass Spectrometry Data Center, 2007
m/z	RELATIVE INTENSITY
15	40
19	10
26	20
27	50
28	170
29	150
30	40
31	110
41	90
42	130
43	2112
44	290
45	1151
46	30
55	10
56	20
57	110
58	260
59	420
60	20
61	30
68	10
69	30
70	170
71	200
72	280
73	611
74	30
75	30
80	20
83	10
84	10
85	20
86	260
87	9999
88	601
89	591
90	30
91	10
97	10
99	80
100	30
101	240
102	70
103	310
104	20
105	50
107	10
112	10
113	70
114	70
115	100
116	50
117	230
118	20
119	10
129	20
130	50
131	530
132	50
133	290
134	20
141	10
145	30
147	90
148	10
157	20
158	10
159	80
160	10
161	20
174	30
175	270
176	30
177	60
178	10
189	10
201	20
202	10
203	20
205	10
219	180
220	20
221	10
247	10
263	20
307	10
