Mass Spectrum: 2-[2-[2-[2-[2-[2-[2-(2-Acetyloxyethoxy)ethoxy]ethoxy]ethoxy]ethoxy]ethoxy]ethoxy]ethyl acetate
Formula: C20 H38 O11
Molecular weight: 454
Origin: NIST Mass Spectrometry Data Center, 2007
m/z	RELATIVE INTENSITY
15	40
19	10
26	10
27	50
28	190
29	160
30	40
31	110
41	70
42	140
43	2672
44	270
45	941
46	20
55	10
56	20
57	110
58	220
59	320
60	20
61	30
69	20
70	180
71	160
72	180
73	450
74	30
75	30
80	10
83	10
84	10
85	20
86	270
87	9999
88	561
89	350
90	10
97	10
99	80
100	30
101	210
102	50
103	210
104	10
105	40
113	20
114	60
115	70
116	20
117	140
118	20
119	10
129	10
130	40
131	410
132	40
133	100
134	10
145	20
147	30
149	10
157	10
158	10
159	40
161	10
163	10
174	30
175	160
176	30
177	20
189	10
201	10
203	10
219	70
220	10
