Mass Spectrum: 1-Heptacosanol, TBDMS derivative
Formula: C33 H70 O Si
Molecular weight: 510
Origin: NIST Mass Spectrometry Data Center
m/z	RELATIVE INTENSITY
27	50
29	220
39	80
41	861
42	210
43	2282
44	60
45	90
47	70
53	40
54	120
55	1461
56	380
57	3243
58	230
59	390
60	50
61	550
62	40
63	20
65	10
66	20
67	340
68	150
69	1381
70	230
71	1621
72	120
73	1521
75	6646
76	490
77	490
78	30
79	60
80	20
81	390
82	190
83	1682
84	160
85	1141
86	90
87	160
88	120
89	1641
90	140
91	70
92	10
93	30
94	10
95	350
96	130
97	1762
98	160
99	571
100	90
101	701
102	80
103	80
104	10
107	30
108	10
109	180
110	50
111	871
112	90
113	330
114	70
115	831
116	90
117	70
118	10
119	20
121	30
123	80
124	20
125	320
126	40
127	160
128	40
129	280
130	30
131	60
132	40
133	160
134	20
135	20
137	30
138	10
139	100
140	10
141	80
142	20
143	110
144	20
145	30
149	10
151	10
153	50
154	10
155	40
156	10
157	60
158	10
159	10
165	10
167	20
169	20
171	60
172	10
173	10
181	10
183	10
185	50
186	10
187	10
195	10
197	10
199	40
200	10
209	10
211	10
213	40
214	10
223	10
225	10
227	40
228	10
237	10
239	10
241	40
243	10
255	50
256	10
269	50
270	10
271	10
283	50
284	10
285	10
297	60
298	10
299	10
311	70
312	20
313	10
325	70
326	20
327	10
339	80
340	20
341	10
353	70
354	20
355	10
367	50
368	20
369	10
381	30
382	10
383	10
395	10
423	10
437	120
438	40
439	10
451	40
453	9999
454	3693
455	1001
456	190
457	30
495	40
496	20
497	10
509	10
