Mass Spectrum: 2-[2-(2-Ethoxyethoxy)ethoxy]ethyl acetate
Formula: C10 H20 O5
Molecular weight: 220
Origin: NIST Mass Spectrometry Data Center, 2007
m/z	RELATIVE INTENSITY
14	20
15	230
16	10
19	70
26	70
27	510
28	661
29	1231
30	130
31	1331
32	20
33	10
39	10
40	10
41	190
42	330
43	7046
44	851
45	5545
46	130
47	20
55	30
56	50
57	170
58	350
59	2612
60	110
61	170
62	10
69	10
70	210
71	130
72	3833
73	3303
74	190
75	90
76	10
85	10
86	160
87	9999
88	791
89	310
90	20
91	10
99	70
100	20
101	260
102	30
103	921
104	50
105	10
114	30
115	30
116	180
117	250
118	370
119	30
129	10
130	30
131	70
132	10
133	50
147	30
161	10
177	10
