Mass Spectrum: Docosanol, TBDMS derivative
Formula: C28 H60 O Si
Molecular weight: 440
Origin: NIST Mass Spectrometry Data Center
m/z	RELATIVE INTENSITY
27	50
29	220
30	10
39	70
41	781
42	180
43	1752
44	60
45	90
46	10
47	70
53	40
54	100
55	1131
56	250
57	2082
58	190
59	390
60	50
61	470
62	30
63	20
65	10
66	10
67	270
68	110
69	1071
70	140
71	971
72	80
73	1341
75	5785
76	430
77	380
78	20
79	50
80	20
81	290
82	130
83	1381
84	120
85	751
86	70
87	160
88	100
89	1481
90	130
91	70
92	10
93	30
94	10
95	260
96	90
97	1431
98	120
99	410
100	70
101	621
102	80
103	70
104	10
107	20
109	130
110	30
111	701
112	70
113	220
114	40
115	621
116	60
117	60
119	10
121	20
123	50
124	10
125	250
126	30
127	100
128	20
129	230
130	30
131	60
132	30
133	60
134	10
135	10
137	20
138	10
139	60
140	10
141	50
142	10
143	90
144	10
145	30
151	10
153	40
154	10
155	20
156	10
157	50
158	10
159	10
165	10
167	20
169	10
171	50
172	10
173	10
181	10
183	10
185	50
186	10
187	10
195	10
199	40
200	10
209	10
211	10
213	40
214	10
227	40
241	40
242	10
255	50
256	10
269	60
270	10
271	10
283	60
284	20
285	10
297	60
298	20
299	10
311	40
312	10
313	10
325	20
353	10
367	90
368	30
369	10
381	30
383	9999
384	3203
385	831
386	140
387	20
425	60
426	20
439	10
