Mass Spectrum: 1-Tricosanol, TBDMS derivative
Formula: C29 H62 O Si
Molecular weight: 454
Origin: NIST Mass Spectrometry Data Center
m/z	RELATIVE INTENSITY
27	60
29	250
31	10
39	80
40	20
41	901
42	210
43	2102
44	60
45	100
46	10
47	90
53	40
54	110
55	1351
56	290
57	2612
58	220
59	420
60	50
61	550
62	40
63	20
65	10
66	10
67	310
68	130
69	1251
70	170
71	1211
72	100
73	1521
75	6666
76	500
77	450
78	30
79	60
80	20
81	340
82	150
83	1591
84	140
85	891
86	80
87	170
88	120
89	1682
90	140
91	70
92	10
93	30
94	10
95	310
96	110
97	1661
98	140
99	480
100	80
101	711
102	80
103	80
104	10
107	30
108	10
109	150
110	40
111	801
112	80
113	270
114	50
115	731
116	80
117	70
118	10
119	10
121	20
123	60
124	20
125	280
126	30
127	120
128	30
129	260
130	30
131	60
132	30
133	80
134	10
135	10
137	20
138	10
139	80
140	10
141	60
142	10
143	100
144	10
145	30
151	10
153	40
154	10
155	30
156	10
157	60
158	10
159	10
165	10
167	20
169	20
171	60
172	10
173	10
181	10
183	10
185	50
186	10
187	10
195	10
197	10
199	40
200	10
201	10
209	10
213	40
214	10
215	10
223	10
227	40
228	10
237	10
241	40
242	10
255	50
256	10
257	10
269	60
270	10
271	10
283	70
284	10
285	10
297	80
298	20
299	10
311	60
312	20
313	10
325	30
326	10
327	10
339	10
367	10
381	110
382	30
383	10
395	40
397	9999
398	3283
399	861
400	150
401	20
439	60
440	20
441	10
453	10
