Mass Spectrum: Tricosyl acetate
Formula: C25 H50 O2
Molecular weight: 382
Origin: NIST Mass Spectrometry Data Center
m/z	RELATIVE INTENSITY
15	40
26	20
27	230
28	90
29	831
30	20
37	10
38	10
39	290
40	70
41	3083
42	991
43	9999
44	300
45	50
51	20
52	10
53	180
54	791
55	5735
56	2793
57	6756
58	390
59	80
61	5225
62	110
63	20
65	30
66	100
67	1101
68	1541
69	4684
70	2432
71	3323
72	190
73	370
74	10
75	10
77	30
78	10
79	110
80	70
81	871
82	3073
83	6015
84	1782
85	2152
86	160
87	50
88	20
91	20
92	10
93	30
94	40
95	550
96	1571
97	6186
98	1341
99	581
100	40
101	60
102	20
107	10
108	10
109	250
110	591
111	3433
112	831
113	330
114	40
115	20
116	330
117	20
121	10
122	20
123	150
124	390
125	1702
126	530
127	200
128	20
129	20
130	50
136	10
137	100
138	280
139	691
140	320
141	130
142	20
151	20
152	170
153	350
154	230
155	80
156	10
165	10
166	120
167	200
168	150
169	50
170	10
179	10
180	80
181	120
182	110
183	30
184	10
194	70
195	70
196	80
197	20
208	40
209	40
210	50
211	10
222	40
223	30
224	30
225	10
236	30
237	20
238	30
239	10
250	30
251	20
252	30
253	10
264	20
265	20
266	20
278	10
279	10
280	10
292	10
293	10
294	150
295	40
296	10
320	10
322	140
323	30
324	10
367	10
