Mass Spectrum: 2-[2-[2-[2-(2-Butoxyethoxy)ethoxy]ethoxy]ethoxy]ethyl acetate
Formula: C16 H32 O7
Molecular weight: 336
Origin: NIST Mass Spectrometry Data Center, 2007
m/z	RELATIVE INTENSITY
14	10
15	90
19	30
26	30
27	240
28	470
29	931
30	90
31	240
39	100
40	20
41	1021
42	290
43	3803
44	530
45	2762
46	60
47	10
51	10
53	20
54	10
55	260
56	691
57	2752
58	510
59	881
60	50
61	60
62	10
63	10
67	10
68	10
69	70
70	220
71	260
72	681
73	801
74	50
75	420
76	20
77	30
82	20
83	90
84	10
85	561
86	320
87	9999
88	701
89	971
90	70
91	10
97	10
98	60
99	150
100	390
101	1421
102	150
103	631
104	40
105	40
107	10
113	20
114	50
115	170
116	50
117	330
118	40
119	70
121	20
128	10
129	50
130	50
131	430
132	40
133	130
143	10
144	60
145	230
146	30
147	80
148	10
149	20
159	30
160	10
161	30
163	40
174	20
175	100
176	20
177	10
189	10
191	10
193	10
205	10
219	20
