Mass Spectrum: 1-Eicosanol, TMS derivative
Formula: C23 H50 O Si
Molecular weight: 370
Origin: NIST Mass Spectrometry Data Center
m/z	RELATIVE INTENSITY
27	50
29	180
39	50
41	611
42	140
43	1161
44	50
45	110
46	10
47	60
53	40
54	80
55	831
56	200
57	1151
58	110
59	190
60	30
61	330
62	20
63	10
65	10
66	10
67	200
68	120
69	761
70	150
71	571
72	90
73	1571
74	170
75	3093
76	230
77	200
78	10
79	30
80	10
81	190
82	160
83	971
84	110
85	420
86	40
87	90
88	60
89	701
90	80
91	430
92	40
93	30
94	10
95	150
96	90
97	991
98	110
99	220
100	30
101	370
102	50
103	1571
104	150
105	60
107	10
109	70
110	30
111	490
112	60
113	120
114	20
115	250
116	30
117	30
118	10
121	10
123	30
124	20
125	180
126	30
127	60
128	10
129	180
130	20
131	30
137	10
138	10
139	60
140	20
141	30
142	10
143	60
144	10
145	20
151	10
152	10
153	30
154	10
155	10
157	40
158	10
159	10
166	10
167	10
168	10
169	10
171	30
172	10
173	10
181	10
182	10
185	30
186	10
195	10
199	30
209	10
213	30
227	30
228	10
241	40
242	10
252	20
255	50
256	10
269	50
270	10
271	10
280	20
281	10
283	30
284	10
285	10
297	20
327	10
339	120
340	30
341	10
353	20
355	9999
356	3023
357	781
358	130
359	10
369	10
370	10
