Mass Spectrum: 2-Ethoxyethanol, trifluoroacetate
Formula: C6 H9 F3 O3
Molecular weight: 186
Origin: NIST Mass Spectrometry Data Center, 2007
m/z	RELATIVE INTENSITY
14	130
15	761
16	50
19	170
20	10
25	20
26	591
27	3103
28	1491
29	6766
30	390
31	8548
32	110
33	60
35	20
39	20
41	611
42	360
43	2252
44	1762
45	4414
46	120
47	1852
48	40
50	530
51	170
55	10
57	100
59	9248
60	320
61	30
62	10
64	30
65	120
67	20
69	9999
70	100
72	4094
73	410
74	20
76	20
78	260
80	50
83	10
87	10
89	30
91	60
93	50
95	110
96	10
97	751
98	20
99	310
100	10
109	60
112	50
113	430
115	150
119	791
120	30
127	40
128	390
129	20
139	80
141	6035
142	270
143	30
157	110
