Mass Spectrum: 2-[2-[2-[2-[2-[2-[2-[2-[2-(2-Acetyloxyethoxy)ethoxy]ethoxy]ethoxy]ethoxy]ethoxy]ethoxy]ethoxy]ethoxy]ethyl acetate
Formula: C24 H46 O13
Molecular weight: 542
Origin: NIST Mass Spectrometry Data Center, 2007
m/z	RELATIVE INTENSITY
15	30
19	10
26	10
27	50
28	160
29	140
30	30
31	110
41	90
42	130
43	2242
44	280
45	1071
46	30
55	10
56	20
57	110
58	250
59	400
60	20
61	30
68	10
69	30
70	180
71	190
72	260
73	571
74	30
75	30
80	20
83	10
84	10
85	20
86	260
87	9999
88	611
89	520
90	20
91	10
97	10
99	80
100	30
101	240
102	70
103	290
104	20
105	50
107	10
113	50
114	80
115	90
116	40
117	210
118	20
119	10
121	10
129	10
130	50
131	520
132	40
133	220
134	10
145	30
147	70
148	10
149	10
157	10
158	10
159	70
160	10
161	20
163	10
174	30
175	240
176	30
177	40
189	10
201	10
203	20
219	130
220	20
263	10
