Mass Spectrum: 1-Triacontanol, TBDMS derivative
Formula: C36 H76 O Si
Molecular weight: 552
Origin: NIST Mass Spectrometry Data Center
m/z	RELATIVE INTENSITY
27	80
29	340
30	10
39	120
40	30
41	1291
42	320
43	3924
44	110
45	130
46	10
47	100
53	60
54	200
55	2392
56	671
57	5925
58	380
59	571
60	60
61	861
62	50
63	30
65	10
66	30
67	540
68	270
69	2192
70	410
71	2953
72	200
73	2282
75	9999
76	741
77	801
78	40
79	90
80	50
81	631
82	330
83	2652
84	280
85	2052
86	150
87	230
88	170
89	2412
90	220
91	110
92	10
93	50
94	30
95	561
96	210
97	2722
98	250
99	931
100	140
101	1001
102	120
103	120
104	10
106	10
107	40
108	10
109	290
110	70
111	1331
112	140
113	540
114	100
115	1301
116	140
117	110
118	10
119	40
120	10
121	40
122	10
123	130
124	40
125	530
126	60
127	270
128	60
129	420
130	50
131	80
132	60
133	320
134	50
135	30
137	50
138	10
139	160
140	30
141	130
142	20
143	180
144	20
145	40
149	10
151	30
153	70
154	10
155	60
157	100
158	10
159	20
165	10
167	40
168	10
169	40
170	10
171	80
172	10
173	10
181	20
182	10
183	20
185	70
186	10
187	10
195	20
197	10
199	60
200	10
201	10
211	10
213	60
214	10
215	10
223	10
225	10
227	50
228	10
229	10
237	10
239	10
241	60
242	10
243	10
251	10
253	10
255	60
256	10
257	10
269	60
270	10
271	10
279	10
283	60
284	10
285	10
295	10
297	70
298	10
299	10
307	10
311	70
312	20
313	10
323	10
325	70
326	20
327	10
339	80
340	20
341	10
353	80
354	30
355	10
367	100
368	30
369	10
381	90
382	30
383	10
395	90
396	20
397	10
409	50
410	20
411	10
423	20
424	10
425	10
437	10
465	10
479	130
480	50
481	10
493	50
495	9358
496	3693
497	1001
498	180
499	20
537	40
538	20
551	10
