Mass Spectrum: 1-Tricosanol, TMS derivative
Formula: C26 H56 O Si
Molecular weight: 412
Origin: NIST Mass Spectrometry Data Center
m/z	RELATIVE INTENSITY
27	40
29	170
39	50
41	631
42	150
43	1421
44	50
45	100
46	10
47	50
53	40
54	100
55	1021
56	260
57	1571
58	120
59	190
60	30
61	350
62	20
63	10
65	10
66	10
67	230
68	150
69	911
70	180
71	801
72	100
73	1621
74	170
75	3313
76	250
77	230
78	10
79	40
80	20
81	230
82	200
83	1081
84	130
85	571
86	40
87	90
88	60
89	711
90	80
91	621
92	50
93	40
94	10
95	190
96	120
97	1111
98	120
99	260
100	40
101	370
102	50
103	1752
104	170
105	70
107	10
109	100
110	40
111	561
112	70
113	160
114	30
115	270
116	30
117	30
118	10
121	10
123	40
124	20
125	220
126	40
127	70
128	20
129	200
130	30
131	30
135	10
137	20
138	10
139	70
140	20
141	40
142	10
143	60
144	10
145	20
149	10
151	10
152	10
153	40
154	10
155	20
157	30
159	10
166	10
167	20
168	10
169	10
171	30
172	10
173	10
181	10
182	10
183	10
185	30
195	10
199	30
209	10
213	20
223	10
227	20
241	30
242	10
255	30
256	10
269	40
270	10
271	10
283	50
284	10
294	10
297	50
298	10
299	10
311	40
312	10
313	10
322	20
323	10
325	20
326	10
339	10
381	140
382	40
383	10
395	20
397	9999
398	3363
399	891
400	150
401	20
411	10
412	10
