Mass Spectrum: 2-[2-(2-Butoxyethoxy)ethoxy]ethyl acetate
Formula: C12 H24 O5
Molecular weight: 248
Origin: NIST Mass Spectrometry Data Center, 2007
m/z	RELATIVE INTENSITY
14	20
15	290
16	10
18	10
19	50
26	60
27	500
28	731
29	1641
30	130
31	290
32	10
38	10
39	210
40	30
41	1692
42	360
43	5775
44	691
45	2522
46	60
47	10
51	10
53	30
54	20
55	340
56	1201
57	4284
58	631
59	821
60	40
61	150
62	10
63	10
67	10
68	10
69	110
70	180
71	310
72	801
73	751
74	100
75	1231
76	50
77	10
81	10
82	30
83	90
85	1151
86	250
87	9999
88	911
89	550
90	60
91	10
98	70
99	130
100	971
101	1141
102	100
103	300
104	20
105	20
107	10
113	10
114	30
115	160
116	40
117	350
118	510
119	80
120	10
129	50
130	40
131	470
132	50
133	60
144	80
145	50
147	20
161	10
163	10
174	10
175	10
205	10
