Mass Spectrum: Linolool oxide, TMS derivative
Formula: C13 H26 O2 Si
Molecular weight: 242
Origin: NIST Mass Spectrometry Data Center
m/z	RELATIVE INTENSITY
15	10
27	70
28	20
29	80
31	20
39	120
40	30
41	340
42	50
43	641
44	90
45	380
46	30
47	160
48	10
49	10
50	10
51	20
52	10
53	150
54	30
55	500
56	30
57	60
58	70
59	170
60	30
61	160
62	10
63	10
64	10
65	50
66	20
67	290
68	60
69	90
70	40
71	60
72	80
73	3974
74	360
75	1261
76	90
77	170
78	20
79	180
80	20
81	801
82	120
83	60
84	10
85	70
86	20
87	20
89	20
91	80
92	60
93	290
94	50
95	90
96	20
97	20
98	10
99	40
100	20
101	130
102	10
103	30
105	20
106	70
107	90
108	10
109	110
110	20
111	80
112	10
113	30
114	10
115	240
116	70
117	100
118	10
119	170
120	20
121	10
123	10
125	30
126	10
127	20
128	10
129	170
130	140
131	9999
132	1251
133	641
134	50
135	140
136	20
137	100
138	10
139	10
141	20
143	130
144	180
145	100
146	20
147	40
152	20
153	10
155	20
156	10
157	130
158	30
159	100
160	10
169	10
170	10
171	50
172	10
183	20
184	10
185	10
199	10
209	30
210	10
215	20
227	50
228	10
