Mass Spectrum: 2-Ethoxyethanol, TBDMS derivative
Formula: C10 H24 O2 Si
Molecular weight: 204
Origin: NIST Mass Spectrometry Data Center, 2007
m/z	RELATIVE INTENSITY
15	60
19	20
26	40
27	340
28	170
29	1141
30	40
31	490
32	30
37	10
38	30
39	190
40	60
41	571
42	70
43	460
44	120
45	841
46	50
47	340
48	20
49	10
51	40
53	30
54	10
55	80
56	80
57	380
58	681
59	1631
60	200
61	410
62	30
63	30
66	20
67	40
68	190
69	50
70	20
71	50
72	110
73	2382
74	320
75	9689
76	731
77	571
78	20
79	10
81	10
83	20
85	140
86	30
87	270
88	490
89	741
90	70
91	30
97	20
99	120
100	90
101	420
103	9999
104	951
105	420
106	20
113	10
115	130
116	20
117	190
118	20
119	460
120	40
121	20
129	10
131	30
133	10
143	10
145	30
147	7126
148	861
149	300
159	70
160	10
161	10
189	140
190	20
191	10
