Mass Spectrum: 3-Methylcatechol, 2TMS derivative
Formula: C13 H24 O2 Si2
Molecular weight: 268
Origin: NIST Mass Spectrometry Data Center
m/z	RELATIVE INTENSITY
15	10
27	10
28	10
29	30
31	10
39	30
40	10
41	10
42	10
43	180
44	120
45	1041
46	70
47	60
50	10
51	50
52	30
53	30
54	10
55	50
56	10
57	70
58	70
59	200
60	20
61	50
62	10
63	30
64	10
65	50
66	30
67	30
68	10
69	30
70	30
71	50
73	9999
74	1361
75	741
76	50
77	200
78	100
79	80
80	10
81	10
82	20
83	50
84	10
85	50
86	10
87	30
88	10
89	70
90	30
91	190
92	30
93	30
94	10
95	30
96	10
97	30
98	10
99	20
101	20
102	30
103	160
104	60
105	380
106	50
107	50
108	10
109	30
110	10
111	40
113	20
115	120
116	30
117	90
118	50
119	190
120	30
121	80
122	10
123	30
124	10
125	10
127	10
129	10
130	10
131	240
132	40
133	320
134	50
135	110
136	30
137	30
138	10
139	10
141	10
143	20
144	10
145	40
147	490
148	90
149	931
150	781
151	200
152	40
153	10
155	10
157	10
159	20
160	10
161	70
162	30
163	150
164	40
165	1281
166	190
167	70
168	10
169	10
175	30
176	10
177	90
178	30
179	701
180	1551
181	290
182	80
183	10
189	10
191	20
192	10
193	160
194	30
195	110
196	20
197	10
205	10
207	30
208	10
209	70
210	10
211	10
219	10
221	10
222	10
223	40
224	10
225	10
233	10
235	10
237	140
238	30
239	20
249	10
251	60
253	2152
254	510
255	210
256	30
257	10
268	6556
269	1762
270	701
271	110
272	20
