Mass Spectrum: 3-Buten-1-ol, heptafluorobutyrate
Formula: C8 H7 F7 O2
Molecular weight: 268
Origin: NIST Mass Spectrometry Data Center
m/z	RELATIVE INTENSITY
14	10
15	40
25	10
26	180
27	1361
28	450
29	1411
30	60
31	210
33	100
37	50
38	180
39	2993
40	280
41	1842
42	190
43	150
44	40
45	100
46	10
47	50
49	20
50	300
51	280
52	120
53	1141
54	9999
55	5745
56	260
57	10
59	60
62	20
64	10
65	10
67	20
69	4874
70	70
71	60
72	10
73	20
74	10
75	10
77	10
78	90
80	10
81	130
82	10
85	10
90	10
91	10
93	250
94	10
95	10
97	10
100	1461
101	40
109	390
110	10
112	10
113	10
119	951
120	20
127	10
131	130
145	20
147	60
150	170
151	10
159	10
169	5305
170	190
171	10
178	30
197	220
198	10
199	30
225	10
227	10
239	10
267	10
