Mass Spectrum: 3-Hexanol, pentafluoropropionate
Formula: C9 H13 F5 O2
Molecular weight: 248
Origin: NIST Mass Spectrometry Data Center
m/z	RELATIVE INTENSITY
15	60
26	90
27	1311
28	270
29	1511
30	40
31	130
33	60
37	10
38	60
39	1131
40	230
41	5415
42	1101
43	4514
44	250
45	60
47	140
50	160
51	120
52	40
53	370
54	410
55	9809
56	2292
57	1281
58	90
59	110
60	10
61	370
62	20
63	20
65	60
66	20
67	190
69	3523
70	110
71	260
72	30
73	10
77	30
78	80
79	20
81	90
82	20
83	180
84	4314
85	7267
86	440
87	10
93	130
95	10
97	140
99	120
100	791
101	30
109	90
117	40
119	9999
120	180
121	10
128	130
129	20
145	10
147	841
148	30
149	971
150	30
156	10
162	20
163	100
165	90
175	70
176	10
177	20
189	10
190	120
191	40
203	30
204	701
205	2592
206	180
207	20
218	90
219	520
220	40
