Mass Spectrum: 2,4-Dihydroxybenzoic acid, 3TBDMS derivative
Formula: C25 H48 O4 Si3
Molecular weight: 496
Origin: NIST Mass Spectrometry Data Center
m/z	RELATIVE INTENSITY
29	40
39	20
41	110
42	10
43	20
45	50
47	10
55	10
56	100
57	300
58	40
59	140
60	10
61	10
63	20
69	10
73	2923
74	260
75	190
76	10
77	20
79	10
83	20
85	30
89	10
91	70
92	10
93	10
95	10
97	10
99	40
100	10
101	10
103	30
104	10
105	120
106	10
107	20
109	10
111	10
113	10
115	60
116	10
117	30
118	10
119	100
120	10
121	50
122	10
123	10
126	10
127	10
128	10
129	20
131	50
132	10
133	270
134	50
135	90
136	10
137	50
138	10
141	110
143	30
145	20
146	10
147	230
148	40
149	150
150	30
151	40
152	10
153	10
155	10
157	20
159	10
161	20
162	10
163	40
164	10
165	30
166	10
167	30
169	10
170	30
171	10
173	10
175	20
176	10
177	70
178	20
179	60
180	10
181	30
182	10
183	10
189	20
191	90
192	20
193	150
194	30
195	120
196	20
197	10
203	10
205	10
207	130
208	30
209	110
210	20
211	40
212	10
217	10
219	10
220	10
221	20
222	10
223	160
224	40
225	30
226	10
233	20
234	10
235	30
236	10
237	30
238	10
239	30
240	10
241	10
247	10
249	30
250	10
251	190
252	40
253	90
254	20
255	10
263	20
264	10
265	50
266	20
267	220
268	60
269	50
270	10
275	10
277	10
278	10
279	30
280	10
281	40
282	10
283	130
284	30
285	20
291	30
292	10
293	70
294	20
295	20
296	10
297	140
298	50
299	30
300	10
305	10
307	90
308	40
309	160
310	40
311	40
312	10
313	10
321	20
322	30
323	150
324	50
325	500
326	130
327	60
328	10
333	10
335	30
336	10
337	10
339	40
340	10
341	10
349	100
350	30
351	30
352	10
353	10
354	10
363	10
365	631
366	200
367	240
368	70
369	30
370	10
379	10
381	230
382	130
383	240
384	80
385	40
386	10
397	20
398	10
407	10
409	20
410	10
421	10
423	70
424	30
425	30
426	10
437	50
439	9999
440	5675
441	2732
442	681
443	160
444	30
465	10
481	490
482	200
483	90
484	20
485	10
495	30
496	10
497	10
