Mass Spectrum: 2,4-Dihydroxyacetophenone, 2TBDMS derivative
Formula: C20 H36 O3 Si2
Molecular weight: 380
Origin: NIST Mass Spectrometry Data Center
m/z	RELATIVE INTENSITY
27	10
29	60
39	20
40	10
41	140
42	10
43	100
44	10
45	80
46	10
47	10
53	10
55	20
56	60
57	260
58	30
59	160
60	10
61	20
63	10
65	10
67	10
69	10
71	10
73	1641
74	150
75	250
76	20
77	50
78	10
79	20
81	10
82	10
83	30
85	40
87	10
89	50
90	20
91	80
92	10
93	20
95	30
96	10
97	30
98	10
99	50
100	10
101	10
102	10
103	50
104	40
105	90
106	10
107	30
108	10
109	30
110	50
111	40
112	30
113	10
115	120
116	50
117	70
118	100
119	90
120	10
121	50
122	10
123	20
124	70
125	40
126	30
127	10
128	20
129	30
130	10
131	50
132	20
133	751
135	180
136	30
137	50
138	10
139	10
141	10
143	20
145	30
146	10
147	70
148	20
149	190
150	40
151	80
152	10
153	10
154	10
155	10
157	10
159	60
160	20
161	40
162	30
163	100
164	20
165	40
166	30
167	70
168	10
169	10
171	10
173	10
174	10
175	40
176	20
177	100
178	20
179	80
180	30
181	40
182	10
183	10
185	10
187	10
189	10
190	10
191	140
192	240
193	130
194	30
195	60
196	10
197	10
203	10
205	20
206	60
207	30
208	10
209	721
210	120
211	40
217	10
219	20
220	10
221	20
222	10
223	40
224	10
225	10
233	50
234	30
235	40
236	10
237	20
239	10
247	20
248	10
249	40
250	10
251	320
252	70
253	30
254	10
263	10
264	10
265	270
266	130
267	160
268	40
269	10
277	10
278	10
279	10
281	40
282	10
291	20
292	20
293	160
294	40
295	20
305	20
306	10
307	220
308	60
309	50
310	10
321	40
323	9999
324	3563
325	1381
326	250
327	40
328	10
335	10
337	10
349	30
350	10
351	10
363	10
365	400
366	130
367	50
368	10
379	10
