Mass Spectrum: Methyl 2-hydroxy-4-methoxybenzoate, acetate
Formula: C11 H12 O5
Molecular weight: 224
Origin: NIST Mass Spectrometry Data Center
m/z	RELATIVE INTENSITY
14	30
15	230
26	20
27	30
28	60
29	80
30	20
31	20
32	10
37	30
38	80
39	210
40	30
41	140
42	140
43	2172
44	60
45	40
49	20
50	170
51	631
52	280
53	280
54	40
55	100
56	10
57	10
59	160
60	10
61	50
62	190
63	450
64	180
65	240
66	120
67	50
68	30
69	280
70	10
73	10
74	40
75	30
76	20
77	120
78	50
79	931
80	240
81	40
82	50
83	10
85	10
90	20
91	100
92	240
93	170
94	280
95	410
96	30
97	10
105	10
106	70
107	1461
108	440
109	60
110	80
111	20
118	10
119	50
120	160
121	100
122	2933
123	320
124	40
125	280
126	20
134	50
135	30
136	30
137	10
138	20
139	10
148	10
150	9999
151	3183
152	300
153	180
154	20
165	70
166	20
182	5155
183	520
184	60
193	320
194	30
195	10
224	300
225	30
226	10
