Mass Spectrum: Ethyltriethylene glycol, TBDMS derivative
Formula: C14 H32 O4 Si
Molecular weight: 292
Origin: NIST Mass Spectrometry Data Center, 2007
m/z	RELATIVE INTENSITY
14	10
15	70
19	60
25	10
26	40
27	280
28	310
29	1111
30	60
31	971
32	20
38	10
39	90
40	20
41	390
42	80
43	581
44	220
45	9298
46	220
47	150
48	10
49	10
51	20
53	10
54	10
55	80
56	80
57	310
58	420
59	1712
60	140
61	360
62	20
63	30
69	20
70	10
71	70
72	270
73	9999
74	611
75	1902
76	150
77	230
78	10
79	10
83	10
84	10
85	90
86	20
87	350
88	420
89	1191
90	90
91	30
97	10
99	90
100	30
101	731
102	170
103	3673
104	310
105	170
115	350
117	6686
118	530
119	210
120	20
121	10
131	20
133	30
143	20
145	140
146	30
147	791
148	90
149	30
159	500
160	70
161	30
163	10
189	110
190	20
191	30
203	20
235	250
236	40
237	10
