Mass Spectrum: tert-Butylhydroquinone, diacetate
Formula: C14 H18 O4
Molecular weight: 250
Origin: NIST Mass Spectrometry Data Center
m/z	RELATIVE INTENSITY
14	10
15	110
26	20
27	60
28	30
29	70
38	10
39	160
40	30
41	300
42	110
43	3113
44	70
45	10
50	20
51	100
52	70
53	160
54	100
55	240
56	20
57	70
62	20
63	60
64	20
65	140
66	50
67	160
68	20
69	60
74	10
75	10
76	10
77	430
78	100
79	300
80	30
81	120
82	50
83	10
89	30
90	10
91	250
92	30
93	90
94	70
95	90
96	10
97	10
102	20
103	120
104	30
105	110
106	30
107	400
108	60
109	110
110	140
111	60
115	70
116	20
117	10
118	10
119	40
120	10
121	130
122	210
123	1521
124	140
125	40
127	10
128	10
131	60
132	30
133	50
134	30
135	270
136	40
137	80
138	10
147	50
148	10
149	150
150	330
151	6306
152	641
153	50
163	10
164	20
165	210
166	9999
167	1111
168	100
169	10
175	10
177	10
191	10
193	190
194	20
207	10
208	971
209	130
210	10
235	20
250	200
251	30
