Mass Spectrum: trans-2-Hydroxycinnamic acid, methyl ester
Formula: C10 H10 O3
Molecular weight: 178
Origin: NIST Mass Spectrometry Data Center
m/z	RELATIVE INTENSITY
14	10
15	100
26	30
27	80
28	20
29	150
30	30
31	90
32	30
33	10
37	60
38	210
39	861
40	90
41	130
42	20
43	90
44	30
45	260
49	30
50	340
51	771
52	160
53	240
54	30
55	70
59	460
61	120
62	410
63	1191
64	440
65	1421
66	140
67	20
68	10
69	20
74	190
75	470
76	80
77	440
78	150
79	150
80	20
81	10
82	10
84	10
85	40
86	80
87	80
88	50
89	1661
90	1712
91	3483
92	380
93	30
94	10
95	10
98	30
99	10
100	10
101	300
102	110
103	1792
104	170
105	120
106	30
107	120
108	20
115	20
116	20
118	9999
119	1061
120	90
121	50
122	10
131	50
132	10
133	20
134	30
135	40
136	10
146	5325
147	1862
148	180
149	20
161	100
162	30
163	20
178	1431
179	160
180	20
