Mass Spectrum: 2-Ethyl-1-butanol, pentafluoropropionate
Formula: C9 H13 F5 O2
Molecular weight: 248
Origin: NIST Mass Spectrometry Data Center
m/z	RELATIVE INTENSITY
15	40
26	90
27	1411
28	330
29	2122
30	70
31	200
33	50
37	10
38	50
39	1331
40	200
41	3643
42	951
43	9999
44	460
45	70
47	100
50	180
51	150
52	60
53	550
54	581
55	6576
56	2392
57	811
58	40
59	80
61	20
62	10
63	20
65	60
66	20
67	240
69	6286
70	611
71	9158
72	591
73	20
77	20
78	70
79	20
80	10
81	80
82	20
83	180
84	4424
85	2502
86	160
87	10
93	20
95	10
97	50
99	70
100	591
101	20
109	50
117	10
119	6306
120	140
121	10
128	80
129	120
130	10
145	10
147	530
148	20
149	170
150	10
163	30
165	20
175	30
177	10
178	10
189	10
191	10
203	20
219	20
