Mass Spectrum: cis-3-Hexen-1-ol, heptafluorobutyrate
Formula: C10 H11 F7 O2
Molecular weight: 296
Origin: NIST Mass Spectrometry Data Center
m/z	RELATIVE INTENSITY
15	50
20	10
26	80
27	941
28	290
29	801
30	30
31	130
33	20
37	20
38	90
39	1682
40	320
41	4584
42	661
43	260
44	40
45	80
47	20
49	10
50	170
51	240
52	130
53	921
54	1131
55	4164
56	360
57	30
59	40
61	10
62	30
63	50
64	10
65	340
66	210
67	9999
68	701
69	3413
70	80
71	20
73	10
74	10
75	10
77	110
78	60
79	360
80	80
81	1001
82	7517
83	1081
84	50
85	20
90	10
93	40
95	10
97	10
100	691
101	20
109	190
110	10
112	10
119	540
120	10
131	80
145	10
147	10
150	90
151	10
159	10
169	2042
170	70
197	100
225	10
253	10
