Mass Spectrum: 4-Hexen-1-ol, (E)-, TBDMS derivative
Formula: C12 H26 O Si
Molecular weight: 214
Origin: NIST Mass Spectrometry Data Center
m/z	RELATIVE INTENSITY
15	10
26	10
27	190
28	60
29	450
30	10
31	30
38	20
39	460
40	70
41	1001
42	130
43	270
44	50
45	550
46	40
47	480
48	30
49	20
50	20
51	50
52	30
53	260
54	120
55	1251
56	170
57	550
58	390
59	1231
60	180
61	380
62	30
63	20
64	10
65	50
66	30
67	681
68	60
69	50
70	20
71	80
72	90
73	1692
75	8087
76	631
77	350
78	20
79	120
80	20
81	320
82	430
83	180
84	30
85	400
86	60
87	290
88	160
89	3363
90	290
91	120
95	30
96	10
97	110
99	1391
100	190
101	4094
102	470
103	200
104	10
109	30
110	10
111	140
112	20
113	200
114	100
115	1211
116	130
117	50
123	40
124	10
125	20
127	1641
128	260
129	1672
130	200
131	110
132	20
133	10
139	50
140	10
141	90
142	10
143	100
144	10
145	10
155	10
157	9999
158	1541
159	480
160	40
199	170
200	30
201	10
213	10
