Mass Spectrum: 2-Decanol, pentafluoropropionate
Formula: C13 H21 F5 O2
Molecular weight: 304
Origin: NIST Mass Spectrometry Data Center
m/z	RELATIVE INTENSITY
14	10
15	100
16	10
17	10
18	10
19	10
20	30
25	10
26	120
27	2162
28	731
29	4204
30	90
31	130
32	10
33	10
37	10
38	50
39	1852
40	440
41	8668
42	3343
43	9999
44	450
45	230
46	10
47	420
48	10
50	110
51	120
52	50
53	641
54	921
55	9819
56	8177
57	5815
58	300
59	40
61	20
62	10
63	20
65	130
66	90
67	1191
68	971
69	9048
70	7867
71	3443
72	170
73	10
77	90
78	60
79	150
80	30
81	571
82	1401
83	4034
84	3823
85	2993
86	190
87	10
91	30
93	60
94	20
95	130
96	891
97	5455
98	2642
99	721
100	410
101	20
109	70
110	340
111	3503
112	2022
113	170
114	10
117	20
119	6386
120	120
125	120
126	10
128	110
129	10
138	10
140	1832
141	340
142	20
144	20
145	10
147	1331
148	40
149	30
163	851
164	40
165	40
175	10
185	40
191	1131
192	60
193	10
203	10
219	10
