Mass Spectrum: 5-Amino-2-methoxyphenol, TBDMS derivative
Formula: C13 H23 N O2 Si
Molecular weight: 253
Origin: NIST Mass Spectrometry Data Center
m/z	RELATIVE INTENSITY
15	10
27	20
28	20
29	90
31	10
38	10
39	70
40	10
41	210
42	20
43	60
44	30
45	120
46	10
47	20
50	10
51	30
52	70
53	50
54	20
55	40
56	30
57	250
58	60
59	330
60	40
61	40
62	10
63	20
64	10
65	70
66	30
67	40
68	30
69	20
70	10
71	10
72	10
73	450
74	70
75	170
77	70
78	50
79	120
80	60
81	50
83	390
85	30
86	10
89	100
90	571
92	70
93	50
94	30
95	50
96	50
97	40
98	70
99	40
100	10
101	10
104	30
105	10
106	90
107	30
108	50
109	20
110	50
111	20
112	10
117	10
118	10
119	10
120	20
121	20
122	50
123	40
124	80
125	10
126	10
132	10
134	20
135	30
136	100
137	30
138	20
139	10
146	10
147	10
148	30
149	30
150	100
151	1732
152	290
153	280
154	40
155	10
162	40
163	20
164	100
165	40
166	540
167	190
168	40
169	10
176	10
178	10
180	380
181	9999
182	1682
183	510
184	40
194	20
196	861
197	130
198	40
207	20
221	10
222	10
223	170
224	30
225	10
237	10
238	10
252	20
253	621
254	130
255	30
