Mass Spectrum: Oleyl alcohol , acetate
Formula: C20 H38 O2
Molecular weight: 310
Origin: NIST Mass Spectrometry Data Center
m/z	RELATIVE INTENSITY
15	30
26	10
27	210
28	60
29	571
30	20
31	20
38	10
39	400
40	90
41	2722
42	561
43	5425
44	170
45	40
50	10
51	30
52	30
53	430
54	2392
55	5395
56	1091
57	1451
58	80
59	20
60	20
61	851
62	20
63	10
65	190
66	530
67	5815
68	3553
69	4334
70	951
71	581
72	50
73	310
74	10
77	210
78	70
79	1001
80	831
81	7106
82	9999
83	4254
84	540
85	300
86	40
87	20
91	160
92	30
93	380
94	440
95	6756
96	9308
97	3303
98	400
99	70
100	20
101	20
102	10
103	10
105	30
106	10
107	150
108	210
109	4044
110	4304
111	1341
112	200
113	40
114	20
115	20
116	10
117	10
119	10
121	160
122	270
123	2672
124	3163
125	621
126	100
127	40
128	20
129	10
133	10
135	100
136	180
137	1551
138	1732
139	260
140	60
141	20
142	20
143	10
148	10
149	30
150	30
151	490
152	751
153	120
154	40
155	20
156	20
157	10
162	10
163	10
164	10
165	220
166	390
167	70
168	70
169	20
170	20
171	10
178	10
179	120
180	240
181	50
182	20
183	10
184	20
192	10
193	170
194	250
195	50
196	10
197	10
198	10
207	70
208	110
209	20
211	10
221	50
222	210
223	40
225	10
235	10
250	1391
251	280
252	30
253	10
267	20
268	10
309	10
310	10
