Mass Spectrum: Crotyl alcohol, trifluoroacetate
Formula: C6 H7 F3 O2
Molecular weight: 168
Origin: NIST Mass Spectrometry Data Center
m/z	RELATIVE INTENSITY
14	20
15	90
20	10
25	20
26	460
27	3033
28	1011
29	3093
30	90
31	170
33	70
36	10
37	180
38	460
39	6646
40	510
41	1912
42	270
43	1471
44	230
45	130
46	50
47	200
48	10
49	80
50	1081
51	641
52	330
53	2642
54	9919
55	9999
56	490
57	40
59	1441
60	50
64	20
65	10
66	10
67	10
69	8548
70	150
71	2062
72	100
73	110
74	10
75	10
77	50
78	140
79	10
80	10
81	20
83	10
89	20
90	10
91	70
92	10
95	10
97	410
98	20
99	1661
100	100
101	10
105	10
112	160
113	30
119	10
120	30
125	981
126	60
127	20
128	20
136	10
139	290
140	70
141	10
148	10
153	500
154	30
167	20
168	550
169	40
