Mass Spectrum: Tryptophol, TMS derivative
Formula: C13 H19 N O Si
Molecular weight: 233
Origin: NIST Mass Spectrometry Data Center
m/z	RELATIVE INTENSITY
27	10
28	10
29	10
31	10
39	30
41	10
42	10
43	100
44	40
45	230
46	20
47	80
50	30
51	70
52	30
53	20
54	10
55	20
56	10
57	20
58	240
59	140
60	30
61	50
62	30
63	90
64	20
65	50
66	10
70	10
71	10
72	30
73	991
74	110
75	380
76	80
77	380
78	40
79	10
85	10
86	10
87	20
88	110
89	160
90	90
91	90
92	10
93	20
101	50
102	170
103	490
104	60
105	20
109	240
113	20
114	40
115	500
116	140
117	240
118	40
119	10
127	60
128	190
130	9999
131	1121
132	60
133	10
134	10
140	20
141	30
142	140
143	440
144	641
145	100
146	20
147	10
148	10
154	10
156	30
157	10
158	30
159	10
160	30
170	20
172	30
173	10
174	20
175	10
184	20
185	10
186	40
187	10
188	40
189	10
198	10
200	70
201	10
202	50
203	10
214	10
215	10
216	70
217	20
218	621
219	120
220	30
231	10
232	40
233	1541
234	310
235	80
236	10
