Mass Spectrum: 1,5-Hexadien-3-ol, TBDMS derivative
Formula: C12 H24 O Si
Molecular weight: 212
Origin: NIST Mass Spectrometry Data Center
m/z	RELATIVE INTENSITY
15	20
26	30
27	340
28	80
29	530
30	20
31	120
37	10
38	40
39	851
40	110
41	1672
42	140
43	731
44	140
45	1451
46	90
47	891
48	50
49	40
50	40
51	120
52	80
53	500
54	100
55	410
56	120
57	641
58	520
59	2052
60	270
61	420
62	30
63	40
64	10
65	80
66	60
67	60
68	10
69	90
70	50
71	400
72	130
73	9999
74	921
75	8718
76	631
77	561
78	60
79	611
80	100
81	200
82	20
83	160
84	50
85	540
86	60
87	80
88	10
89	370
90	30
91	20
93	20
95	40
96	20
97	400
98	140
99	6296
100	681
101	681
102	50
103	20
109	70
110	10
111	250
112	50
113	751
114	210
115	1752
116	200
117	80
118	10
121	20
123	40
124	10
125	480
126	80
127	4464
128	510
129	200
130	20
137	50
138	10
139	60
140	10
141	100
142	10
143	20
145	10
151	10
153	20
155	6706
156	941
157	280
158	30
169	20
171	5475
172	811
173	250
174	20
185	20
197	190
198	30
199	10
