Mass Spectrum: 2-Fluoro-3-(trifluoromethyl)phenol, methyl ether
Formula: C8 H6 F4 O
Molecular weight: 194
Origin: NIST Mass Spectrometry Data Center
m/z	RELATIVE INTENSITY
14	20
15	150
26	10
27	10
29	130
30	20
31	140
33	10
37	70
38	100
39	140
43	20
45	10
49	40
50	300
51	260
52	10
53	60
54	10
55	50
56	280
57	270
60	20
61	220
62	270
63	811
64	50
65	20
66	20
68	270
69	581
70	30
71	30
73	60
74	340
75	1021
76	60
77	170
78	10
79	50
80	160
81	1131
82	370
83	30
84	10
85	20
86	20
87	110
88	110
89	20
90	10
91	10
92	110
93	400
94	370
95	230
96	130
97	661
98	50
99	380
100	140
101	5235
102	310
103	20
104	20
105	40
106	110
107	30
109	10
110	100
111	40
112	200
113	510
114	340
115	70
117	40
118	30
119	50
120	10
122	10
123	60
124	30
125	350
126	40
127	100
128	20
129	10
130	30
131	450
132	1571
133	130
134	10
136	10
137	40
138	10
141	90
142	10
143	490
144	220
145	991
146	100
147	20
150	480
151	7717
152	561
153	20
159	50
160	260
161	50
162	30
163	931
164	490
165	140
166	10
173	20
175	2212
176	190
177	20
179	4054
180	330
181	20
191	40
193	350
194	9999
195	1041
196	60
