Mass Spectrum: 2-Hydroxy-5-methoxybenzaldehyde, acetate
Formula: C10 H10 O4
Molecular weight: 194
Origin: NIST Mass Spectrometry Data Center
m/z	RELATIVE INTENSITY
14	20
15	110
25	10
26	60
27	40
28	30
29	70
37	30
38	90
39	180
40	20
41	180
42	120
43	2042
44	50
45	10
49	20
50	160
51	370
52	641
53	821
54	220
55	260
56	10
59	10
60	10
61	60
62	190
63	470
64	150
65	270
66	60
67	50
68	10
69	110
73	10
74	60
75	40
76	20
77	90
78	20
79	280
80	240
81	440
82	70
83	10
90	10
91	30
92	110
93	90
94	30
95	440
96	40
97	10
105	10
106	310
107	190
108	430
109	821
110	60
111	10
119	20
120	20
121	40
122	50
123	270
124	60
125	10
134	130
135	110
137	5485
138	440
139	50
149	10
150	190
151	1451
152	9999
153	981
154	100
155	10
194	150
195	20
