Mass Spectrum: 2-Methoxy-5-nitrophenol, TMS derivative
Formula: C10 H15 N O4 Si
Molecular weight: 241
Origin: NIST Mass Spectrometry Data Center
m/z	RELATIVE INTENSITY
15	70
26	10
27	30
28	60
29	120
30	270
31	50
37	10
38	30
39	100
40	10
41	20
42	50
43	540
44	210
45	1281
46	140
47	100
48	10
49	10
50	160
51	500
52	100
53	250
54	60
55	170
56	30
57	100
58	200
59	981
60	90
61	140
62	120
63	340
64	70
65	110
66	80
67	120
68	60
69	230
70	60
71	80
72	110
73	4654
74	480
75	621
76	150
77	300
78	130
79	891
80	90
81	100
82	40
83	781
84	90
85	130
86	20
87	20
88	20
89	390
90	100
91	310
92	90
93	200
94	110
95	230
96	50
97	150
98	30
99	140
100	20
101	20
102	10
103	30
104	40
105	160
106	70
107	500
108	140
109	390
110	70
111	80
112	10
113	100
115	10
117	10
119	90
120	50
121	320
122	130
123	280
124	50
125	30
126	10
131	10
133	30
134	90
135	641
136	210
137	1902
138	250
139	130
140	10
147	50
148	50
149	420
150	701
151	320
152	120
153	1191
154	150
155	50
161	30
162	10
163	40
164	170
165	2092
166	360
167	130
168	80
169	10
177	10
178	70
179	360
180	410
181	2913
182	440
183	140
184	10
191	10
193	20
194	10
195	240
196	260
197	50
198	10
207	10
208	20
209	20
211	9999
212	1361
213	460
214	40
223	10
224	10
225	120
226	7687
227	1181
228	390
229	40
241	2382
242	390
243	130
244	10
