Mass Spectrum: 2-Hexen-1-ol, (Z)-, TMS derivative
Formula: C9 H20 O Si
Molecular weight: 172
Origin: NIST Mass Spectrometry Data Center
m/z	RELATIVE INTENSITY
15	40
26	40
27	470
28	120
29	571
30	30
31	80
37	10
38	30
39	701
40	90
41	1091
42	240
43	631
44	250
45	1842
46	140
47	851
48	50
49	40
50	40
51	100
52	60
53	350
54	360
55	711
56	80
57	200
58	220
59	951
60	200
61	761
62	60
63	60
64	30
65	90
66	40
67	1161
68	90
69	60
70	60
71	110
72	170
73	9659
74	1061
75	9999
76	811
77	480
78	30
79	90
80	10
81	240
82	1001
83	180
84	20
85	330
86	40
87	110
88	30
89	150
90	20
91	30
95	30
96	10
97	80
98	40
99	550
100	70
101	1011
102	110
103	190
104	20
105	10
109	20
111	160
112	20
113	561
114	80
115	741
116	170
117	50
118	10
125	10
127	270
129	8958
130	1211
131	450
132	30
139	10
141	20
143	1491
144	230
145	70
146	10
155	10
157	3133
158	490
159	170
160	20
171	30
172	100
173	20
