Mass Spectrum: Normorphine, 3TMS derivative
Formula: C25 H41 N O3 Si3
Molecular weight: 487
Origin: NIST Mass Spectrometry Data Center
m/z	RELATIVE INTENSITY
15	10
29	10
30	20
31	20
42	40
43	70
44	100
45	801
46	60
47	50
53	30
54	10
55	30
56	40
57	30
58	50
59	350
60	40
61	40
65	20
66	10
67	20
68	10
69	10
70	20
71	30
73	9999
74	1191
75	841
76	50
77	70
79	20
80	40
81	40
82	10
83	30
84	20
85	20
86	80
87	30
88	20
89	280
90	30
91	40
92	100
93	20
94	10
95	20
96	20
97	10
98	10
99	20
100	430
101	80
102	290
103	120
104	20
105	50
106	20
109	10
111	50
112	10
113	10
114	30
115	220
116	220
117	430
118	70
119	50
120	10
121	10
122	10
123	10
124	20
125	20
126	20
127	60
128	320
129	150
130	80
131	60
132	130
133	170
134	20
135	50
136	20
137	20
138	10
139	60
140	130
141	320
142	90
143	40
144	20
145	30
146	20
147	330
148	70
149	70
150	20
151	50
152	320
153	130
154	921
155	230
156	70
157	20
158	10
159	20
160	10
161	20
162	20
163	40
164	20
165	150
166	200
167	310
168	90
169	30
170	30
171	20
172	20
173	40
174	20
175	20
176	30
177	50
178	80
179	210
180	80
181	80
182	60
183	20
184	10
185	30
186	60
187	30
188	10
189	60
190	40
191	60
192	50
193	120
194	30
195	40
196	20
197	20
198	20
199	30
200	20
201	70
202	40
203	170
204	110
205	80
206	140
207	70
208	30
209	40
210	20
211	20
212	10
213	20
214	10
215	20
216	250
217	120
218	150
219	60
220	100
221	30
222	180
223	60
224	30
225	20
226	20
227	20
228	20
229	120
230	50
231	50
232	40
233	60
234	70
235	30
236	80
237	40
238	30
239	20
240	90
241	70
242	90
243	90
244	70
245	40
246	220
247	60
248	20
249	20
250	20
251	20
252	20
253	240
254	991
255	350
256	170
257	50
258	40
259	30
260	10
261	10
262	10
263	20
264	20
265	30
266	220
267	180
268	90
269	90
270	60
271	20
272	20
273	20
274	10
275	20
276	30
277	30
278	40
279	80
280	60
281	200
282	90
283	90
284	30
285	10
286	10
288	10
289	10
290	60
291	40
292	611
293	270
294	240
295	100
296	50
297	30
298	30
299	20
300	10
301	10
302	10
303	10
304	30
305	20
306	80
307	40
308	1151
309	330
310	170
311	40
312	20
313	10
314	20
315	10
316	20
317	20
318	10
319	20
320	10
321	10
322	10
323	10
324	80
325	20
326	20
327	20
328	20
329	30
330	100
331	30
332	50
333	30
334	20
337	10
338	10
339	40
340	20
341	40
342	80
343	60
344	70
345	390
346	160
347	70
348	20
354	40
355	80
356	80
357	80
358	110
359	40
360	30
361	10
362	10
367	10
368	20
369	20
370	50
371	170
372	170
373	70
374	20
378	10
380	10
382	320
383	100
384	120
385	30
386	20
387	10
389	10
390	10
396	40
397	40
398	140
399	50
400	60
412	20
413	20
414	300
415	140
416	50
418	10
444	20
445	10
446	10
456	10
458	10
459	10
460	10
470	20
471	10
472	530
473	250
474	110
475	20
476	10
486	180
487	1221
488	530
489	250
490	50
491	20
492	10
