Mass Spectrum: Orcinol, monoacetate
Formula: C9 H10 O3
Molecular weight: 166
Origin: NIST Mass Spectrometry Data Center
m/z	RELATIVE INTENSITY
14	30
15	190
25	10
26	30
27	200
29	80
31	10
36	10
37	20
38	120
39	591
40	150
41	430
42	200
43	2172
44	50
45	40
49	10
50	170
51	410
52	180
53	340
54	90
55	450
56	20
57	10
60	30
61	20
62	60
63	130
64	30
65	280
66	270
67	470
68	50
69	470
70	20
71	10
73	10
74	30
75	30
76	20
77	460
78	290
79	100
80	10
81	160
82	70
83	40
84	30
85	60
86	10
89	10
92	10
93	20
94	110
95	791
96	180
97	30
105	100
106	250
107	420
108	40
109	30
121	10
123	3233
124	9999
125	771
126	70
137	10
165	10
166	1371
167	150
168	10
