Mass Spectrum: o-Coumaric acid, 2TBDMS derivative
Formula: C21 H36 O3 Si2
Molecular weight: 392
Origin: NIST Mass Spectrometry Data Center
m/z	RELATIVE INTENSITY
27	20
29	160
31	10
39	70
40	10
41	400
42	20
43	90
44	10
45	320
46	20
47	90
50	10
51	20
52	10
53	20
55	80
56	160
57	831
58	170
59	651
60	70
61	70
62	10
63	30
64	10
65	30
66	20
67	10
69	30
70	10
71	20
73	9999
74	931
75	1411
76	120
77	120
78	10
79	10
81	10
82	10
83	60
84	10
85	130
86	20
87	30
88	10
89	130
90	80
91	400
92	40
93	10
95	20
96	10
97	60
98	10
99	150
100	40
101	90
102	190
103	200
104	30
105	100
106	10
107	10
109	10
110	20
111	20
113	30
114	10
115	581
116	100
117	110
118	160
119	80
120	20
121	50
122	10
123	10
124	10
125	10
127	10
128	50
129	60
130	210
131	330
132	50
133	520
134	100
135	721
136	100
137	50
139	380
141	20
142	10
143	30
144	30
145	150
147	5635
148	911
149	561
150	70
151	100
152	10
153	10
157	20
158	10
159	100
161	2552
162	390
163	150
164	20
165	10
171	10
173	30
174	10
175	230
176	130
177	100
178	20
179	50
180	10
181	100
182	20
183	10
185	20
187	20
188	10
189	40
190	10
191	10
192	10
193	20
194	10
195	70
196	10
197	10
201	10
202	10
203	280
204	70
205	90
206	20
207	20
209	380
210	80
211	50
212	10
217	20
218	10
219	90
220	20
221	190
222	40
223	20
225	10
231	10
233	30
234	10
235	240
236	50
237	30
245	90
246	20
247	10
249	20
250	10
259	20
260	10
261	250
262	50
263	80
264	20
265	10
277	90
278	70
279	100
280	30
281	10
319	10
333	10
335	9949
336	2963
337	1161
338	220
339	40
361	10
377	360
378	110
379	50
380	10
391	10
392	10
