Mass Spectrum: 3-Nonen-1-ol, (Z)-, TBDMS derivative
Formula: C15 H32 O Si
Molecular weight: 256
Origin: NIST Mass Spectrometry Data Center
m/z	RELATIVE INTENSITY
15	10
26	10
27	240
28	50
29	731
30	20
31	30
39	400
40	80
41	1621
42	240
43	430
44	50
45	420
46	30
47	350
48	20
49	10
50	10
51	30
52	30
53	260
54	190
55	901
56	170
57	731
58	581
59	1341
60	160
61	320
62	20
63	20
64	10
65	90
66	50
67	781
68	150
69	380
70	80
71	130
73	4064
74	450
75	8518
76	651
77	400
78	40
79	180
80	30
81	911
82	110
83	240
84	40
85	390
86	50
87	180
88	540
89	3643
90	320
91	160
92	10
93	40
94	10
95	220
96	60
97	540
98	110
99	1231
100	250
101	4194
102	410
103	210
104	10
105	10
107	20
108	10
109	180
110	30
111	240
112	120
113	731
114	130
115	1571
116	170
117	80
118	10
121	20
123	741
124	110
125	90
126	10
127	621
128	100
129	2772
130	330
131	130
132	10
137	10
139	40
141	420
142	110
143	1451
144	190
145	190
146	20
147	10
153	30
154	10
155	90
156	20
157	230
158	30
159	10
165	10
167	20
169	1021
170	170
171	520
172	80
173	20
181	70
182	10
183	40
184	10
185	70
186	10
197	20
199	9999
200	1852
201	410
241	250
242	50
243	10
255	10
