Mass Spectrum: 4-tert-Butylcatechol, dimethyl ether
Formula: C12 H18 O2
Molecular weight: 194
Origin: NIST Mass Spectrometry Data Center
m/z	RELATIVE INTENSITY
15	80
26	10
27	60
28	40
29	80
30	10
31	10
38	20
39	220
40	30
41	300
42	20
43	50
45	30
46	10
50	80
51	280
52	110
53	190
54	20
55	140
56	10
57	130
58	10
59	10
60	10
61	10
62	50
63	160
64	60
65	300
66	80
67	100
68	30
69	20
71	10
73	10
74	30
77	761
78	260
79	370
80	60
81	40
82	10
83	40
86	10
87	10
89	210
91	1031
92	160
93	190
94	70
95	150
96	30
97	10
101	10
102	60
103	310
104	80
105	370
106	130
107	420
108	160
109	120
110	10
115	230
116	70
117	250
118	130
119	290
120	70
121	430
122	80
123	120
124	891
125	70
126	10
127	10
128	10
129	20
130	10
131	90
132	130
133	440
134	180
135	380
136	370
137	90
138	470
139	861
140	80
141	10
145	30
146	30
147	320
148	370
149	340
150	40
151	1361
152	140
153	20
161	20
162	20
163	180
164	510
165	80
166	10
177	20
179	9999
180	1291
181	120
182	10
194	2392
195	320
196	30
