Mass Spectrum: 4-Amino-1-butanol, N,O-diacetyl-
Formula: C8 H15 N O3
Molecular weight: 173
Origin: NIST Mass Spectrometry Data Center
m/z	RELATIVE INTENSITY
14	110
15	941
16	20
17	10
18	140
25	10
26	60
27	410
28	881
29	450
30	6926
31	270
32	10
37	10
38	30
39	420
40	130
41	791
42	1351
43	9999
44	1201
45	190
46	10
48	10
50	10
51	20
52	20
53	80
54	490
55	500
56	550
57	160
58	490
59	90
60	681
61	621
62	20
66	10
67	10
68	80
69	90
70	1411
71	1141
72	3463
73	751
74	50
82	10
83	20
84	250
85	1481
86	1111
87	380
88	420
89	20
96	10
98	180
99	20
100	791
101	310
102	30
103	10
112	90
113	611
114	370
115	30
116	30
130	3083
131	380
132	40
158	10
173	120
174	20
