Mass Spectrum: 2-(N-Ethyl-N-toluidino)ethanol, acetate
Formula: C13 H19 N O2
Molecular weight: 221
Origin: NIST Mass Spectrometry Data Center
m/z	RELATIVE INTENSITY
14	20
15	130
16	10
18	10
25	10
26	30
27	190
28	180
29	290
30	40
31	10
37	10
38	20
39	260
40	40
41	160
42	200
43	2052
44	80
45	30
50	60
51	180
52	80
53	70
54	40
55	20
56	130
57	10
58	20
60	10
61	40
62	40
63	230
64	90
65	1101
66	90
67	20
68	10
69	10
70	10
73	20
74	20
75	30
76	50
77	701
78	250
79	230
80	70
81	10
87	1551
88	80
89	440
90	280
91	3843
92	751
93	550
94	60
95	10
101	10
102	30
103	170
104	230
105	631
106	200
107	80
108	20
114	10
115	80
116	70
117	390
118	2312
119	1171
120	5515
121	550
122	20
127	10
128	10
129	10
130	200
131	160
132	561
133	881
134	390
135	90
136	10
142	10
143	20
144	70
145	40
146	440
147	400
148	9999
149	3123
150	170
151	10
156	10
157	10
158	20
159	20
160	550
161	530
162	350
163	50
164	20
174	10
176	20
177	10
178	90
179	10
192	10
206	70
207	10
219	10
221	2803
222	430
223	40
224	10
