Mass Spectrum: N-Hydroxy-3,4-(methylenedioxy)amphetamine, TMS derivative
Formula: C13 H21 N O3 Si
Molecular weight: 267
Origin: NIST Mass Spectrometry Data Center
m/z	RELATIVE INTENSITY
15	40
26	10
27	70
28	130
29	70
30	70
31	40
37	10
38	20
39	160
40	30
41	70
42	490
43	200
44	160
45	651
46	50
47	520
48	30
49	20
50	140
51	901
52	150
53	110
54	20
55	60
56	80
57	50
58	80
59	550
60	110
61	300
62	60
63	130
64	40
65	160
66	40
67	40
68	10
69	10
70	20
71	10
72	20
73	991
74	250
75	6236
76	631
77	2252
78	520
79	430
80	60
81	10
83	10
84	10
85	10
86	30
87	10
88	30
89	240
90	60
91	160
92	40
93	30
94	10
95	10
98	10
99	10
100	50
101	20
102	360
103	260
104	240
105	811
106	240
107	70
108	10
109	10
114	10
116	8488
117	901
118	691
119	90
120	90
121	100
122	60
123	10
126	60
130	20
131	170
132	9999
133	1221
134	561
135	7216
136	3433
137	310
138	30
145	10
146	40
147	120
148	120
149	110
150	20
151	20
159	10
160	50
161	110
162	200
163	130
164	20
165	20
166	10
167	10
174	20
175	20
176	30
177	70
178	110
179	260
180	40
181	40
182	10
192	10
193	70
194	90
195	30
196	10
204	10
205	100
206	30
207	50
208	10
209	40
210	10
211	10
218	10
219	10
220	20
221	10
222	20
223	10
234	10
235	380
236	90
237	60
238	10
252	50
253	10
267	10
