Mass Spectrum: 3,6,9,12,15,18,21-Heptaoxadocosan-1-ol, TBDMS derivative
Formula: C21 H46 O8 Si
Molecular weight: 454
Origin: NIST Mass Spectrometry Data Center, 2007
m/z	RELATIVE INTENSITY
15	40
19	10
26	10
27	70
28	210
29	520
30	50
31	561
32	10
33	10
39	30
40	10
41	250
42	160
43	1001
44	380
45	2012
46	60
47	40
51	10
53	10
55	40
56	60
57	230
58	761
59	9999
60	410
61	170
62	10
63	10
67	10
69	40
70	50
71	591
72	320
73	3343
74	260
75	821
76	60
77	80
78	10
83	10
84	10
85	50
86	50
87	771
88	320
89	1281
90	90
91	40
95	30
97	10
99	80
100	30
101	971
102	240
103	7547
104	500
105	150
106	10
113	40
115	1041
116	130
117	731
118	180
119	480
120	50
121	20
127	10
129	20
130	10
131	170
132	30
133	1291
134	130
135	50
139	20
143	30
145	631
146	130
147	1682
148	150
149	30
157	10
158	30
159	1381
160	190
161	90
162	10
163	200
164	20
165	10
175	50
176	20
177	781
178	100
179	30
187	10
189	390
190	60
191	60
192	10
201	10
203	160
204	30
205	10
207	130
208	20
209	10
219	10
221	120
222	20
223	10
233	110
234	20
235	10
247	10
251	40
252	10
265	20
277	50
278	10
295	20
321	10
339	10
