Mass Spectrum: Traumatic acid, (E)-, 2TMS derivative
Formula: C18 H36 O4 Si2
Molecular weight: 372
Origin: NIST Mass Spectrometry Data Center
m/z	RELATIVE INTENSITY
15	20
26	10
27	140
29	230
30	10
31	30
38	10
39	240
40	90
41	931
42	190
43	721
44	210
45	1191
46	80
47	550
48	30
49	30
52	20
53	540
54	230
55	3393
56	240
57	410
58	210
59	480
60	110
61	561
62	40
63	20
65	70
66	80
67	1321
68	891
69	721
70	100
71	190
72	420
73	9999
74	1051
75	8918
76	681
77	510
78	50
79	681
80	230
81	3713
82	1061
83	671
84	130
85	270
86	100
87	80
88	70
89	170
90	30
91	591
92	100
93	601
94	340
95	1441
96	460
97	561
98	611
99	520
100	80
101	130
102	30
103	60
104	50
105	631
106	150
107	671
108	731
109	530
110	350
111	641
112	160
113	110
114	30
115	80
116	500
117	1341
118	180
119	490
120	300
121	851
122	681
123	771
124	160
125	140
126	30
127	120
129	2272
130	380
131	430
132	220
133	651
134	130
135	370
136	601
137	240
138	80
139	110
140	20
141	90
142	611
143	871
144	170
145	350
146	230
147	2893
148	470
149	1001
150	270
151	370
152	40
153	30
154	80
155	1251
156	280
157	290
158	270
159	150
160	30
161	20
162	20
163	110
164	3023
165	661
166	70
167	130
168	50
169	210
170	90
171	300
172	100
173	110
174	250
175	80
176	10
177	30
179	20
181	60
182	30
183	110
184	40
185	180
186	70
187	60
188	10
189	40
190	40
191	60
192	3183
193	480
194	50
195	50
196	10
197	60
198	20
199	80
200	20
201	50
202	10
203	160
204	320
205	80
206	50
207	30
209	20
210	10
211	390
212	90
213	50
214	10
215	230
216	80
217	190
218	30
219	30
220	10
221	20
223	60
224	20
225	160
226	30
227	20
228	10
229	60
230	100
231	50
232	10
233	10
237	20
238	10
239	721
240	140
241	220
242	30
243	220
244	40
245	30
249	30
253	10
254	190
255	50
256	30
257	30
259	10
261	10
264	10
267	190
268	50
269	20
271	30
273	10
282	120
283	50
284	20
285	30
286	10
287	30
288	10
289	10
299	10
300	10
313	490
314	130
315	50
316	10
329	40
330	20
341	90
342	20
343	10
357	1291
358	350
359	170
360	30
361	10
372	40
373	10
374	10
