Mass Spectrum: Niacin, TBDMS derivative
Formula: C12 H19 N O2 Si
Molecular weight: 237
Origin: NIST Mass Spectrometry Data Center
m/z	RELATIVE INTENSITY
15	10
26	10
27	40
28	30
29	130
31	10
38	10
39	110
40	20
41	270
42	40
43	110
44	20
45	230
46	20
47	150
48	10
49	10
50	130
51	661
52	90
53	60
54	10
55	50
56	40
57	230
58	80
59	160
60	40
61	50
62	10
63	10
65	10
66	10
67	20
68	10
69	10
70	10
71	10
72	10
73	270
74	50
75	420
76	60
77	100
78	2492
79	180
80	10
81	10
82	10
83	30
84	10
85	20
86	10
90	30
91	10
92	20
93	50
94	20
95	10
96	10
97	10
99	60
100	10
101	10
104	10
106	3393
107	260
108	50
109	40
110	20
111	10
119	10
120	70
121	20
122	70
123	10
124	10
132	10
134	20
136	3783
137	530
138	180
139	20
150	80
151	20
152	10
153	10
162	20
164	30
165	30
166	10
180	9999
181	1661
182	540
183	50
206	20
222	80
223	10
