Mass Spectrum: 5-Hexen-1-ol, TBDMS derivative
Formula: C12 H26 O Si
Molecular weight: 214
Origin: NIST Mass Spectrometry Data Center
m/z	RELATIVE INTENSITY
15	10
26	20
27	190
28	70
29	400
30	10
31	40
37	10
38	20
39	540
40	90
41	1271
42	140
43	290
44	50
45	621
46	40
47	540
48	30
49	20
50	20
51	40
52	20
53	200
54	140
55	621
56	140
57	530
58	450
59	1141
60	180
61	450
62	30
63	20
64	10
65	30
66	20
67	170
68	20
69	50
70	20
71	100
72	100
73	1742
75	9999
76	831
77	450
78	20
79	170
80	20
81	470
82	50
83	110
84	30
85	350
86	50
87	290
88	210
89	1471
90	130
91	50
95	30
96	10
97	90
99	2062
100	270
101	2212
102	280
103	110
104	10
109	20
110	10
111	110
112	20
113	240
114	60
115	1111
116	120
117	60
123	30
125	20
127	3793
128	530
129	1001
130	110
131	40
132	10
133	10
139	40
140	10
141	50
142	10
143	80
144	10
145	20
155	10
157	8708
158	1361
159	430
160	30
169	10
171	10
199	230
200	40
201	10
