Mass Spectrum: 2-Hydroxy-5-methoxybenzoic acid, tert-butyldimethylsilyl ether, tert-butyldimethylsilyl ester
Formula: C20 H36 O4 Si2
Molecular weight: 396
Origin: NIST Mass Spectrometry Data Center
m/z	RELATIVE INTENSITY
27	10
29	120
31	10
39	60
40	10
41	290
42	20
43	80
44	20
45	250
46	20
47	40
50	10
51	20
52	10
53	20
55	40
56	70
57	510
58	130
59	500
60	40
61	40
62	10
63	40
64	10
65	20
66	10
67	10
69	20
70	10
71	20
73	9048
74	801
75	611
76	40
77	110
78	50
79	70
80	10
81	10
82	10
83	120
84	20
85	100
86	10
87	10
89	50
90	20
91	190
92	40
93	50
94	10
95	50
96	10
97	30
98	20
99	90
100	20
101	20
102	10
103	70
104	30
105	130
106	50
107	120
108	30
109	40
110	20
111	30
112	30
113	20
115	150
116	20
117	40
118	20
119	150
121	430
122	60
123	60
124	10
125	10
126	10
127	10
128	10
129	20
131	70
132	20
133	440
134	90
135	220
136	60
137	200
138	40
139	20
141	210
143	30
144	10
145	30
146	10
147	240
148	60
149	250
150	120
151	210
152	30
153	50
154	10
155	10
157	20
158	10
159	10
160	10
161	20
162	10
163	40
164	20
165	530
166	260
167	80
168	20
169	10
173	10
175	20
176	10
177	20
178	20
179	70
180	130
181	761
182	160
183	60
184	10
185	10
189	30
190	10
191	190
192	50
193	80
194	30
195	80
196	60
197	20
198	10
203	20
204	10
205	40
206	10
207	50
208	30
209	380
210	100
211	80
212	10
217	10
219	20
220	10
221	20
222	30
223	230
224	230
225	671
226	110
227	40
231	10
233	10
234	10
235	20
236	10
237	20
238	20
239	460
240	110
241	50
242	10
249	60
250	20
251	60
252	10
253	20
254	110
255	40
256	10
263	40
264	10
265	230
266	80
267	110
268	30
269	10
279	20
280	10
281	130
282	40
283	40
284	10
293	10
297	30
298	10
307	10
308	10
309	10
323	20
324	10
325	10
337	20
339	9999
340	2983
341	1181
342	220
343	40
381	390
382	120
383	50
384	10
395	10
