Mass Spectrum: 3-Methylcatechol, diacetate
Formula: C11 H12 O4
Molecular weight: 208
Origin: NIST Mass Spectrometry Data Center
m/z	RELATIVE INTENSITY
14	10
15	50
26	10
27	20
28	10
29	10
37	10
38	30
39	220
40	100
41	100
42	70
43	2232
44	50
45	10
50	40
51	130
52	60
53	40
54	10
55	70
61	10
62	20
63	70
64	20
65	260
66	310
67	150
68	20
69	10
74	10
75	10
76	10
77	340
78	530
79	80
80	10
81	10
89	10
91	10
93	10
94	90
95	170
96	30
105	80
106	360
107	100
108	10
121	10
122	20
123	941
124	9999
125	971
126	80
135	10
136	10
137	10
149	20
151	10
166	1722
167	180
168	20
208	190
209	20
