Mass Spectrum: L-Threonic acid, tris(trimethylsilyl) ether, trimethylsilyl ester
Formula: C16 H40 O5 Si4
Molecular weight: 424
Origin: NIST Mass Spectrometry Data Center
m/z	RELATIVE INTENSITY
29	10
31	10
39	10
41	20
43	90
44	100
45	671
46	50
47	60
53	20
54	10
55	260
56	20
57	40
58	100
59	330
60	30
61	50
66	10
67	10
68	10
69	10
70	30
71	40
72	240
73	9999
74	911
75	651
76	30
77	10
83	120
84	10
85	30
86	10
87	40
88	30
89	160
90	10
91	10
99	40
100	10
101	160
102	550
103	1441
104	160
105	80
106	10
111	10
113	60
114	10
115	90
116	50
117	1732
118	180
119	160
120	10
121	10
127	20
128	10
129	400
130	480
131	410
132	80
133	871
134	120
135	80
136	10
142	10
143	230
144	30
145	40
147	5955
148	981
149	611
150	60
151	30
157	70
158	10
159	30
160	10
161	40
162	10
163	70
164	10
165	10
173	20
175	70
176	10
177	260
178	50
179	20
187	10
189	330
190	70
191	130
192	30
193	20
201	10
202	10
203	90
204	230
205	2202
206	430
207	280
208	50
209	20
215	10
217	1441
218	300
219	210
220	2152
221	751
222	270
223	70
224	10
231	20
232	10
244	10
245	280
246	60
247	30
248	10
263	10
265	10
277	180
278	60
279	30
280	10
289	10
291	350
292	4454
293	1321
294	661
295	130
296	30
297	10
305	70
306	20
307	60
308	20
309	10
319	430
320	130
321	110
322	30
323	10
333	10
334	10
379	90
380	30
381	20
409	190
410	70
411	40
412	10
