Mass Spectrum: Tropic acid, 2TBDMS derivative
Formula: C21 H38 O3 Si2
Molecular weight: 394
Origin: NIST Mass Spectrometry Data Center
m/z	RELATIVE INTENSITY
27	30
29	150
31	20
38	10
39	80
40	20
41	340
42	30
43	110
44	30
45	280
46	20
47	120
48	10
49	10
50	10
51	30
52	10
53	20
55	170
56	160
57	591
58	240
59	540
60	70
61	90
62	10
63	20
64	10
65	20
66	20
67	10
69	10
70	10
71	20
73	5335
74	480
75	1391
76	110
77	220
78	270
79	30
81	10
82	10
83	20
84	10
85	90
86	20
87	20
88	40
89	881
90	220
91	160
92	20
95	10
96	10
97	851
99	110
100	40
101	40
102	100
103	1241
104	1932
105	410
106	30
107	20
109	10
111	611
113	20
115	440
116	60
117	200
118	210
119	180
120	30
121	60
122	10
123	10
125	10
126	110
128	20
129	70
130	20
131	430
132	100
133	1051
134	160
135	320
136	40
137	50
138	10
140	120
143	20
144	10
145	120
147	9999
148	1712
149	961
150	100
151	30
157	10
159	80
160	20
161	200
162	40
163	200
164	30
165	20
173	30
174	10
175	50
176	10
177	250
178	60
179	70
180	10
181	10
187	10
189	1531
190	280
191	130
192	40
193	70
194	10
195	60
196	10
197	10
203	20
205	651
206	110
207	50
208	10
209	80
210	20
211	10
219	80
220	20
221	20
223	20
231	20
232	10
233	10
235	130
236	30
237	20
247	20
248	10
251	30
252	10
253	10
263	10
265	10
279	60
280	20
281	10
293	10
295	10
309	651
310	180
311	70
312	10
321	80
322	20
323	10
335	10
337	4114
338	1191
339	460
340	90
341	10
364	10
379	120
380	40
381	20
