Mass Spectrum: Oleyl alcohol, TBDMS derivative
Formula: C24 H50 O Si
Molecular weight: 382
Origin: NIST Mass Spectrometry Data Center
m/z	RELATIVE INTENSITY
26	10
27	90
28	10
29	280
30	10
31	10
38	10
39	160
40	40
41	1151
42	240
43	981
44	40
45	130
46	10
47	150
48	10
49	10
50	10
51	10
52	10
53	130
54	300
55	1782
56	490
57	961
58	160
59	581
60	70
61	350
62	20
63	10
65	40
66	40
67	1101
68	200
69	1261
70	300
71	220
72	50
73	1591
74	50
75	9999
76	771
77	500
78	60
79	260
80	110
81	1271
82	210
83	1111
84	120
85	270
86	40
87	200
88	90
89	1411
90	120
91	110
92	40
93	160
94	50
95	1481
96	190
97	891
98	90
99	380
100	70
101	831
102	100
103	110
104	10
105	20
106	20
107	80
108	20
109	971
110	110
111	370
112	40
113	210
114	40
115	701
116	80
117	60
118	10
119	10
120	10
121	80
122	20
123	500
124	70
125	130
126	20
127	220
128	40
129	510
130	60
131	50
132	10
133	30
134	10
135	60
136	10
137	230
138	30
139	80
140	10
141	170
142	30
143	550
144	70
145	40
149	30
150	10
151	100
152	20
153	60
154	10
155	90
156	20
157	350
158	50
159	20
163	10
165	60
166	10
167	40
168	10
169	80
170	20
171	300
172	40
173	20
177	10
179	30
180	10
181	30
182	10
183	50
184	10
185	390
186	60
187	20
193	20
194	10
195	30
196	10
197	40
198	10
199	300
200	50
201	20
207	10
209	20
211	30
212	10
213	210
214	40
215	10
221	20
223	10
225	20
227	140
228	30
229	10
237	10
239	10
241	120
242	20
243	10
247	10
249	50
250	10
251	10
253	10
255	80
256	20
265	10
267	20
269	260
270	60
271	20
279	20
280	10
281	10
283	70
284	20
293	10
295	60
297	1441
298	360
299	90
300	10
307	70
308	20
309	30
310	10
311	20
323	80
325	7977
326	2292
327	601
328	90
329	10
339	10
367	140
368	40
369	10
381	10
