Mass Spectrum: trans-3-Hexen-1-ol, trifluoroacetate
Formula: C8 H11 F3 O2
Molecular weight: 196
Origin: NIST Mass Spectrometry Data Center
m/z	RELATIVE INTENSITY
14	10
15	90
20	10
26	130
27	1351
28	370
29	1021
30	50
31	70
32	10
33	50
37	40
38	150
39	2232
40	400
41	5865
42	771
43	260
44	60
45	80
46	10
47	50
49	10
50	330
51	350
52	160
53	1041
54	1181
55	2913
56	300
57	50
59	100
60	10
61	20
62	30
63	70
64	20
65	420
66	200
67	9999
68	671
69	4684
70	110
71	10
73	40
74	10
75	10
77	150
78	100
79	330
80	70
81	851
82	6406
83	911
84	40
85	20
87	10
89	10
91	50
93	10
95	10
97	370
98	10
99	340
100	10
101	10
103	10
105	20
109	10
111	10
112	10
113	10
115	10
125	30
127	40
141	10
153	20
