Mass Spectrum: Linalool, TMS derivative
Formula: C13 H26 O Si
Molecular weight: 226
Origin: NIST Mass Spectrometry Data Center
m/z	RELATIVE INTENSITY
15	10
26	10
27	170
28	20
29	170
30	10
31	20
38	10
39	350
40	100
41	1631
42	110
43	530
44	130
45	851
46	60
47	470
48	20
49	20
50	20
51	80
52	40
53	470
54	60
55	591
56	50
57	70
58	70
59	260
60	80
61	420
62	30
63	30
64	10
65	120
66	50
67	540
68	250
69	1621
70	130
71	50
72	90
73	6736
74	651
75	4284
76	310
77	430
78	50
79	450
80	2172
81	320
82	50
83	170
84	20
85	130
86	10
87	50
88	10
89	40
90	10
91	450
92	991
93	4254
94	591
95	120
96	20
97	40
98	10
99	80
100	10
101	40
102	10
103	50
104	10
105	210
106	40
107	400
108	90
109	70
110	10
111	50
112	10
113	170
114	20
115	180
116	20
117	60
118	10
119	50
121	1261
122	130
123	20
125	40
126	10
127	240
128	50
129	150
130	90
131	140
132	20
133	10
135	150
136	721
137	110
138	10
139	10
141	120
143	9999
144	1411
145	460
146	30
151	10
153	10
155	170
156	50
157	220
158	150
159	30
160	10
165	10
167	10
168	10
169	90
170	20
171	10
183	160
184	30
185	10
193	30
194	10
195	10
197	10
198	10
199	120
200	20
201	10
211	220
212	40
213	10
226	30
227	10
