Mass Spectrum: 2-(2-Butoxyethoxy)ethanol, TBDMS derivative
Formula: C14 H32 O3 Si
Molecular weight: 276
Origin: NIST Mass Spectrometry Data Center, 2007
m/z	RELATIVE INTENSITY
15	60
19	30
26	40
27	380
28	290
29	2232
30	80
31	150
37	10
38	10
39	310
40	60
41	3263
42	200
43	540
44	190
45	7056
46	190
47	220
48	10
49	10
50	10
51	20
53	60
54	20
55	1381
56	420
57	9999
58	951
59	1371
60	170
61	450
62	30
63	40
66	10
67	10
69	30
70	20
71	110
72	270
73	3733
74	460
75	5095
76	370
77	370
78	20
79	20
81	10
83	380
84	30
85	160
86	40
87	871
88	400
89	781
90	80
91	50
97	20
99	130
101	5745
102	581
103	2012
104	180
105	110
115	420
116	60
117	971
118	110
119	1231
120	110
121	50
129	20
131	621
132	80
133	50
143	10
145	250
146	30
147	571
148	60
149	30
159	420
160	60
161	30
163	180
164	20
165	10
175	90
176	10
189	60
203	20
219	2162
220	340
221	80
