Mass Spectrum: 2-Methyl-1-pentanol, pentafluoropropionate
Formula: C9 H13 F5 O2
Molecular weight: 248
Origin: NIST Mass Spectrometry Data Center
m/z	RELATIVE INTENSITY
15	50
26	70
27	1261
28	250
29	1511
30	60
31	170
33	40
37	20
38	60
39	1441
40	310
41	4754
42	1882
43	9999
44	430
45	70
47	50
50	150
51	110
52	30
53	350
54	190
55	3143
56	4794
57	871
58	50
59	60
60	10
61	70
62	10
63	20
65	60
66	20
67	240
69	5525
70	440
71	6826
72	410
73	10
77	20
78	60
79	20
80	10
81	70
82	30
83	210
84	2923
85	2332
86	150
87	10
93	10
97	40
99	20
100	550
101	20
109	40
111	10
117	10
119	5525
120	130
128	70
129	110
130	10
145	10
147	561
148	20
149	150
150	10
163	30
165	10
175	20
177	20
178	10
191	10
203	10
204	10
205	70
206	10
219	40
