Mass Spectrum: 1,6-Heptadien-4-ol, trifluoroacetate
Formula: C9 H11 F3 O2
Molecular weight: 208
Origin: NIST Mass Spectrometry Data Center
m/z	RELATIVE INTENSITY
14	20
15	180
16	10
18	10
20	20
25	10
26	230
27	2212
28	440
29	681
30	10
31	80
32	10
33	40
37	100
38	380
39	5605
40	781
41	6366
42	881
43	320
44	110
45	170
46	70
47	1271
48	30
49	20
50	440
51	741
52	370
53	9539
54	1171
55	851
56	50
57	50
59	120
60	10
61	50
62	70
63	180
64	60
65	651
66	2402
67	2142
68	470
69	9999
70	240
71	340
72	120
73	841
74	50
75	20
77	1391
78	561
79	9949
80	751
81	100
82	10
83	50
84	10
85	30
86	10
87	10
88	10
89	390
91	4004
92	210
93	981
94	2993
95	2022
96	180
97	1001
98	30
99	651
100	30
101	20
103	10
107	10
109	10
111	30
112	110
113	30
115	20
117	40
118	10
119	160
120	10
121	40
123	10
125	30
127	10
131	10
137	30
138	30
139	691
140	60
141	10
148	10
149	60
150	20
151	10
152	20
153	30
154	10
160	20
161	10
164	60
166	1641
167	1201
168	80
169	20
179	10
180	10
