Mass Spectrum: 4-Bromoguaiacol, acetate
Formula: C9 H9 Br O3
Molecular weight: 244
Origin: NIST Mass Spectrometry Data Center
m/z	RELATIVE INTENSITY
14	60
15	390
25	10
26	40
27	30
28	80
29	100
30	20
31	100
36	10
37	120
38	170
39	230
40	30
41	160
42	310
43	5585
44	130
45	30
48	10
49	180
50	1221
51	2793
52	671
53	450
54	40
55	160
56	10
58	10
59	10
60	20
61	230
62	550
63	1331
64	280
65	781
66	430
67	120
68	20
69	20
73	30
74	150
75	170
76	110
77	350
78	130
79	2803
80	340
81	50
82	20
90	20
91	70
92	150
93	170
94	1291
95	170
96	10
104	90
105	30
106	110
107	90
108	410
109	70
115	10
116	30
117	140
118	30
119	140
120	10
121	50
122	50
123	581
124	80
125	10
128	10
129	50
130	50
131	150
132	60
133	120
134	20
135	30
137	10
141	10
142	50
143	520
144	80
145	510
146	30
154	10
155	140
156	20
157	190
158	120
159	1682
160	190
161	1511
162	90
163	10
170	130
171	70
172	140
173	190
174	30
175	130
176	10
185	10
187	4404
188	330
189	4314
190	280
191	30
199	40
200	20
201	90
202	9999
203	851
204	9709
205	751
206	70
215	10
244	420
245	40
246	410
247	40
