Mass Spectrum: Oleyl alcohol, methyl ether
Formula: C19 H38 O
Molecular weight: 282
Origin: NIST Mass Spectrometry Data Center
m/z	RELATIVE INTENSITY
15	20
26	10
27	260
28	60
29	751
30	20
31	30
33	40
38	10
39	550
40	120
41	3473
42	571
43	2172
45	5225
46	120
47	20
50	10
51	40
52	40
53	591
54	2632
55	6666
56	1311
57	1722
58	410
59	160
60	10
63	10
65	210
66	731
67	5885
68	3753
69	4094
70	911
71	2182
72	140
73	20
77	200
78	60
79	801
80	641
81	6166
82	9999
83	4014
84	510
85	691
86	50
87	50
91	120
92	20
93	240
94	330
95	5425
96	7106
97	2662
98	310
99	110
100	50
101	20
105	10
107	80
108	140
109	2963
110	2532
111	871
112	140
113	160
114	60
115	10
121	60
122	150
123	1621
124	1521
125	350
126	70
127	230
128	30
135	30
136	90
137	871
138	821
139	130
140	40
141	70
142	10
149	10
150	10
151	260
152	320
153	50
154	40
155	20
165	110
166	160
167	30
168	80
169	30
179	60
180	100
181	20
182	40
183	20
193	110
194	130
195	20
197	10
207	60
208	70
209	10
211	10
221	20
222	140
223	20
225	10
235	10
239	10
250	681
251	130
252	10
281	10
282	110
283	20
