Mass Spectrum: 2'-Hydroxy-4'-methoxyacetophenone, acetate
Formula: C11 H12 O4
Molecular weight: 208
Origin: NIST Mass Spectrometry Data Center
m/z	RELATIVE INTENSITY
14	20
15	150
26	10
27	40
28	40
29	30
37	20
38	60
39	170
40	30
41	120
42	120
43	2312
44	50
45	20
49	10
50	120
51	360
52	180
53	180
54	20
55	80
56	10
59	20
60	10
61	30
62	110
63	290
64	110
65	220
66	120
67	50
68	10
69	190
70	10
74	40
75	30
76	20
77	220
78	70
79	390
80	140
81	30
82	10
83	10
89	20
90	20
91	60
92	80
93	70
94	110
95	340
96	20
105	30
106	50
107	270
108	330
109	110
110	10
119	10
120	40
121	70
122	130
123	50
124	10
132	10
133	10
134	10
135	40
136	30
137	120
138	10
148	10
149	20
151	9999
152	871
153	90
154	10
165	60
166	3453
167	340
168	40
193	10
208	280
209	30
