Mass Spectrum: 1-Nonadecanol, TMS derivative
Formula: C22 H48 O Si
Molecular weight: 356
Origin: NIST Mass Spectrometry Data Center
m/z	RELATIVE INTENSITY
27	50
28	10
29	210
39	70
41	811
42	180
43	1491
44	70
45	160
46	10
47	90
53	60
54	110
55	1111
56	260
57	1481
58	150
59	280
60	40
61	460
62	30
63	20
65	10
66	10
67	240
68	150
69	931
70	170
71	651
72	110
73	1972
74	210
75	3863
76	290
77	240
78	20
79	40
80	10
81	220
82	180
83	1161
84	140
85	480
86	40
87	120
88	70
89	901
90	90
91	490
92	40
93	40
94	10
95	170
96	100
97	1181
98	130
99	250
100	30
101	460
102	70
103	1872
104	180
105	80
107	20
109	90
110	40
111	571
112	80
113	140
114	30
115	300
116	40
117	30
118	10
121	10
123	30
124	20
125	210
126	40
127	70
128	10
129	200
130	30
131	50
137	10
138	10
139	60
140	20
141	30
143	70
144	10
145	30
151	10
152	10
153	30
154	10
155	10
157	40
158	10
159	20
167	20
168	10
169	10
171	40
172	10
173	10
181	10
182	10
183	10
185	40
195	10
199	30
200	10
213	30
214	10
227	40
228	10
238	20
241	50
242	10
255	60
256	10
266	20
267	10
269	40
270	10
271	10
283	20
325	110
326	30
327	10
339	20
341	9999
342	3033
343	801
344	120
345	10
355	10
356	10
