Mass Spectrum: 2-Methyl-3-pentanol, TMS derivative
Formula: C9 H22 O Si
Molecular weight: 174
Origin: NIST Mass Spectrometry Data Center
m/z	RELATIVE INTENSITY
15	20
26	10
27	200
28	40
29	200
30	10
31	30
38	10
39	180
40	30
41	470
42	80
43	741
44	210
45	951
46	70
47	310
48	20
49	10
50	10
51	20
52	10
53	60
54	20
55	240
56	70
57	160
58	180
59	591
60	100
61	440
62	30
63	20
65	10
67	30
69	100
70	50
71	90
72	220
73	8618
74	891
75	3934
76	270
77	130
83	40
84	20
85	130
86	20
87	50
88	20
89	20
91	10
97	10
99	150
100	20
101	280
102	30
103	70
104	10
111	10
113	20
115	270
116	80
117	100
118	10
129	90
131	9999
132	1441
133	500
134	30
143	30
145	4004
146	530
147	170
148	10
157	10
159	1141
160	160
161	50
173	90
174	10
