Mass Spectrum: trans-2-Dodecen-1-ol, trifluoroacetate
Formula: C14 H23 F3 O2
Molecular weight: 280
Origin: NIST Mass Spectrometry Data Center
m/z	RELATIVE INTENSITY
15	30
20	20
25	10
26	90
27	1902
28	611
29	3663
30	80
31	40
33	20
37	20
38	60
39	2302
40	470
41	9038
42	2362
43	9999
44	430
45	70
46	10
47	180
49	10
50	120
51	220
52	160
53	2532
54	4764
55	7597
56	5725
57	6546
58	280
59	260
60	10
61	10
62	10
63	30
64	10
65	520
66	791
67	5285
68	3663
69	9328
70	6055
71	3143
72	170
73	100
74	10
75	10
77	380
78	120
79	1101
80	581
81	4794
82	5885
83	5405
84	3343
85	741
86	40
89	40
91	360
92	30
93	250
94	260
95	3743
96	4854
97	4144
98	1051
99	320
100	10
103	10
105	20
106	10
107	60
108	90
109	1802
110	1682
111	1211
112	1301
113	120
114	10
115	20
117	10
119	10
121	20
122	30
123	701
124	931
125	380
126	320
127	40
134	10
135	20
136	20
137	440
138	1371
139	180
140	30
141	10
149	10
150	10
151	70
152	10
153	130
154	30
155	20
163	10
164	10
165	20
166	691
167	190
168	20
169	10
180	30
181	10
193	10
195	10
211	20
252	10
280	20
