Mass Spectrum: 4-Methoxyphenol, TBDMS derivative
Formula: C13 H22 O2 Si
Molecular weight: 238
Origin: NIST Mass Spectrometry Data Center
m/z	RELATIVE INTENSITY
15	20
27	30
28	10
29	120
31	20
38	10
39	100
40	10
41	260
42	30
43	180
44	20
45	180
46	10
47	40
50	30
51	50
52	40
53	60
54	30
55	70
56	30
57	210
58	140
59	360
60	40
61	60
62	20
63	110
64	130
65	80
66	20
67	30
68	10
69	60
70	10
71	10
73	611
74	70
75	550
76	90
77	350
78	100
79	70
80	30
81	40
82	20
83	160
84	40
85	70
86	10
87	10
89	220
91	310
92	300
93	60
94	10
95	310
96	70
97	40
98	10
99	50
100	10
101	10
103	10
104	10
105	40
106	20
107	180
108	140
109	120
110	200
111	50
112	10
113	20
115	20
119	20
120	20
121	390
122	90
123	550
124	90
125	70
126	10
127	10
131	20
133	30
134	10
135	310
136	80
137	130
138	210
139	50
140	10
147	20
148	20
149	250
150	180
151	550
152	80
153	120
154	20
161	10
163	10
164	10
165	210
166	330
167	210
168	40
169	10
177	10
179	60
181	9999
182	2652
183	671
184	90
185	10
207	10
223	40
224	10
238	1672
239	330
240	90
241	10
