Mass Spectrum: 5-Amino-2-methoxyphenol, N,O-diacetyl-
Formula: C11 H13 N O4
Molecular weight: 223
Origin: NIST Mass Spectrometry Data Center
m/z	RELATIVE INTENSITY
14	50
15	360
26	40
27	60
28	160
29	60
30	20
31	10
36	10
37	20
38	90
39	420
40	160
41	350
42	360
43	4654
44	150
45	90
49	10
50	120
51	320
52	440
53	360
54	100
55	110
56	10
58	10
59	10
60	80
61	10
62	50
63	90
64	60
65	230
66	160
67	540
68	601
69	130
70	20
74	10
75	10
76	30
77	90
78	160
79	330
80	500
81	100
82	60
83	20
89	10
90	20
91	30
92	130
93	140
94	140
95	550
96	1581
97	110
98	10
104	10
105	20
106	70
107	100
108	140
109	100
110	1111
111	430
112	40
119	10
120	70
121	120
122	290
124	9999
125	771
126	70
128	10
133	10
134	20
135	20
136	60
137	70
138	651
139	5975
140	611
141	60
142	10
148	100
149	40
150	200
151	30
152	120
153	10
162	10
163	20
164	20
165	120
166	150
167	20
179	10
180	140
181	6916
182	711
183	70
184	10
192	10
205	10
207	10
208	10
223	1091
224	140
225	20
