Mass Spectrum: 2,5-Dihydroxyacetophenone, 2TMS derivative
Formula: C14 H24 O3 Si2
Molecular weight: 296
Origin: NIST Mass Spectrometry Data Center
m/z	RELATIVE INTENSITY
15	10
27	10
28	20
29	30
31	10
39	10
42	10
43	430
44	80
45	711
46	50
47	70
50	10
51	20
52	10
53	30
54	10
55	40
56	10
57	40
58	40
59	80
60	10
61	50
62	10
63	50
64	10
65	20
66	10
67	20
68	10
69	30
70	20
71	20
72	40
73	2562
74	230
75	500
76	50
77	130
78	40
79	40
80	10
81	20
82	20
83	110
84	20
85	50
86	10
87	10
88	10
89	80
90	30
91	110
92	20
93	50
94	10
95	60
96	20
97	50
98	10
99	20
101	20
102	30
103	90
104	80
105	130
106	20
107	60
108	10
109	90
110	120
111	80
112	40
113	20
115	100
116	90
117	90
118	100
119	100
120	20
121	70
122	10
123	30
124	130
125	50
126	20
127	20
128	20
129	30
130	10
131	60
132	20
133	761
135	150
136	30
137	90
138	20
139	10
141	10
143	30
145	40
146	10
147	140
148	40
149	180
150	70
151	90
152	20
153	10
155	10
157	10
159	60
160	10
161	70
162	30
163	140
164	30
165	100
166	40
167	50
168	10
169	10
171	10
173	10
174	10
175	30
176	10
177	70
178	10
179	110
180	190
181	60
182	10
183	10
185	10
187	10
189	20
190	10
191	130
192	40
193	70
194	20
195	40
196	10
203	20
204	10
205	20
206	30
207	60
208	60
209	120
210	20
211	10
219	10
221	30
222	10
223	140
224	30
225	20
233	30
234	10
235	30
236	10
237	90
238	20
239	100
240	20
241	10
247	20
248	10
249	30
250	10
251	90
252	30
253	40
254	10
263	110
264	30
265	160
266	40
267	30
268	10
279	50
281	9999
282	2572
283	1031
284	170
285	30
296	310
297	80
298	30
