Mass Spectrum: 1,5-Hexadien-3-ol, acetate
Formula: C8 H12 O2
Molecular weight: 140
Origin: NIST Mass Spectrometry Data Center
m/z	RELATIVE INTENSITY
14	20
15	170
26	90
27	581
28	150
29	240
30	10
31	40
37	30
38	90
39	971
40	130
41	631
42	240
43	9999
44	240
45	50
49	10
50	130
51	210
52	160
53	390
54	100
55	340
56	110
57	651
58	30
60	10
61	20
62	10
63	40
64	10
65	130
66	80
67	40
68	20
69	50
70	60
71	160
72	10
73	10
74	20
75	10
76	10
77	410
78	80
79	1391
80	801
81	280
82	30
83	60
84	20
86	10
87	50
95	10
96	10
97	110
98	220
99	4004
100	230
101	20
103	10
112	80
113	10
125	10
