Mass Spectrum: 3-Methoxyphenol, TBDMS derivative
Formula: C13 H22 O2 Si
Molecular weight: 238
Origin: NIST Mass Spectrometry Data Center
m/z	RELATIVE INTENSITY
15	30
27	50
29	160
30	10
31	20
37	10
38	20
39	130
40	20
41	280
42	40
43	120
44	20
45	160
46	10
47	50
50	30
51	60
52	40
53	60
54	10
55	60
56	30
57	220
58	70
59	400
60	40
61	70
62	20
63	130
64	210
65	70
66	30
67	30
68	10
69	50
70	10
71	10
72	10
73	340
74	50
75	661
76	110
77	330
78	80
79	60
80	20
81	40
82	10
83	80
84	10
85	50
86	10
89	691
90	120
91	300
92	430
93	80
94	20
95	190
96	40
97	40
98	10
99	70
100	10
101	10
103	10
105	60
106	30
107	230
108	80
109	60
110	40
111	40
112	10
113	30
115	20
119	20
120	20
121	290
122	130
123	180
124	40
125	60
127	10
131	20
133	30
134	10
135	200
136	50
137	70
138	30
139	10
147	20
148	20
149	390
150	90
151	741
152	100
153	40
161	10
163	20
164	10
165	120
166	150
167	200
168	30
169	10
177	10
179	60
181	9999
182	2002
183	500
184	70
185	10
207	30
223	90
224	20
225	10
237	10
238	1231
239	240
240	70
241	10
