Mass Spectrum: 3,6,9,12,15,18-Hexaoxanonadecan-1-ol, TBDMS derivative
Formula: C19 H42 O7 Si
Molecular weight: 410
Origin: NIST Mass Spectrometry Data Center, 2007
m/z	RELATIVE INTENSITY
15	30
19	10
26	10
27	50
28	150
29	450
30	40
31	490
33	10
39	30
40	10
41	210
42	130
43	791
44	290
45	1581
46	40
47	50
51	10
53	10
55	30
56	50
57	210
58	591
59	9999
60	400
61	170
62	10
63	10
69	30
70	30
71	380
72	220
73	2642
74	220
75	751
76	60
77	80
83	10
84	10
85	50
86	30
87	490
88	260
89	1051
90	80
91	40
95	10
97	10
99	70
100	30
101	801
102	190
103	6736
104	450
105	130
106	10
113	20
115	811
116	90
117	561
118	160
119	340
120	30
121	20
129	20
131	110
133	1481
134	150
135	60
139	10
143	30
145	480
146	110
147	1491
148	130
149	30
159	1061
160	140
161	40
163	100
164	10
175	30
177	731
178	100
179	30
187	10
189	350
190	50
191	40
203	100
204	20
207	80
208	10
219	10
221	110
222	20
223	10
233	90
234	20
235	10
247	10
251	20
265	10
277	40
278	10
295	10
321	10
