Mass Spectrum: 2-Hydroxy-4-methoxybenzaldehyde, acetate
Formula: C10 H10 O4
Molecular weight: 194
Origin: NIST Mass Spectrometry Data Center
m/z	RELATIVE INTENSITY
14	30
15	160
26	30
27	60
28	50
29	90
30	10
31	10
37	40
38	150
39	330
40	30
41	220
42	140
43	2642
44	60
45	20
49	20
50	200
51	450
52	470
53	330
54	50
55	130
56	10
59	30
60	10
61	60
62	180
63	550
64	210
65	330
66	110
67	60
68	20
69	280
70	10
73	10
74	50
75	40
76	30
77	120
78	30
79	350
80	270
81	120
82	10
83	10
90	10
91	40
92	130
93	80
94	100
95	530
96	50
104	10
105	10
106	260
107	160
108	430
109	50
110	10
119	30
120	20
121	70
122	60
123	90
124	70
125	10
134	160
135	70
136	40
137	10
149	10
151	9999
152	7327
153	671
154	70
155	10
165	10
194	310
195	30
