Mass Spectrum: Nerol, methyl ether
Formula: C11 H20 O
Molecular weight: 168
Origin: NIST Mass Spectrometry Data Center
m/z	RELATIVE INTENSITY
15	80
26	30
27	681
28	140
29	741
30	30
31	70
33	130
37	10
38	70
39	1892
40	480
41	8047
42	500
43	881
44	40
45	1411
46	30
50	130
51	430
52	230
53	2142
54	290
55	1631
56	160
57	410
58	200
59	460
60	20
61	10
62	30
63	110
64	30
65	691
66	210
67	4004
68	3353
69	9999
70	611
71	420
72	40
73	300
74	20
75	10
77	871
78	170
79	1401
80	2913
81	1892
82	260
83	1491
84	210
85	2712
86	711
87	50
89	20
91	1171
92	1241
93	6866
94	981
95	731
96	100
97	1011
98	2612
99	721
100	60
101	10
102	10
103	70
104	20
105	530
106	120
107	861
108	220
109	230
110	90
111	2012
112	320
113	50
115	30
116	10
117	30
118	10
119	130
121	3253
122	350
123	721
124	80
125	550
126	120
127	10
135	30
136	951
137	160
138	10
139	10
140	10
153	631
154	70
167	30
168	330
169	40
