Mass Spectrum: Methyl 4-methoxysalicylate, TMS derivative
Formula: C12 H18 O4 Si
Molecular weight: 254
Origin: NIST Mass Spectrometry Data Center
m/z	RELATIVE INTENSITY
15	90
27	10
28	10
29	50
30	10
31	20
38	10
39	30
41	10
42	10
43	150
44	60
45	350
46	20
47	30
50	30
51	130
52	30
53	80
54	10
55	50
56	10
57	30
58	60
59	811
60	70
61	90
62	60
63	240
64	60
65	60
66	40
67	40
68	10
69	80
70	20
71	30
72	40
73	731
74	90
75	290
76	50
77	210
78	100
79	250
80	30
81	20
82	20
83	100
84	10
85	90
86	10
87	10
89	781
90	100
91	380
92	130
93	90
94	50
95	90
96	20
97	170
99	60
100	10
101	30
102	10
103	30
104	130
105	130
106	170
107	440
108	70
109	70
110	40
111	30
112	120
115	40
116	10
117	10
118	10
119	240
121	390
122	320
123	90
124	20
125	60
126	10
131	10
133	40
134	50
135	260
136	80
137	270
138	50
139	30
145	10
147	30
148	40
149	210
150	390
151	360
152	70
153	110
154	10
159	10
161	30
162	10
163	170
165	2172
166	480
167	260
168	40
169	10
175	10
176	10
177	50
178	60
179	300
180	520
181	340
182	70
183	30
189	100
190	20
191	420
192	80
193	120
194	80
195	240
196	741
197	260
198	60
199	10
205	40
207	290
208	100
209	1722
210	290
211	120
212	10
221	20
223	1111
224	691
225	150
226	30
237	40
239	9999
240	2172
241	691
242	80
243	10
253	10
254	350
255	70
256	20
