Mass Spectrum: 1,5-Hexadien-3-ol, TMS derivative
Formula: C9 H18 O Si
Molecular weight: 170
Origin: NIST Mass Spectrometry Data Center
m/z	RELATIVE INTENSITY
15	20
26	20
27	170
28	40
29	100
30	10
31	40
37	10
38	30
39	470
40	50
41	490
42	70
43	520
44	260
45	1321
46	90
47	410
48	20
49	20
50	40
51	100
52	60
53	250
54	70
55	260
56	50
57	150
58	160
59	601
60	100
61	290
62	30
63	30
65	50
66	40
67	30
68	10
69	40
70	90
71	190
72	180
73	9829
74	921
75	2252
76	150
77	220
78	30
79	230
80	40
81	50
82	10
83	70
84	20
85	170
86	20
87	30
88	10
89	50
91	10
95	20
96	10
97	150
98	50
99	1702
100	180
101	180
102	10
103	10
109	30
111	110
112	20
113	240
114	60
115	30
116	20
123	10
125	90
127	801
129	9999
130	1261
131	440
132	30
137	10
139	10
141	10
142	10
143	90
144	10
155	671
156	90
157	30
169	40
170	10
