Mass Spectrum: 4-Pyridinol, TMS derivative
Formula: C8 H13 N O Si
Molecular weight: 167
Origin: NIST Mass Spectrometry Data Center
m/z	RELATIVE INTENSITY
15	10
26	20
27	20
28	30
29	30
31	10
37	10
38	30
39	140
40	50
41	30
42	50
43	270
44	60
45	460
46	30
47	150
49	20
50	150
51	631
52	70
53	120
54	50
55	120
56	20
57	50
58	80
59	160
60	40
61	180
62	40
63	50
64	30
65	120
66	90
67	70
68	250
70	40
71	40
72	30
73	410
74	60
75	781
76	460
77	80
78	510
79	70
80	160
81	30
82	20
83	160
84	40
85	110
86	30
87	10
91	20
92	90
93	100
94	50
95	30
96	50
97	40
98	30
99	851
100	90
101	30
104	10
106	50
107	20
108	40
109	170
110	40
111	30
112	30
120	10
122	330
123	40
124	60
125	60
126	60
127	10
132	30
134	300
135	60
136	330
137	100
138	90
139	10
140	10
148	20
149	10
150	80
152	9999
153	1551
154	500
155	40
165	10
167	3083
168	460
169	140
170	10
