Mass Spectrum: trans-3-Hexen-1-ol, heptafluorobutyrate
Formula: C10 H11 F7 O2
Molecular weight: 296
Origin: NIST Mass Spectrometry Data Center
m/z	RELATIVE INTENSITY
15	60
20	10
26	80
27	1021
28	310
29	871
30	40
31	140
32	10
33	20
37	20
38	100
39	1792
40	340
41	5055
42	681
43	260
44	50
45	90
47	30
49	10
50	180
51	260
52	130
53	951
54	1121
55	4134
56	350
57	30
59	50
61	10
62	30
63	50
64	10
65	360
66	220
67	9999
68	711
69	3743
70	100
71	20
73	10
74	10
75	10
77	120
78	60
79	390
80	90
81	1031
82	8277
83	1241
84	60
85	20
90	10
93	40
95	10
97	10
100	701
101	20
109	190
110	10
112	10
119	540
120	10
131	80
145	10
147	10
150	90
159	10
169	2042
170	60
197	110
198	10
225	10
235	10
253	10
