Mass Spectrum: 1,6-Heptadien-4-ol, acetate
Formula: C9 H14 O2
Molecular weight: 154
Origin: NIST Mass Spectrometry Data Center
m/z	RELATIVE INTENSITY
14	10
15	140
16	10
26	30
27	290
28	70
29	100
31	20
37	20
38	70
39	1011
40	150
41	1011
42	300
43	9999
44	230
45	50
50	40
51	100
52	50
53	190
54	70
55	110
56	10
57	10
58	10
60	10
61	20
62	10
63	40
64	10
65	110
66	260
67	240
68	40
69	90
70	80
71	170
72	10
77	330
78	70
79	1141
80	100
81	10
82	10
83	20
84	30
85	10
86	10
87	10
91	140
92	20
93	130
94	460
95	100
96	30
97	20
98	30
110	10
111	40
112	120
113	2722
114	190
115	20
118	10
126	10
136	10
