Mass Spectrum: 3-Buten-2-ol, trifluoroacetate
Formula: C6 H7 F3 O2
Molecular weight: 168
Origin: NIST Mass Spectrometry Data Center
m/z	RELATIVE INTENSITY
14	30
15	170
19	10
20	10
25	30
26	561
27	3143
28	911
29	2622
30	60
31	130
33	30
36	10
37	120
38	300
39	4114
40	300
41	500
42	200
43	4034
44	230
45	170
46	30
47	480
48	20
49	90
50	1111
51	711
52	270
53	2322
54	8287
55	9999
56	540
57	40
59	3003
60	100
64	10
65	10
66	10
67	10
69	9479
70	150
71	1962
72	90
73	180
74	10
75	30
77	120
78	180
79	10
81	40
83	20
89	10
91	20
93	10
95	20
97	420
99	2632
100	160
101	20
105	10
112	90
113	210
114	10
115	10
119	10
120	30
125	1702
126	100
127	10
128	20
139	260
140	40
141	170
142	10
148	10
153	1421
154	80
155	10
167	10
168	40
