Mass Spectrum: 3-Buten-1-ol, trifluoroacetate
Formula: C6 H7 F3 O2
Molecular weight: 168
Origin: NIST Mass Spectrometry Data Center
m/z	RELATIVE INTENSITY
14	20
15	60
20	10
25	10
26	280
27	1551
28	581
29	1371
30	60
31	110
33	200
36	10
37	100
38	270
39	3503
40	310
41	2412
42	210
43	260
44	80
45	80
46	40
47	80
49	40
50	591
51	320
52	140
53	1151
54	9999
55	3383
56	150
57	70
59	150
60	10
64	30
65	10
66	10
67	10
69	7186
70	100
71	50
73	50
77	120
78	210
79	10
80	30
81	10
89	10
90	10
91	410
92	20
93	20
95	10
97	530
99	1601
100	40
101	10
112	100
113	10
125	50
127	130
128	10
139	10
140	50
153	10
