Mass Spectrum: 2'-Hydroxy-4'-methoxyacetophenone, TMS derivative
Formula: C12 H18 O3 Si
Molecular weight: 238
Origin: NIST Mass Spectrometry Data Center
m/z	RELATIVE INTENSITY
15	70
27	20
28	10
29	30
31	10
38	10
39	40
41	10
42	20
43	400
44	60
45	390
46	30
47	50
50	30
51	110
52	40
53	70
54	10
55	50
56	10
57	30
58	30
59	100
60	20
61	60
62	50
63	190
64	60
65	70
66	30
67	40
68	10
69	70
70	20
71	20
72	30
73	871
74	110
75	390
76	60
77	320
78	170
79	120
80	20
81	30
82	20
83	90
84	10
85	100
86	10
87	20
88	30
89	200
90	70
91	220
92	80
93	80
94	30
95	100
96	30
97	40
98	10
99	60
100	10
101	30
102	30
103	80
104	861
105	190
106	120
107	120
108	40
109	90
110	80
111	160
113	10
115	40
116	40
117	20
118	20
119	90
120	50
121	240
122	70
123	80
124	20
125	20
130	10
131	30
132	10
133	60
134	30
135	160
136	50
137	240
138	40
139	20
145	30
146	10
147	110
148	60
149	310
150	450
151	340
152	60
153	30
159	30
160	10
161	60
162	50
163	160
164	50
165	550
166	110
167	70
168	10
174	10
175	30
176	20
177	120
178	50
179	340
180	2542
181	791
182	170
183	60
184	10
189	90
190	30
191	60
192	90
193	380
194	100
195	60
196	10
204	10
205	360
206	60
207	120
208	110
209	50
210	10
221	50
223	9999
224	2192
225	671
226	70
227	10
237	30
238	220
239	40
240	10
