Mass Spectrum: 2-Hexanol, trifluoroacetate
Formula: C8 H13 F3 O2
Molecular weight: 198
Origin: NIST Mass Spectrometry Data Center
m/z	RELATIVE INTENSITY
14	10
15	110
20	10
26	120
27	1531
28	510
29	2042
30	50
31	40
33	10
37	20
38	70
39	1471
40	320
41	5155
42	3173
43	5785
44	330
45	190
47	1151
48	30
50	200
51	150
52	40
53	340
54	310
55	4574
56	5135
57	1782
58	100
59	60
60	10
61	30
62	10
63	20
65	50
66	20
67	230
69	9999
70	370
71	50
73	10
77	20
78	100
79	20
81	20
82	20
83	200
84	3113
85	4274
86	280
87	10
93	20
94	20
95	20
97	430
98	10
99	130
100	20
112	80
113	1702
114	60
115	60
119	10
125	30
129	20
131	10
140	420
141	4714
142	230
143	30
150	10
153	10
154	10
155	10
156	10
169	150
170	10
183	10
