Mass Spectrum: Cathinone, TMS derivative
Formula: C12 H19 N O Si
Molecular weight: 221
Origin: NIST Mass Spectrometry Data Center
m/z	RELATIVE INTENSITY
15	10
27	40
28	50
29	70
30	10
31	50
38	10
39	30
40	10
41	20
42	120
43	310
44	260
45	671
46	60
47	50
50	100
51	390
52	30
53	30
54	10
55	50
56	50
57	70
58	130
59	380
60	70
61	50
62	10
63	20
65	10
67	10
68	10
69	10
70	70
71	30
72	100
73	5755
74	601
75	440
76	80
77	971
78	100
79	40
81	10
82	20
83	10
84	30
85	10
86	200
87	30
88	20
89	40
90	20
91	50
92	10
93	10
95	190
98	10
99	10
100	290
101	80
102	40
103	70
104	30
105	540
106	50
107	20
114	70
115	90
116	9999
117	1201
118	400
119	40
120	10
121	30
128	30
129	10
130	60
131	30
132	40
133	20
134	10
135	80
136	10
137	10
144	10
145	10
146	10
147	10
148	30
149	30
150	10
158	10
160	10
161	70
162	30
163	20
164	10
174	10
175	20
176	90
177	20
178	10
179	10
188	10
189	10
190	20
191	400
192	70
193	20
204	30
205	30
206	430
207	80
208	20
221	20
222	10
