Mass Spectrum: Methyl 18-methylicosanoate
Formula: C22 H44 O2
Molecular weight: 340
Origin: NIST Mass Spectrometry Data Center
m/z	RELATIVE INTENSITY
15	40
26	10
27	160
28	50
29	791
30	20
31	30
33	10
39	270
40	70
41	3013
42	540
43	4064
44	140
45	110
51	10
52	10
53	210
54	290
55	4714
56	1281
57	5235
58	290
59	1051
60	50
61	30
65	40
66	30
67	581
68	240
69	2482
70	731
71	1541
72	100
73	290
74	9999
75	2793
76	120
77	40
78	10
79	150
80	50
81	571
82	210
83	1912
84	510
85	811
87	7457
88	631
89	50
91	30
92	10
93	140
94	40
95	561
96	220
97	1772
98	520
99	200
100	40
101	741
102	80
103	10
105	10
107	160
108	30
109	370
110	110
111	861
112	150
113	110
114	30
115	340
116	150
117	20
119	20
121	260
122	40
123	210
124	60
125	460
126	60
127	60
129	901
130	260
131	20
133	10
134	10
135	260
136	30
137	100
138	40
139	260
140	40
141	40
143	2492
144	240
145	20
147	10
149	190
150	30
151	50
152	30
153	150
154	20
155	20
157	240
158	30
163	110
164	20
165	30
166	10
167	100
168	20
169	10
171	140
172	40
177	70
178	10
179	20
180	10
181	70
182	10
183	10
185	520
186	90
187	10
191	50
192	10
193	10
194	10
195	50
196	10
197	10
199	651
200	100
201	10
205	30
206	10
207	10
208	10
209	40
210	10
213	130
214	30
219	20
221	10
222	10
223	30
224	10
227	150
228	40
229	10
233	20
234	10
235	10
236	10
237	40
238	10
241	601
242	120
243	10
251	30
252	10
255	400
256	70
257	10
261	90
262	20
264	20
265	10
269	80
270	30
271	10
275	20
278	10
279	120
280	30
283	270
284	90
285	80
286	10
289	10
290	10
291	90
292	20
293	50
294	10
297	1011
298	220
299	30
307	20
308	10
309	110
310	30
311	330
312	70
313	10
325	20
340	1962
341	490
342	70
343	10
