Mass Spectrum: 4-Hydroxy-2-methoxybenzaldehyde, acetate
Formula: C10 H10 O4
Molecular weight: 194
Origin: NIST Mass Spectrometry Data Center
m/z	RELATIVE INTENSITY
14	100
15	651
16	10
25	10
26	90
27	210
28	150
29	310
30	30
31	60
36	10
37	160
38	480
39	1141
40	100
41	561
42	490
43	8177
44	190
45	50
49	70
50	631
51	1211
52	1211
53	851
54	110
55	230
56	20
59	50
60	30
61	190
62	651
63	2132
64	831
65	1131
66	470
67	190
68	60
69	651
70	30
71	10
73	40
74	200
75	170
76	100
77	480
78	250
79	701
80	771
81	390
82	100
83	60
84	10
85	10
86	10
89	10
90	30
91	90
92	1621
93	661
94	450
95	1772
96	130
97	30
103	10
104	10
105	230
106	2592
107	2242
108	1361
109	290
110	661
111	60
118	10
119	100
120	1401
121	1992
122	250
123	911
124	310
125	30
134	4294
135	8167
136	1091
137	841
138	60
139	10
149	20
151	6766
152	9999
153	921
154	90
155	10
165	10
166	10
194	2082
195	230
196	30
