Mass Spectrum: 2,3,4-Trifluorophenol, methyl ether
Formula: C7 H5 F3 O
Molecular weight: 162
Origin: NIST Mass Spectrometry Data Center
m/z	RELATIVE INTENSITY
14	20
15	120
26	10
29	150
30	20
31	340
36	10
37	90
38	70
39	20
43	20
45	20
48	10
49	70
50	390
51	460
52	10
53	70
54	10
55	110
56	240
57	420
58	10
60	40
61	390
62	350
63	260
64	20
65	20
67	20
68	470
69	1231
70	40
71	50
72	10
73	150
74	330
75	791
76	30
77	10
79	170
80	400
81	2042
82	130
83	150
84	120
85	10
86	70
87	100
88	150
89	20
91	90
92	110
93	931
94	50
95	140
96	10
97	10
98	50
99	1251
100	380
101	60
102	10
105	30
106	40
107	10
108	10
109	10
110	20
111	70
112	150
113	450
114	200
115	100
116	10
117	70
119	9999
120	611
121	20
127	10
128	170
129	20
130	80
131	701
132	681
133	300
134	20
141	20
143	60
147	8928
148	641
149	40
159	60
162	9198
163	751
164	40
