Mass Spectrum: cis-2-Hexen-1-ol, trifluoroacetate
Formula: C8 H11 F3 O2
Molecular weight: 196
Origin: NIST Mass Spectrometry Data Center
m/z	RELATIVE INTENSITY
14	10
15	120
16	10
18	10
20	20
25	10
26	260
27	2873
28	741
29	2212
30	60
31	120
32	10
33	40
37	60
38	240
39	3763
40	671
41	8147
42	5105
43	1221
44	150
45	180
46	20
47	250
48	10
49	20
50	510
51	540
52	260
53	2572
54	3053
55	3313
56	1812
57	320
58	20
59	530
60	40
61	50
62	40
63	80
64	20
65	450
66	220
67	9999
68	621
69	6166
70	110
71	180
72	20
73	100
74	20
75	10
77	180
78	120
79	400
80	60
81	951
82	7727
83	2482
84	150
85	80
86	10
89	40
91	230
92	10
93	10
95	20
97	400
98	20
99	360
100	100
101	10
103	10
105	10
106	10
109	20
112	40
113	20
115	20
117	10
119	120
125	250
126	30
127	120
128	10
131	20
138	10
139	30
140	20
141	30
147	10
149	10
150	80
152	10
153	470
154	150
155	190
156	10
166	10
167	80
168	10
169	50
