Mass Spectrum: 3-Hexanol, heptafluorobutyrate
Formula: C10 H13 F7 O2
Molecular weight: 298
Origin: NIST Mass Spectrometry Data Center
m/z	RELATIVE INTENSITY
15	60
20	10
26	90
27	1471
28	350
29	1752
30	60
31	160
33	70
37	10
38	40
39	1031
40	210
41	5815
42	1341
43	5625
44	380
45	170
47	180
50	100
51	110
52	30
53	290
54	370
55	9999
56	2222
57	1211
58	90
59	80
60	10
61	581
62	30
63	10
65	40
66	10
67	160
69	5065
70	120
71	190
72	20
73	10
74	10
75	10
77	20
78	50
79	20
81	80
82	20
83	150
84	3453
85	5275
86	340
87	10
90	10
93	110
95	10
97	10
99	50
100	951
101	20
107	10
109	240
110	10
112	10
113	10
119	821
120	20
131	130
135	10
147	80
150	250
151	10
159	20
169	4164
170	130
178	20
197	100
199	80
213	20
215	30
225	10
227	10
240	30
241	10
254	200
255	901
256	70
257	10
268	20
269	160
270	10
