Mass Spectrum: 2-Methylresorcinol, diacetate
Formula: C11 H12 O4
Molecular weight: 208
Origin: NIST Mass Spectrometry Data Center
m/z	RELATIVE INTENSITY
14	10
15	80
26	10
27	40
28	20
29	10
37	10
38	30
39	230
40	60
41	140
42	90
43	2552
44	60
45	10
50	50
51	140
52	90
53	60
54	10
55	100
56	10
62	10
63	50
64	10
65	160
66	140
67	170
68	50
69	70
74	20
75	10
76	10
77	280
78	200
79	60
80	10
81	30
82	10
83	30
89	10
91	10
93	10
94	70
95	330
96	210
97	10
105	120
106	240
107	170
108	20
109	20
121	20
122	20
123	911
124	9999
125	851
126	70
135	10
137	20
149	50
150	10
164	10
165	20
166	1551
167	160
168	20
208	370
209	40
210	10
