Mass Spectrum: 1-Tetracosanol, TMS derivative
Formula: C27 H58 O Si
Molecular weight: 426
Origin: NIST Mass Spectrometry Data Center
m/z	RELATIVE INTENSITY
27	40
29	180
39	60
41	761
42	180
43	1802
44	80
45	120
46	10
47	60
53	50
54	130
55	1351
56	350
57	2222
58	170
59	250
60	40
61	460
62	30
63	20
65	10
66	20
67	290
68	190
69	1101
70	230
71	1001
72	120
73	1912
74	200
75	3924
76	290
77	290
78	20
79	40
80	20
81	270
82	240
83	1281
84	160
85	711
86	60
87	110
88	70
89	841
90	90
91	741
92	60
93	50
94	10
95	240
96	150
97	1301
98	140
99	330
100	40
101	430
102	60
103	1972
104	190
105	80
106	10
107	20
109	120
110	50
111	651
112	90
113	190
114	30
115	300
116	40
117	30
118	10
121	10
123	50
124	30
125	260
126	40
127	90
128	20
129	240
130	30
131	40
135	10
137	20
138	20
139	80
140	20
141	40
142	10
143	70
144	10
145	30
149	10
151	10
152	10
153	40
154	10
155	20
157	40
158	10
159	10
165	10
166	10
167	20
168	10
169	10
171	40
172	10
173	10
180	10
181	10
182	10
183	10
185	40
186	10
195	10
196	10
197	10
199	30
200	10
209	10
213	30
214	10
223	10
227	30
237	10
241	30
242	10
255	30
256	10
257	10
269	40
270	10
283	50
284	10
285	10
297	50
298	10
299	10
308	10
311	50
312	10
313	10
325	50
326	10
327	10
336	20
337	10
339	30
340	10
353	10
395	140
396	50
397	10
409	20
411	9999
412	3453
413	921
414	160
415	20
425	10
426	10
