Mass Spectrum: 3,6,9,12,15-Pentaoxahexadecan-1-ol, TBDMS derivative
Formula: C17 H38 O6 Si
Molecular weight: 366
Origin: NIST Mass Spectrometry Data Center, 2007
m/z	RELATIVE INTENSITY
15	40
19	10
26	10
27	60
28	160
29	540
30	40
31	561
32	10
33	20
39	30
40	10
41	210
42	110
43	671
44	240
45	1391
46	40
47	60
51	10
53	10
55	30
56	40
57	190
58	480
59	9999
60	390
61	190
62	10
63	10
69	20
70	20
71	230
72	160
73	2242
74	200
75	781
76	60
77	90
78	10
83	10
85	40
86	20
87	350
88	220
89	961
90	80
91	40
97	10
99	60
100	20
101	651
102	150
103	6496
104	430
105	110
106	10
113	10
115	530
116	70
117	470
118	130
119	210
120	20
121	10
129	10
131	60
133	1561
134	160
135	60
143	20
145	290
146	70
147	941
148	80
149	20
159	731
160	100
161	40
163	50
164	10
175	20
177	470
178	60
179	20
189	290
190	40
191	30
203	50
204	10
207	30
208	10
221	60
222	10
233	50
234	10
251	10
265	20
277	20
