Mass Spectrum: 2,3-Naphthalenediol, 2TMS derivative
Formula: C16 H24 O2 Si2
Molecular weight: 304
Origin: NIST Mass Spectrometry Data Center
m/z	RELATIVE INTENSITY
15	10
27	10
29	30
31	10
39	10
42	10
43	160
44	90
45	1001
46	70
47	50
50	10
51	10
52	10
53	20
55	30
56	10
57	50
58	60
59	130
60	10
61	30
62	10
63	40
64	10
65	10
66	10
67	10
69	10
70	20
71	30
73	9999
74	1241
75	721
76	60
77	60
78	10
79	10
83	10
85	20
86	20
87	40
88	60
89	40
90	10
91	20
92	10
93	20
98	10
99	20
101	60
102	60
103	80
104	20
105	70
106	10
107	20
108	10
113	140
114	390
115	390
116	60
117	50
118	10
119	60
120	10
121	10
122	10
125	10
126	110
127	180
128	240
129	190
130	180
131	260
132	50
133	210
134	30
135	20
136	10
137	10
138	10
139	160
140	60
141	651
142	110
143	70
144	20
145	80
146	20
147	410
148	70
149	40
150	10
151	20
152	70
153	110
154	70
155	350
156	60
157	60
158	30
159	30
160	10
161	10
165	20
166	10
167	50
168	10
169	70
170	30
171	70
172	20
173	20
174	10
179	10
181	40
182	10
183	80
184	50
185	180
186	2182
187	430
188	120
189	20
193	10
195	40
196	10
197	60
198	40
199	250
200	70
201	1001
202	190
203	60
204	10
211	30
212	10
213	60
214	70
215	70
216	1571
217	300
218	80
219	10
227	20
228	10
229	310
230	90
231	120
232	30
233	10
241	10
243	60
244	20
245	90
246	20
247	10
255	10
257	10
259	60
260	10
261	10
269	10
271	10
273	170
274	50
275	20
287	40
289	1561
290	420
291	160
292	30
293	10
301	10
302	10
304	9308
305	3393
306	1301
307	230
308	40
