Mass Spectrum: 2-(2-Methoxyethoxy)ethanol, TBDMS derivative
Formula: C11 H26 O3 Si
Molecular weight: 234
Origin: NIST Mass Spectrometry Data Center, 2007
m/z	RELATIVE INTENSITY
15	120
26	10
27	80
28	90
29	971
30	40
31	891
33	20
39	90
40	20
41	300
42	60
43	440
44	60
45	1061
46	50
47	170
48	10
49	10
50	10
53	10
55	40
56	40
57	190
58	450
59	9999
60	420
61	270
62	10
63	20
67	10
69	10
70	10
71	30
72	120
73	1692
74	210
75	1301
76	100
77	120
78	10
83	10
85	60
86	10
87	370
88	160
89	3343
90	300
91	150
92	10
97	10
99	70
100	20
101	310
102	90
103	360
104	50
105	20
113	10
115	160
116	30
117	260
118	30
119	150
120	10
129	10
131	20
133	520
134	50
135	20
143	10
145	300
146	30
147	20
159	120
160	20
161	10
175	10
177	1511
178	200
179	70
189	30
219	10
