Mass Spectrum: 2',6'-Dihydroxyacetophenone, diacetate
Formula: C12 H12 O5
Molecular weight: 236
Origin: NIST Mass Spectrometry Data Center
m/z	RELATIVE INTENSITY
14	20
15	160
26	10
27	40
28	40
29	20
37	20
38	50
39	260
40	30
41	60
42	170
43	5735
44	140
45	20
49	10
50	80
51	200
52	170
53	170
54	20
55	90
61	20
62	60
63	150
64	50
65	80
66	50
67	60
68	30
69	70
74	20
75	20
76	10
77	260
78	100
79	100
80	110
81	240
82	20
83	10
85	10
89	10
90	10
91	80
92	40
93	20
94	10
95	40
105	290
106	60
107	150
108	370
109	60
110	40
119	60
120	10
121	20
122	10
123	290
124	20
133	10
134	130
135	40
136	150
137	9999
138	781
139	80
140	10
147	10
150	10
151	180
152	8498
153	761
154	80
155	10
163	10
165	10
176	10
177	10
179	80
180	10
194	2072
195	230
196	30
236	70
237	10
