Mass Spectrum: 2-Penten-1-ol, (Z)-, TBDMS derivative
Formula: C11 H24 O Si
Molecular weight: 200
Origin: NIST Mass Spectrometry Data Center
m/z	RELATIVE INTENSITY
15	10
26	10
27	120
28	30
29	230
30	10
31	20
38	10
39	340
40	60
41	1001
42	110
43	210
44	30
45	500
46	40
47	480
48	30
49	20
50	10
51	30
52	10
53	160
54	50
55	150
56	60
57	430
58	260
59	691
60	160
61	280
62	20
63	20
64	10
65	40
66	10
67	160
68	50
69	230
70	30
71	70
72	30
73	1241
74	240
75	9999
76	831
77	410
78	10
79	10
81	10
83	70
84	10
85	320
86	40
87	80
88	80
89	160
90	10
91	10
95	20
96	10
97	80
98	20
99	651
100	90
101	1471
102	140
103	50
109	30
110	10
111	90
112	10
113	631
114	90
115	3733
116	400
117	90
125	30
127	90
128	10
129	70
130	10
132	10
141	20
143	7257
144	991
145	320
146	20
155	10
157	10
171	50
172	10
185	100
186	20
199	10
200	140
201	20
202	10
