Mass Spectrum: 2-Hydroxy-3-methoxybenzaldehyde, acetate
Formula: C10 H10 O4
Molecular weight: 194
Origin: NIST Mass Spectrometry Data Center
m/z	RELATIVE INTENSITY
14	40
15	220
25	10
26	70
27	100
28	70
29	140
30	10
31	20
37	70
38	150
39	320
40	30
41	210
42	180
43	3823
44	90
45	20
49	50
50	500
51	991
52	1101
53	661
54	100
55	270
56	10
59	10
60	10
61	70
62	200
63	490
64	170
65	540
66	130
67	160
68	20
69	40
73	10
74	70
75	60
76	400
77	400
78	370
79	510
80	440
81	530
82	40
90	10
91	90
92	300
93	300
94	80
95	240
96	20
103	10
104	130
105	520
106	4714
107	761
108	841
109	1531
110	110
111	10
119	160
120	410
121	520
122	1011
123	611
124	240
125	20
133	180
134	160
135	60
136	300
137	240
138	20
147	10
149	50
150	30
151	1611
152	9999
153	911
154	100
155	10
179	10
194	130
195	10
