Mass Spectrum: 4-Methoxycinnamic acid, TBDMS derivative
Formula: C16 H24 O3 Si
Molecular weight: 292
Origin: NIST Mass Spectrometry Data Center
m/z	RELATIVE INTENSITY
15	10
27	50
29	180
30	10
31	10
38	20
39	150
40	20
41	380
42	30
43	90
44	10
45	220
46	20
47	210
48	10
49	10
50	50
51	100
52	30
53	70
54	10
55	80
56	60
57	420
58	70
59	230
60	50
61	90
62	60
63	260
64	160
65	60
66	20
67	10
68	20
69	10
71	10
73	480
74	110
75	1431
76	220
77	701
78	70
79	330
80	30
83	20
85	20
86	10
87	30
88	40
89	841
90	831
91	140
92	280
93	20
94	10
95	10
97	10
98	10
99	60
100	10
101	150
102	450
103	540
104	70
105	70
106	10
107	30
108	10
109	10
115	90
116	40
118	1351
119	160
120	20
121	60
122	10
125	10
128	10
129	30
130	70
131	110
132	270
133	2632
134	360
135	70
136	10
137	10
143	10
144	20
145	280
146	230
147	60
148	80
149	20
150	10
151	20
158	10
159	80
160	210
161	9999
162	1151
163	140
164	10
165	581
166	90
167	40
173	10
175	550
176	190
177	100
178	40
179	10
189	100
191	4474
192	801
193	230
194	20
203	20
204	30
205	40
206	10
218	10
219	10
220	160
221	40
222	10
233	20
235	9719
236	1902
237	581
238	70
239	10
277	240
278	50
279	10
291	10
292	20
293	10
