Mass Spectrum: 3,5-Dihydroxybenzoic acid, 3TBDMS derivative
Formula: C25 H48 O4 Si3
Molecular weight: 496
Origin: NIST Mass Spectrometry Data Center
m/z	RELATIVE INTENSITY
27	10
29	50
39	20
41	130
42	10
43	10
45	30
47	10
55	10
56	120
57	330
58	30
59	120
60	10
61	10
63	20
69	10
73	2222
74	190
75	200
76	10
77	20
79	10
83	30
85	30
89	10
91	70
92	10
93	30
95	10
96	10
97	30
99	150
100	20
101	10
103	30
104	10
105	100
106	10
107	20
109	20
111	10
113	10
115	60
116	10
117	40
118	10
119	70
120	20
121	60
122	10
123	10
125	10
126	10
127	10
128	10
129	20
131	70
132	10
133	430
134	70
135	110
136	10
137	40
138	10
139	10
141	30
142	10
143	50
144	10
145	30
147	561
148	100
149	190
150	60
151	50
152	10
153	10
154	10
155	50
156	10
157	70
158	10
159	20
161	20
162	30
163	150
164	60
165	50
166	20
167	50
168	10
170	761
173	80
174	10
175	20
176	10
177	50
178	10
179	60
180	10
181	40
182	10
183	20
189	30
190	10
191	120
192	30
193	130
194	30
195	70
196	20
197	20
198	10
201	10
203	10
205	30
206	10
207	160
208	40
209	90
210	20
211	20
213	10
215	10
217	10
219	10
221	50
222	20
223	130
224	80
225	40
226	10
227	10
229	10
231	10
233	20
234	10
235	20
236	10
237	40
238	20
239	80
240	20
241	20
247	10
248	10
249	30
250	10
251	60
252	20
253	60
254	20
255	20
263	30
264	10
265	80
266	30
267	160
268	40
269	30
270	10
277	10
278	10
279	100
280	40
281	100
282	30
283	100
284	30
285	10
291	20
293	30
294	10
295	40
296	10
297	120
298	40
299	20
300	10
305	10
307	190
308	60
309	110
310	30
311	40
312	10
313	30
314	10
321	30
322	10
323	490
324	140
325	130
326	40
327	30
328	10
335	10
336	10
337	50
338	20
339	110
340	30
341	40
342	10
349	160
350	50
351	20
352	10
353	210
354	70
355	40
356	10
363	40
364	10
365	440
366	140
367	120
368	30
369	10
379	10
381	60
382	60
383	540
384	180
385	80
386	20
393	10
395	480
396	180
397	801
398	270
399	120
400	30
401	10
409	10
423	70
424	40
425	30
426	10
437	30
439	9999
440	5675
441	2722
442	691
443	160
444	30
465	20
466	10
481	350
482	140
483	60
484	20
495	20
496	180
497	80
498	30
499	10
