Mass Spectrum: 2-Methoxy-5-methylphenol, TMS derivative
Formula: C11 H18 O2 Si
Molecular weight: 210
Origin: NIST Mass Spectrometry Data Center
m/z	RELATIVE INTENSITY
15	40
27	30
28	10
29	50
31	10
38	10
39	100
40	30
41	20
42	20
43	150
44	50
45	370
46	20
47	30
50	40
51	110
52	60
53	80
54	10
55	50
56	10
57	30
58	60
59	360
60	30
61	50
62	40
63	80
64	20
65	150
66	120
67	50
68	20
69	40
70	10
71	20
72	30
73	991
74	110
75	190
76	170
77	310
78	140
79	130
80	10
81	40
82	110
83	60
84	10
85	30
86	10
87	10
88	10
89	260
90	160
91	260
92	40
93	40
94	40
95	50
96	10
97	90
99	40
101	10
102	10
103	60
104	20
105	260
106	50
107	60
108	10
109	80
110	10
111	10
115	20
116	10
117	20
118	10
119	50
120	10
121	80
122	10
123	40
124	10
125	10
131	10
133	30
134	10
135	220
136	40
137	70
138	10
145	10
147	40
149	1311
150	1031
151	280
152	60
153	20
161	80
162	30
163	180
164	40
165	1361
166	210
167	70
168	10
175	30
176	10
177	30
179	1611
180	9999
181	2192
182	641
183	60
191	10
192	10
193	70
194	40
195	1802
196	300
197	80
198	10
208	10
210	2823
211	500
212	140
213	10
