Mass Spectrum: 2-Methoxyethanol, TBDMS derivative
Formula: C9 H22 O2 Si
Molecular weight: 190
Origin: NIST Mass Spectrometry Data Center, 2007
m/z	RELATIVE INTENSITY
15	100
26	20
27	100
28	120
29	430
30	20
31	120
32	10
39	180
40	110
41	500
42	70
43	380
44	60
45	931
46	40
47	170
48	10
49	10
51	10
53	30
54	10
55	60
56	40
57	210
58	601
59	1972
60	200
61	220
62	10
63	10
67	40
68	330
69	30
70	10
71	30
72	50
73	1241
74	130
75	540
76	40
77	50
83	20
85	100
86	20
87	80
88	330
89	9999
90	891
91	440
92	20
93	10
97	10
99	70
100	40
101	100
102	20
103	190
104	20
105	10
113	10
115	60
116	20
117	60
118	10
119	10
129	10
131	10
133	3914
134	410
135	160
136	10
145	10
159	10
175	60
176	10
