Mass Spectrum: 3,4-Dimethoxycinnamic acid, TBDMS derivative
Formula: C17 H26 O4 Si
Molecular weight: 322
Origin: NIST Mass Spectrometry Data Center
m/z	RELATIVE INTENSITY
15	20
27	30
29	180
30	10
31	20
38	10
39	110
40	20
41	360
42	30
43	70
44	10
45	180
46	10
47	160
48	10
49	10
50	60
51	230
52	30
53	80
54	10
55	70
56	60
57	440
58	60
59	220
60	50
61	80
62	50
63	140
64	40
65	110
66	30
67	10
68	10
69	20
71	10
73	490
74	110
75	1421
76	320
77	581
78	80
79	200
80	20
81	10
82	20
83	20
85	20
86	10
87	30
88	70
89	450
90	170
91	520
92	140
93	20
94	40
95	40
97	10
98	10
99	60
100	10
101	90
102	520
103	340
104	100
105	370
106	50
107	60
108	10
109	20
111	80
113	10
114	10
115	70
116	60
117	250
118	581
119	731
120	250
121	70
122	60
123	20
124	30
125	30
127	10
128	10
129	70
130	180
131	210
132	871
133	901
134	80
135	50
136	10
137	20
138	10
143	20
144	30
145	240
146	270
147	741
148	791
149	120
150	20
151	70
152	10
153	10
157	10
158	30
159	90
160	330
161	250
162	90
163	1021
164	170
165	50
166	10
173	40
174	30
175	210
176	180
177	80
178	40
179	50
180	10
181	10
187	10
188	10
189	130
191	8418
192	1081
193	150
194	20
195	190
196	30
197	10
203	70
204	100
205	460
206	220
207	90
208	40
209	10
217	10
218	20
219	40
220	40
221	2652
222	500
223	140
224	20
231	10
232	30
233	30
234	10
235	40
236	10
248	20
249	80
250	50
251	20
263	20
265	9999
266	2022
267	611
268	80
269	10
305	10
307	270
308	60
309	20
321	20
322	360
323	90
324	30
