Mass Spectrum: Methylhydroquinone, 2TMS derivative
Formula: C13 H24 O2 Si2
Molecular weight: 268
Origin: NIST Mass Spectrometry Data Center
m/z	RELATIVE INTENSITY
27	10
29	20
31	20
39	20
41	10
42	10
43	160
44	70
45	591
46	40
47	50
50	10
51	30
52	20
53	30
54	10
55	40
56	10
57	40
58	50
59	280
60	30
61	50
62	10
63	40
64	10
65	30
66	10
67	30
68	20
69	50
70	20
71	30
73	3663
74	330
75	470
76	40
77	160
78	120
79	80
80	10
81	40
82	40
83	130
84	20
85	70
86	10
87	10
88	10
89	90
90	30
91	190
92	30
93	50
94	10
95	100
96	50
97	100
98	20
99	40
101	10
102	20
103	130
104	120
105	400
106	60
107	80
108	10
109	140
110	50
111	210
112	60
113	10
115	60
116	10
117	90
118	50
119	961
121	110
122	20
123	60
124	30
125	30
126	60
129	20
130	10
131	70
132	10
133	470
134	80
135	210
136	50
137	250
138	30
139	10
141	10
143	40
144	10
145	60
146	10
147	290
148	80
149	350
150	60
151	240
152	90
153	30
154	10
155	10
157	30
158	10
159	30
160	10
161	150
162	40
163	530
164	130
165	130
166	30
167	30
169	10
171	10
173	10
175	30
176	10
177	260
178	70
179	1191
180	340
181	140
182	20
183	10
189	10
191	20
192	10
193	230
194	60
195	170
196	40
197	10
203	10
205	10
206	10
207	90
208	20
209	110
210	20
211	10
217	10
219	20
220	10
221	70
222	30
223	420
224	90
225	100
226	20
227	10
233	20
234	10
235	60
236	40
237	1611
238	470
239	180
240	30
241	10
249	40
250	10
251	320
252	190
253	7447
254	1942
255	791
256	130
257	30
265	10
266	30
268	9999
269	3183
270	1271
271	200
272	40
273	10
