Mass Spectrum: 4-Hydroxy-2-methoxybenzaldehyde, TMS derivative
Formula: C11 H16 O3 Si
Molecular weight: 224
Origin: NIST Mass Spectrometry Data Center
m/z	RELATIVE INTENSITY
15	130
26	20
27	70
28	70
29	340
30	20
31	160
37	30
38	140
39	330
40	20
41	130
42	130
43	1081
44	380
45	2362
46	160
47	400
48	30
49	30
50	330
51	611
52	300
53	701
54	110
55	430
56	60
57	200
58	330
59	1732
60	280
61	591
62	390
63	1621
64	1051
65	540
66	240
67	370
68	170
69	601
70	130
71	170
72	200
73	8047
74	1111
75	4674
76	841
77	1752
78	571
79	691
80	240
81	380
82	661
83	1011
84	120
85	490
86	60
87	80
89	4254
90	911
91	1962
92	1321
93	681
94	120
95	1641
96	601
97	891
98	100
99	470
100	50
101	240
102	50
103	230
104	1682
105	1021
106	360
107	801
108	300
109	641
110	160
111	200
112	40
113	120
114	20
115	60
116	20
117	50
118	50
119	801
120	691
121	2282
122	490
123	1221
124	190
125	270
126	40
127	30
128	10
129	10
130	10
131	150
132	50
133	500
134	270
135	2933
136	771
137	851
138	190
139	70
140	20
141	10
145	40
146	10
147	230
148	250
149	3974
150	781
151	4964
152	781
153	310
154	30
155	10
159	10
160	10
161	240
162	90
163	1882
164	921
165	1121
166	2612
167	1431
168	250
169	60
170	10
173	10
175	40
176	50
177	571
178	3954
179	3153
180	791
181	7036
182	1231
183	350
184	40
189	20
191	2412
192	821
193	561
194	450
195	1551
196	420
197	100
198	10
206	4204
207	6686
208	1291
209	5585
210	891
211	270
212	30
221	30
223	4914
224	9999
225	1872
226	520
227	60
228	10
