Mass Spectrum: 2-Hydroxy-4-methoxybenzaldehyde, TMS derivative
Formula: C11 H16 O3 Si
Molecular weight: 224
Origin: NIST Mass Spectrometry Data Center
m/z	RELATIVE INTENSITY
15	70
27	20
28	10
29	50
31	20
38	30
39	60
41	30
42	20
43	190
44	70
45	450
46	30
47	60
50	60
51	140
52	70
53	110
54	20
55	70
56	10
57	40
58	50
59	240
60	40
61	80
62	70
63	330
64	170
65	100
66	40
67	40
68	20
69	110
70	20
71	40
72	70
73	901
74	130
75	380
76	90
77	310
78	110
79	170
80	50
81	30
82	20
83	110
84	20
85	140
86	20
87	20
88	10
89	130
90	50
91	270
92	270
93	90
94	20
95	170
96	30
97	761
99	70
100	10
101	30
102	10
103	40
105	160
106	150
107	190
108	80
109	110
110	30
111	40
112	10
113	10
115	10
116	10
117	10
118	10
119	70
120	50
121	280
122	60
123	110
124	20
125	40
126	10
127	10
131	10
132	10
133	50
134	90
135	540
136	811
137	280
138	60
139	20
145	10
147	40
148	110
149	160
150	110
151	941
152	160
153	70
154	10
160	10
161	40
162	10
163	230
164	90
165	360
166	2722
167	430
168	130
169	10
175	20
176	80
177	60
178	90
179	731
180	290
181	160
182	30
183	40
184	10
189	10
191	1001
192	160
193	130
194	190
195	80
196	20
205	40
206	10
207	50
209	9999
210	1912
211	601
212	60
213	10
223	90
224	300
225	60
226	20
