Mass Spectrum: 3-Methoxysalicylic acid, 2TBDMS derivative
Formula: C20 H36 O4 Si2
Molecular weight: 396
Origin: NIST Mass Spectrometry Data Center
m/z	RELATIVE INTENSITY
15	10
27	10
29	110
31	10
39	50
40	10
41	260
42	20
43	70
44	20
45	200
46	10
47	30
50	10
51	20
52	10
53	20
55	40
56	60
57	440
58	140
59	500
60	40
61	40
63	20
64	10
65	20
66	10
67	10
69	20
70	10
71	20
73	7287
74	651
75	490
76	50
77	90
78	30
79	40
80	10
81	20
82	10
83	100
84	10
85	80
86	10
87	10
88	20
89	150
90	50
91	260
92	50
93	60
94	10
95	30
96	10
97	20
98	130
99	90
100	20
101	10
102	10
103	70
104	70
105	190
106	30
107	110
108	40
109	50
110	10
111	30
112	20
113	10
115	140
116	20
117	50
118	60
119	200
120	50
121	90
122	50
123	40
124	10
126	801
128	10
129	20
131	50
132	20
133	1001
135	360
136	110
137	500
138	70
139	50
141	681
143	20
145	20
146	10
147	320
148	100
149	300
150	100
151	270
152	40
153	40
154	10
155	10
157	10
159	10
160	10
161	30
162	20
163	130
164	50
165	350
166	500
167	100
168	30
169	10
173	10
175	20
176	10
177	30
178	30
179	140
180	70
181	210
182	50
183	20
189	10
190	30
191	30
192	60
193	450
194	220
195	200
196	50
197	30
198	10
203	20
204	10
205	70
206	20
207	60
208	40
209	330
210	100
211	70
212	10
217	10
218	10
219	40
220	10
221	20
222	20
223	160
224	150
225	601
226	100
227	30
232	10
233	20
234	10
235	70
236	10
237	30
238	10
239	150
240	40
241	20
247	10
249	100
250	30
251	100
252	20
253	70
254	20
255	10
263	10
264	10
265	170
266	80
267	160
268	70
269	20
270	10
277	10
279	10
280	10
281	130
282	40
283	40
284	10
291	10
293	10
294	10
295	10
297	20
306	10
307	10
309	10
321	10
323	20
324	10
325	10
337	30
339	9999
340	2963
341	1171
342	220
343	40
381	440
382	140
383	50
384	10
395	10
