Mass Spectrum: Hydroquinone, acetate
Formula: C8 H8 O3
Molecular weight: 152
Origin: NIST Mass Spectrometry Data Center
m/z	RELATIVE INTENSITY
14	20
15	110
25	10
26	130
27	300
28	50
29	80
31	10
37	30
38	70
39	290
40	20
41	30
42	140
43	1361
44	30
45	10
46	10
49	20
50	100
51	170
52	160
53	661
54	440
55	360
56	20
57	10
60	10
61	40
62	90
63	160
64	80
65	120
66	30
67	10
68	10
69	50
71	10
73	10
74	20
75	10
77	10
79	20
80	20
81	1011
82	601
83	30
84	10
92	10
93	60
94	10
95	20
108	10
109	450
110	9999
111	691
112	60
121	10
152	931
153	80
154	10
