Mass Spectrum: 2-(Trifluoromethyl)thiophenol, S-methyl-
Formula: C8 H7 F3 S
Molecular weight: 192
Origin: NIST Mass Spectrometry Data Center
m/z	RELATIVE INTENSITY
14	20
15	120
26	10
27	30
31	40
33	10
37	40
38	90
39	180
40	10
44	20
45	951
46	1021
47	811
48	80
49	70
50	430
51	290
52	30
53	20
54	10
56	20
57	200
58	100
59	30
60	10
61	70
62	140
63	500
64	50
65	30
66	10
68	60
69	1001
70	90
71	80
72	20
73	60
74	360
75	841
76	210
77	220
78	70
79	80
80	50
81	270
82	300
83	290
84	40
85	30
86	70
87	130
88	100
89	60
90	30
91	50
92	30
93	150
94	110
95	691
96	731
97	80
98	10
99	280
100	100
101	80
102	10
103	10
104	20
105	60
106	160
107	350
108	1391
109	741
110	110
111	30
112	30
113	290
114	751
115	60
117	10
118	30
119	220
120	50
121	340
122	280
123	430
124	60
125	721
126	571
127	1762
128	160
129	20
130	20
131	90
132	390
133	801
134	60
135	10
137	50
138	50
139	280
140	70
141	40
142	20
143	70
144	40
145	1161
146	701
147	70
150	20
151	40
152	1702
153	1101
154	180
155	60
157	2242
158	420
159	3483
160	310
161	10
165	20
170	70
171	1461
172	230
173	661
174	70
175	90
176	70
177	1321
178	120
179	70
189	50
191	430
192	9999
193	1071
194	540
195	40
