Mass Spectrum: 4-Isopropylbenzenethiol, S-methyl-
Formula: C10 H14 S
Molecular weight: 166
Origin: NIST Mass Spectrometry Data Center
m/z	RELATIVE INTENSITY
14	10
15	70
26	10
27	140
28	10
29	20
37	10
38	30
39	290
40	20
41	200
42	10
43	40
45	300
46	50
47	90
48	10
49	10
50	150
51	300
52	80
53	70
54	10
55	10
57	20
58	50
59	40
60	10
61	30
62	80
63	250
64	40
65	280
66	50
67	50
68	30
69	270
70	40
71	60
72	20
73	70
74	120
75	240
76	240
77	711
78	480
79	190
80	10
81	30
82	100
83	40
84	40
85	20
86	20
87	30
88	10
89	220
90	100
91	1461
92	170
93	60
94	10
95	50
96	20
97	50
98	20
99	10
101	30
102	330
103	1161
104	1561
105	510
106	50
107	60
108	170
109	230
110	80
111	40
112	10
113	10
114	10
115	440
116	150
117	390
118	150
119	380
120	50
121	260
122	170
123	350
124	190
125	70
126	10
127	10
128	10
132	10
133	60
134	490
135	1742
136	3894
137	681
138	220
139	30
145	10
147	50
148	20
149	140
150	210
151	9999
152	1221
153	571
154	50
164	10
166	5305
167	651
168	280
169	30
