Mass Spectrum: 1,3-Benzenedithiol, S,S'-diacetyl-
Formula: C10 H10 O2 S2
Molecular weight: 226
Origin: NIST Mass Spectrometry Data Center
m/z	RELATIVE INTENSITY
14	50
15	370
26	10
27	10
28	30
29	10
37	20
38	60
39	200
40	10
41	30
42	200
43	9999
44	260
45	320
46	10
47	20
49	10
50	70
51	80
52	30
53	80
57	60
58	110
59	80
60	10
61	30
62	90
63	270
64	70
65	120
66	20
68	10
69	661
70	260
71	210
72	20
73	10
74	40
75	30
76	30
77	160
78	490
79	40
80	10
81	120
82	290
83	50
84	40
85	10
88	30
89	10
90	10
91	80
92	10
93	90
94	20
95	360
96	701
97	561
98	90
99	30
100	40
101	90
102	10
103	10
105	20
106	40
107	40
108	881
109	290
110	100
111	30
112	10
113	10
114	20
116	10
121	40
122	20
123	30
124	10
126	10
127	10
134	10
136	10
139	70
140	170
141	671
142	5565
143	530
144	540
145	40
146	10
150	10
151	10
153	30
155	40
156	20
184	5555
185	621
186	561
187	50
188	20
226	721
227	100
228	70
229	10
