Mass Spectrum: 4-Aminothiophenol, N,N,S-trimethyl-
Formula: C9 H13 N S
Molecular weight: 167
Origin: NIST Mass Spectrometry Data Center
m/z	RELATIVE INTENSITY
14	10
15	120
26	10
27	30
28	20
29	10
37	10
38	40
39	130
40	20
41	40
42	270
43	20
44	40
45	230
46	50
47	80
48	10
49	10
50	140
51	170
52	70
53	30
54	30
55	20
57	20
58	50
59	20
60	10
61	30
62	70
63	260
64	80
65	290
66	120
67	80
69	310
70	80
71	50
72	20
73	20
74	90
75	110
76	180
77	430
78	240
79	150
80	40
81	40
82	150
83	510
85	20
86	10
87	10
88	20
89	40
90	100
91	210
92	170
93	130
94	50
95	100
96	210
97	60
98	20
99	10
102	30
103	60
104	320
105	180
106	120
107	100
108	981
109	550
110	130
111	90
112	10
116	10
117	90
118	400
119	330
120	310
121	270
122	330
123	80
124	80
125	30
126	10
132	10
133	10
134	110
135	90
136	1992
137	651
138	150
139	30
148	40
149	30
150	220
151	1481
152	9999
153	1361
154	641
155	50
164	110
165	20
166	661
167	7347
168	941
169	420
170	40
