Mass Spectrum: 3-Methylbenzenethiol, S-acetyl-
Formula: C9 H10 O S
Molecular weight: 166
Origin: NIST Mass Spectrometry Data Center
m/z	RELATIVE INTENSITY
14	40
15	240
26	20
27	80
28	20
29	10
37	30
38	90
39	601
40	40
41	70
42	130
43	4374
44	110
45	821
46	20
47	50
49	10
50	160
51	340
52	120
53	180
54	10
57	60
58	100
59	70
60	20
61	60
62	150
63	410
64	80
65	440
66	40
68	10
69	410
70	80
71	140
72	10
73	20
74	60
75	40
76	30
77	1171
78	370
79	621
80	130
81	80
82	170
83	80
84	80
85	30
86	40
87	30
88	10
89	290
90	190
91	4644
92	410
93	100
94	20
95	80
96	40
97	220
98	30
99	10
103	10
105	20
106	10
107	20
108	340
109	90
110	20
111	10
117	10
119	10
121	480
122	120
123	1401
124	9999
125	1051
126	561
127	40
134	10
135	20
137	10
138	10
164	10
166	1531
167	170
168	80
169	10
