Mass Spectrum: 1,3-Benzenedimethanethiol, 2TMS derivative
Formula: C14 H26 S2 Si2
Molecular weight: 314
Origin: NIST Mass Spectrometry Data Center
m/z	RELATIVE INTENSITY
15	20
26	10
27	30
28	10
29	70
30	10
31	40
38	10
39	110
40	10
41	30
42	30
43	370
44	150
45	1101
46	70
47	50
50	40
51	130
52	90
53	60
54	10
55	50
56	10
57	70
58	120
59	410
60	50
61	90
62	30
63	130
64	30
65	160
66	20
67	10
69	30
70	30
71	40
73	8338
74	741
75	941
76	160
77	841
78	1792
79	190
80	10
81	10
82	10
83	20
84	10
85	10
87	10
89	220
90	370
91	1611
92	190
93	140
94	10
95	50
96	10
97	40
98	10
101	30
102	280
103	2572
104	5805
105	881
106	90
107	20
108	30
109	20
110	10
115	160
116	40
117	240
118	250
119	1631
120	160
121	120
122	20
123	10
127	10
128	10
129	10
130	10
131	70
132	20
133	60
134	400
135	2582
136	1261
137	360
138	70
139	20
142	40
143	30
144	10
145	90
146	20
147	110
148	40
149	50
150	10
151	50
152	10
153	10
157	10
158	10
159	631
160	170
161	70
162	30
163	160
164	40
165	490
166	70
167	60
168	10
173	10
174	20
175	30
177	651
178	190
179	861
180	160
181	90
182	20
183	10
191	40
193	7617
194	1381
195	731
196	100
197	30
208	420
209	9999
210	1902
211	1011
212	150
213	40
223	60
224	20
225	20
226	10
241	10
242	10
283	80
284	20
285	10
299	70
300	20
301	10
314	4044
315	1101
316	761
317	170
318	60
319	10
