Mass Spectrum: 1,3-Benzenedimethanethiol, S,S'-diacetyl-
Formula: C12 H14 O2 S2
Molecular weight: 254
Origin: NIST Mass Spectrometry Data Center
m/z	RELATIVE INTENSITY
14	70
15	631
16	10
26	10
27	60
28	50
29	20
32	30
33	10
34	10
37	10
38	40
39	350
40	40
41	70
42	210
43	9999
44	220
45	821
46	50
47	110
48	10
49	10
50	140
51	370
52	170
53	70
54	10
57	20
58	70
59	180
60	50
61	30
62	90
63	370
64	100
65	400
66	40
67	10
69	160
70	40
71	70
72	10
73	10
74	50
75	90
76	150
77	841
78	891
79	150
80	10
81	10
82	40
83	30
84	30
85	10
86	20
87	20
88	10
89	621
90	250
91	2973
92	300
93	90
94	20
95	50
96	20
97	100
98	10
99	10
101	30
102	300
103	991
104	1591
105	300
106	30
107	10
108	70
109	90
110	20
111	10
115	30
116	10
117	40
118	10
119	30
120	50
121	631
122	110
123	490
124	50
125	30
127	10
128	20
131	20
132	70
133	70
134	981
135	5415
136	5515
137	4624
138	631
139	200
140	20
145	60
146	60
147	70
148	10
149	240
150	30
151	20
152	10
153	30
154	10
160	10
161	50
162	10
163	10
164	20
165	40
166	30
167	100
168	90
169	791
170	180
171	80
172	20
178	1872
179	4674
180	611
181	230
182	20
193	10
194	701
195	90
196	70
197	10
209	10
210	550
211	3353
212	881
213	370
214	80
215	20
236	290
237	40
238	30
239	10
254	781
255	110
256	80
257	10
