Mass Spectrum: 3,5-Dimethylthiophenol, TMS derivative
Formula: C11 H18 S Si
Molecular weight: 210
Origin: NIST Mass Spectrometry Data Center
m/z	RELATIVE INTENSITY
15	30
26	10
27	200
28	50
29	160
30	10
31	60
37	10
38	30
39	440
40	40
41	160
42	60
43	611
44	290
45	1882
46	110
47	70
50	80
51	350
52	110
53	390
54	40
55	120
56	20
57	120
58	160
59	420
60	50
61	90
62	60
63	290
64	70
65	380
66	60
67	70
68	10
69	130
70	70
71	110
72	170
73	9999
74	911
75	921
76	140
77	1782
78	520
79	751
80	50
81	30
82	50
83	90
84	20
85	40
86	20
87	30
88	10
89	230
90	290
91	1261
92	160
93	230
94	30
95	70
96	30
97	260
99	20
101	40
102	150
103	881
104	380
105	3313
106	330
107	90
108	20
109	70
110	10
111	20
113	10
115	190
116	50
117	220
118	70
119	831
120	100
121	370
122	170
123	40
124	10
125	10
127	10
128	10
129	20
130	30
131	130
132	30
133	130
134	140
135	290
136	70
137	671
138	110
139	50
140	10
141	10
143	40
144	20
145	320
146	70
147	90
148	20
149	90
150	30
151	180
152	30
153	20
157	20
158	10
159	230
160	50
161	200
162	30
163	200
164	150
165	811
166	130
167	80
168	10
177	50
179	4174
180	921
181	420
182	70
183	10
191	10
192	10
193	240
195	7977
196	1411
197	751
198	100
199	20
208	10
210	6866
211	1221
212	621
213	90
214	20
