Mass Spectrum: Dihydrocapsaicin, TBDMS derivative
Formula: C24 H43 N O3 Si
Molecular weight: 421
Origin: NIST Mass Spectrometry Data Center
m/z	RELATIVE INTENSITY
15	30
18	20
26	20
27	210
28	130
29	450
30	150
31	10
37	10
38	20
39	240
40	50
41	1121
42	220
43	1952
44	110
45	120
46	10
47	10
50	10
51	30
52	10
53	60
54	80
55	460
56	190
57	671
58	130
59	490
60	40
61	50
62	10
63	10
64	10
65	50
66	20
67	60
68	40
69	260
70	40
71	170
72	40
73	2282
74	200
75	410
76	40
77	130
78	50
79	40
80	10
81	100
82	130
83	110
84	60
85	110
86	20
87	10
88	10
89	340
90	70
91	190
92	50
93	70
94	20
95	80
96	70
97	180
98	40
99	70
100	20
101	10
102	10
103	30
104	80
105	300
106	60
107	80
108	20
109	40
110	80
111	60
112	20
113	10
114	10
115	50
116	20
118	220
120	50
121	100
122	50
123	20
124	70
125	170
126	270
128	30
129	10
130	10
131	10
132	230
134	40
135	280
136	90
137	510
138	70
139	70
140	20
141	10
142	10
145	20
146	70
147	80
148	80
149	540
150	130
151	320
152	300
153	90
154	30
155	30
156	10
161	100
162	170
163	210
164	240
165	330
166	280
167	510
168	100
169	30
170	10
174	10
175	30
176	40
177	70
178	190
179	9999
180	1792
181	571
182	80
183	10
186	10
189	10
190	20
191	50
192	290
193	1982
194	1912
195	641
196	140
197	20
203	10
204	40
205	120
206	60
207	40
208	370
209	110
210	80
211	10
212	10
217	10
218	30
219	50
220	80
221	290
222	60
223	40
224	10
228	120
229	30
230	10
232	40
233	20
234	40
235	200
236	250
237	540
238	100
239	30
247	10
248	30
249	150
250	100
251	1121
252	290
253	70
254	10
262	10
263	10
264	80
265	30
266	290
267	70
268	20
276	10
278	30
279	10
288	10
290	10
291	10
292	20
293	10
304	10
306	50
307	20
320	10
322	10
348	10
349	540
350	140
351	40
352	10
362	10
364	6336
365	1732
366	450
367	70
368	10
391	10
406	80
407	30
408	10
420	10
421	20
422	10
