Mass Spectrum: 2,4-Dimethylbenzenethiol, TMS derivative
Formula: C11 H18 S Si
Molecular weight: 210
Origin: NIST Mass Spectrometry Data Center
m/z	RELATIVE INTENSITY
15	20
26	10
27	150
28	40
29	130
30	10
31	60
38	20
39	290
40	30
41	100
42	50
43	470
44	240
45	1842
46	100
47	80
50	60
51	260
52	80
53	240
54	20
55	90
56	20
57	90
58	120
59	310
60	30
61	60
62	40
63	200
64	40
65	290
66	50
67	40
68	10
69	100
70	60
71	90
73	9999
74	911
75	711
76	100
77	1191
78	370
79	450
80	30
81	20
82	30
83	40
84	10
85	20
86	10
87	20
88	10
89	170
90	140
91	911
92	100
93	210
94	20
95	50
96	20
97	110
99	10
101	30
102	130
103	591
104	250
105	1822
106	180
107	50
108	20
109	50
110	10
111	10
115	110
116	30
117	120
118	40
119	420
120	50
121	210
122	80
123	30
124	10
127	10
128	10
129	10
130	20
131	70
132	20
133	70
134	120
135	260
136	60
137	350
138	70
139	30
143	30
144	10
145	190
146	40
147	60
148	10
149	60
150	20
151	120
152	20
153	10
157	10
159	120
160	20
161	100
162	20
163	130
164	100
165	470
166	80
167	50
177	30
178	50
179	2102
180	460
181	210
182	30
183	10
191	10
193	140
195	4164
196	741
197	390
198	50
199	10
208	10
210	4954
211	891
212	440
213	60
214	10
