Mass Spectrum: 2-Methylbenzenethiol, TMS derivative
Formula: C10 H16 S Si
Molecular weight: 196
Origin: NIST Mass Spectrometry Data Center
m/z	RELATIVE INTENSITY
15	30
26	10
27	70
28	50
29	140
30	10
31	70
37	10
38	40
39	420
40	30
41	100
42	70
43	591
44	270
45	1982
46	110
47	80
50	80
51	250
52	70
53	160
54	20
55	100
56	20
57	110
58	140
59	300
60	40
61	80
62	70
63	350
64	90
65	851
66	70
67	40
68	10
69	130
70	60
71	90
72	140
73	9999
74	911
75	841
76	90
77	771
78	190
79	320
80	20
81	20
82	50
83	50
84	20
85	20
86	20
87	20
88	10
89	410
90	240
91	1942
92	180
93	120
94	20
95	50
96	20
97	70
98	10
99	10
101	10
102	20
103	170
104	60
105	561
106	60
107	40
108	60
109	20
110	10
115	30
116	10
117	50
118	10
119	110
120	20
121	370
122	80
123	270
124	50
125	20
129	10
130	10
131	90
132	20
133	40
134	30
135	50
136	30
137	180
138	30
139	20
143	20
145	130
146	20
147	130
148	20
149	150
150	70
151	350
152	50
153	40
154	10
163	40
164	60
165	2582
166	430
167	240
168	30
169	10
177	10
178	10
179	130
181	4684
182	761
183	430
184	50
185	10
196	4904
197	861
198	450
199	60
200	10
