Mass Spectrum: 2-Methylbenzenethiol, S-acetyl-
Formula: C9 H10 O S
Molecular weight: 166
Origin: NIST Mass Spectrometry Data Center
m/z	RELATIVE INTENSITY
14	40
15	260
26	20
27	90
28	20
29	10
37	30
38	90
39	561
40	40
41	70
42	130
43	5005
44	120
45	1391
46	40
47	90
49	10
50	180
51	450
52	120
53	160
54	10
57	40
58	90
59	80
60	20
61	60
62	160
63	490
64	110
65	430
66	40
68	10
69	420
70	90
71	150
72	10
73	20
74	70
75	50
76	40
77	1301
78	350
79	420
80	70
81	60
82	130
83	50
84	70
85	20
86	40
87	30
88	10
89	540
90	360
91	4624
92	390
93	100
94	20
95	80
96	40
97	180
98	30
99	10
103	10
105	10
106	10
107	10
108	190
109	50
110	10
117	10
119	10
121	641
122	120
123	841
124	9999
125	1001
126	540
127	40
134	10
135	10
137	10
166	1271
167	150
168	70
169	10
