Mass Spectrum: 1,2-Benzenedithiol, S,S'-diacetyl-
Formula: C10 H10 O2 S2
Molecular weight: 226
Origin: NIST Mass Spectrometry Data Center
m/z	RELATIVE INTENSITY
14	50
15	340
26	10
27	10
28	30
29	10
37	20
38	70
39	220
40	10
41	30
42	200
43	9999
44	250
45	340
46	10
47	20
49	10
50	150
51	170
52	50
53	60
57	60
58	120
59	70
60	20
61	30
62	80
63	280
64	110
65	120
66	20
68	20
69	761
70	360
71	270
72	30
73	20
74	70
75	50
76	50
77	841
78	861
79	60
80	10
81	140
82	320
83	60
84	50
85	10
88	80
89	30
90	20
91	40
92	10
93	130
94	40
95	520
96	1261
97	440
98	100
99	20
100	50
101	40
102	20
103	10
105	20
106	40
107	40
108	591
109	270
110	80
111	20
112	10
114	30
116	10
120	10
121	70
122	20
123	10
126	10
127	10
134	50
135	10
136	10
139	130
140	470
141	460
142	7627
143	711
144	761
145	50
146	20
150	10
151	160
152	20
153	50
154	10
155	10
156	10
165	10
166	140
167	6816
168	771
169	751
170	70
171	30
184	881
185	100
186	80
187	10
226	140
227	20
228	10
