Mass Spectrum: 2-(Methylthio)phenol, acetate
Formula: C9 H10 O2 S
Molecular weight: 182
Origin: NIST Mass Spectrometry Data Center
m/z	RELATIVE INTENSITY
14	40
15	210
26	20
27	40
28	20
29	10
37	30
38	110
39	340
40	20
41	40
42	90
43	1621
44	50
45	661
46	50
47	70
48	20
49	10
50	110
51	170
52	100
53	210
54	10
55	20
57	20
58	40
59	30
60	10
61	40
62	100
63	300
64	100
65	260
66	70
67	150
68	20
69	410
70	410
71	110
72	30
73	10
74	40
75	30
76	20
77	390
78	210
79	80
80	10
81	40
82	60
83	10
84	20
85	70
86	10
89	10
91	10
92	60
93	100
94	220
95	510
96	601
97	1271
98	110
99	60
100	10
105	10
106	20
107	340
108	100
109	70
110	30
111	150
112	60
113	10
120	10
121	70
122	10
123	20
125	3503
126	270
127	170
128	10
135	10
137	80
138	10
139	170
140	9999
141	891
142	520
143	40
182	1181
183	130
184	70
185	10
