Mass Spectrum: 2,5-Dimethylbenzenethiol, S-methyl-
Formula: C9 H12 S
Molecular weight: 152
Origin: NIST Mass Spectrometry Data Center
m/z	RELATIVE INTENSITY
14	10
15	110
26	20
27	210
28	10
29	10
37	20
38	60
39	530
40	40
41	90
45	1591
46	100
47	150
48	30
49	20
50	250
51	641
52	200
53	290
54	20
55	10
57	20
58	70
59	180
60	20
61	60
62	140
63	430
64	80
65	440
66	70
67	90
68	30
69	220
70	70
71	110
72	20
73	40
74	160
75	170
76	360
77	1712
78	911
79	561
80	40
81	40
82	80
83	60
84	40
85	50
86	40
87	40
88	10
89	220
90	80
91	2092
92	310
93	831
94	80
95	80
96	30
97	270
98	40
99	20
101	40
102	270
103	1261
104	781
105	3243
106	561
107	230
108	60
109	120
110	30
111	50
112	10
115	90
116	20
117	110
118	70
119	320
120	40
121	591
122	250
123	60
124	20
125	10
127	10
128	10
133	20
134	360
135	841
136	270
137	6896
138	711
139	350
140	30
147	20
148	10
149	40
150	10
151	250
152	9999
153	1181
154	540
155	50
