Mass Spectrum: 4-Aminothiophenol, N,S-diacetyl-
Formula: C10 H11 N O2 S
Molecular weight: 209
Origin: NIST Mass Spectrometry Data Center
m/z	RELATIVE INTENSITY
14	40
15	270
26	10
27	20
28	60
29	10
30	10
37	10
38	50
39	140
40	20
41	60
42	200
43	4464
44	110
45	210
46	10
47	20
49	10
50	50
51	100
52	160
53	230
54	70
56	10
57	20
58	40
59	30
60	30
61	20
62	70
63	230
64	90
65	170
66	60
67	40
68	10
69	350
70	330
71	90
72	30
73	10
74	20
75	20
76	20
77	30
78	90
79	60
80	1151
81	340
82	80
83	30
84	40
85	10
86	10
88	10
89	10
90	80
91	130
92	80
93	520
94	80
95	120
96	390
97	581
98	200
99	60
100	10
104	20
105	20
106	50
107	20
108	70
109	60
110	20
111	10
117	10
118	10
120	10
121	10
122	140
123	270
124	3753
125	9999
126	1121
127	540
128	40
133	50
134	30
135	10
136	50
137	20
138	50
139	20
148	10
149	20
150	20
151	60
152	10
165	10
166	220
167	7517
168	831
169	420
170	30
181	10
194	20
209	1131
210	140
211	60
212	10
