Mass Spectrum: 1,4-Benzenedimethanethiol, S,S'-diacetyl-
Formula: C12 H14 O2 S2
Molecular weight: 254
Origin: NIST Mass Spectrometry Data Center
m/z	RELATIVE INTENSITY
14	100
15	691
16	10
25	10
26	10
27	80
28	160
29	20
33	10
34	20
37	10
38	40
39	320
40	30
41	80
42	270
43	8418
44	200
45	1091
46	50
47	130
48	10
50	160
51	420
52	150
53	60
54	10
57	40
58	80
59	170
60	80
61	30
62	80
63	320
64	90
65	440
66	50
67	10
69	130
70	30
71	50
72	10
74	50
75	90
76	140
77	771
78	891
79	120
80	10
81	20
82	40
83	20
84	30
85	10
86	20
87	30
89	520
90	250
91	3873
92	410
93	160
94	30
95	40
96	20
97	90
98	10
99	10
101	20
102	240
103	1051
104	3503
105	561
106	40
107	20
108	60
109	60
110	10
111	10
115	10
116	10
117	50
118	10
119	20
120	60
121	581
122	110
123	500
124	60
125	40
131	10
132	30
133	40
134	450
135	4014
136	3904
137	5955
138	711
139	280
140	20
141	10
145	40
146	30
147	20
148	10
149	210
150	20
151	40
152	10
153	20
154	10
161	10
164	10
165	20
166	10
167	30
168	50
169	140
170	40
171	20
172	10
178	9999
179	5055
180	1001
181	250
182	20
207	10
209	10
211	140
212	30
213	10
254	50
256	10
