Mass Spectrum: trans-2-Isopropylbicylclo[4.3.0]non-3-ene-8-one
Formula: C12 H18 O
Molecular weight: 178
Origin: ORMSBG, 13(12)705(1978); V. HANUS
m/z	RELATIVE INTENSITY
27	1750
29	880
38	120
39	2120
40	310
41	4120
42	310
43	3120
44	120
50	310
51	1000
52	500
53	830
54	500
55	2000
56	250
57	620
58	1620
59	60
63	310
65	1120
66	370
67	1750
68	250
69	1370
70	250
71	310
77	3250
78	1250
79	5750
80	1750
81	1120
82	1500
83	1250
84	620
85	190
90	190
91	5620
92	2060
93	9999
94	1760
95	1120
96	750
97	370
102	120
103	440
104	810
105	1370
106	620
107	4620
108	1620
109	750
110	190
115	310
116	120
117	940
118	190
119	870
120	620
121	1750
122	500
123	190
131	120
132	440
133	250
134	1000
135	2370
136	1250
137	250
140	310
145	250
150	650
151	120
163	370
178	2500
179	440
