Mass Spectrum: 17.beta.-Hydroxy-5.alpha.-androstane-3,6-dione, TMS derivative
Formula: C22 H36 O3 Si
Molecular weight: 376
Origin: H. ADLERCREUTZ, UNIV. OF HELSINKI, FINLAND
m/z	RELATIVE INTENSITY
73	602
75	354
93	152
95	152
101	264
105	157
107	180
115	315
116	574
117	152
122	152
129	9999
130	1413
131	495
132	146
133	270
134	197
135	197
136	157
137	304
145	152
147	219
148	382
149	174
175	157
176	168
185	152
208	174
209	292
210	213
211	484
213	174
215	185
225	180
229	180
230	157
243	349
245	551
246	157
257	213
258	174
269	709
270	185
271	608
272	152
277	157
281	42
284	686
285	337
286	1103
287	247
303	180
305	168
318	315
319	242
320	2133
321	495
322	168
331	180
333	202
343	225
347	152
358	197
359	2443
360	799
361	4323
362	1362
363	371
374	608
375	264
376	2263
377	799
378	292
