Mass Spectrum: 2,4,6-Trihydroxybenzoic acid, 4TMS derivative
Formula: C19 H38 O5 Si4
Molecular weight: 458
Origin: G.S. KING, CHEM. PATHOL. DEP., QUEEN CHARLOTTE'S HOSP., LONDON
m/z	RELATIVE INTENSITY
43	120
44	120
45	440
47	520
49	320
63	120
73	3120
74	240
75	320
77	2440
78	120
79	120
81	240
92	120
93	120
131	120
133	240
147	840
148	120
149	120
207	240
281	240
296	120
325	120
337	120
339	120
352	240
353	120
354	920
355	320
356	120
369	440
370	120
371	120
441	120
442	120
443	9999
444	3920
445	2120
446	640
447	240
458	240
459	120
