Mass Spectrum: 3-(3-Hydroxyphenyl)-3-hydroxypropionic acid, tris-(O-trimethylsilyl)-
Formula: C18 H34 O4 Si3
Molecular weight: 398
Origin: G.S. KING, CHEM. PATHOL. DEP., QUEEN CHARLOTTE'S HOSP., LONDON
m/z	RELATIVE INTENSITY
40	440
41	720
42	240
43	640
44	1240
45	1120
47	520
49	120
52	120
55	320
56	120
57	120
58	120
59	440
61	240
67	120
70	240
71	120
72	320
73	9999
74	920
75	5320
76	440
77	1640
78	240
81	120
83	120
89	120
91	320
92	120
93	320
95	240
96	240
97	240
99	120
101	240
103	240
105	240
114	120
115	240
116	440
117	320
119	120
129	120
131	240
132	120
133	520
135	240
137	120
139	120
143	120
144	120
145	120
147	4120
148	720
149	520
151	320
161	120
163	120
165	120
169	120
177	520
178	120
179	520
180	120
181	120
187	120
188	120
189	120
190	120
191	520
192	320
193	440
194	320
195	120
197	120
204	120
206	120
207	1440
208	320
209	240
213	120
217	240
219	120
223	120
237	240
249	120
251	440
252	120
253	120
264	120
265	520
266	320
267	9440
268	2240
269	1040
270	120
278	120
279	520
280	2120
281	920
282	320
285	120
293	120
383	440
384	120
385	120
398	1840
399	640
400	320
