Mass Spectrum: Uric acid, N,O,O',O''-tetrakis(trimethylsilyl)-
Formula: C17 H36 N4 O3 Si4
Molecular weight: 456
Origin: G.S. KING, CHEM. PATHOL. DEP., QUEEN CHARLOTTE'S HOSP., LONDON
m/z	RELATIVE INTENSITY
41	120
42	120
43	240
44	320
45	1240
46	120
47	240
49	120
53	120
55	120
56	120
57	120
58	120
59	240
60	120
61	120
63	120
70	120
71	120
72	320
73	9999
74	840
75	720
76	120
77	1240
78	120
79	120
84	120
85	120
86	120
92	120
93	120
94	120
95	120
96	120
99	120
100	440
101	120
102	120
103	120
115	120
116	120
117	240
125	120
129	120
130	120
131	320
132	120
133	240
135	120
139	120
141	120
142	120
144	120
145	120
147	1720
148	320
149	240
156	120
157	120
158	240
159	120
160	120
169	120
171	240
172	320
173	120
174	120
179	120
183	120
185	120
188	120
189	120
198	120
199	120
207	320
208	120
209	120
217	120
218	120
245	120
246	120
267	120
279	120
281	120
294	120
295	120
310	120
320	120
325	120
326	120
327	120
328	120
340	120
341	120
351	120
352	120
353	240
354	120
355	120
366	120
367	520
368	320
369	320
370	120
383	1440
384	720
385	440
386	120
387	120
425	120
426	240
428	240
441	5120
442	2040
443	1040
444	320
445	120
446	120
455	440
456	4920
457	2120
458	1120
459	320
460	120
