Mass Spectrum: 4-Hydroxymandelic acid, 3TBDMS derivative
Formula: C26 H50 O4 Si3
Molecular weight: 510
Origin: G.S. KING, CHEM. PATHOL. DEP., QUEEN CHARLOTTE'S HOSP., LONDON
m/z	RELATIVE INTENSITY
73	9999
74	619
75	1416
77	442
93	531
133	354
147	2035
149	265
163	177
191	177
207	1947
208	442
281	708
323	177
351	9203
352	2743
353	885
425	2655
426	885
427	354
453	2920
454	973
455	442
