Mass Spectrum: 3-Vanil-1,2-bis(trimethylsilyloxy)propane
Formula: C19 H38 O4 Si3
Molecular weight: 414
Origin: O A MAMER, MCGILL UNIVERSITY, MONTRE
m/z	RELATIVE INTENSITY
14	172
15	455
16	99
18	59
26	101
27	121
28	527
29	88
32	125
39	86
41	207
42	77
43	265
44	225
45	896
46	64
47	109
52	60
55	134
57	142
58	113
59	562
60	54
61	75
67	54
69	93
71	125
72	129
73	9999
74	879
75	853
76	68
77	101
78	55
79	102
81	62
83	79
85	114
89	362
90	62
91	117
95	63
96	54
97	63
101	129
103	271
104	81
105	104
115	93
117	2060
118	219
119	170
129	79
131	199
133	303
135	98
145	98
147	2242
148	368
149	501
150	79
163	103
165	75
177	115
179	674
180	180
181	75
191	90
192	134
193	205
195	147
196	146
204	365
205	2863
206	659
207	601
208	217
209	1474
210	379
211	111
221	91
223	230
224	64
235	607
236	137
237	71
267	150
281	129
282	134
293	155
297	131
311	582
312	162
313	75
324	1307
325	370
326	162
327	54
339	50
355	80
399	194
400	76
403	137
414	483
415	188
