Mass Spectrum: 3-(4-Hydroxyphenyl)-1-propanol, 2TMS derivative
Formula: C15 H28 O2 Si2
Molecular weight: 296
Origin: O A MAMER, MCGILL UNIVERSITY, MONTRE
m/z	RELATIVE INTENSITY
14	100
15	260
16	58
26	75
27	89
28	287
29	96
31	74
32	60
39	117
41	169
43	409
44	215
45	1332
46	96
47	373
51	100
52	102
53	55
55	76
57	81
58	183
59	1658
60	163
61	269
63	61
65	85
71	68
72	134
73	6317
74	581
75	1573
76	136
77	242
78	125
79	171
82	81
85	83
87	80
89	2407
90	342
91	440
95	58
101	267
102	75
103	268
104	139
105	177
107	69
109	217
115	450
116	207
117	214
119	70
121	76
131	171
133	754
134	171
135	295
141	150
147	333
149	509
150	136
151	394
161	181
163	556
164	264
165	512
166	116
175	144
177	826
179	1846
180	406
181	124
191	6124
192	1174
193	441
206	9999
207	2288
208	620
209	144
223	82
253	84
263	88
281	1272
282	340
283	151
296	901
297	260
298	133
