Mass Spectrum: p-Coumaric alcohol, 2TMS derivative
Formula: C15 H26 O2 Si2
Molecular weight: 294
Origin: O A MAMER, MCGILL UNIVERSITY, MONTRE
m/z	RELATIVE INTENSITY
14	48
15	154
16	31
26	47
27	65
28	172
29	100
31	72
39	112
41	61
43	390
44	238
45	1847
46	127
47	213
50	36
51	85
52	45
53	46
55	125
57	94
58	113
59	479
60	55
61	135
63	82
65	77
67	48
68	68
69	47
71	57
72	123
73	9999
74	909
75	1244
76	111
77	230
78	122
79	62
81	41
82	202
83	64
85	60
87	49
88	48
89	180
91	140
94	66
95	119
102	92
103	265
104	157
105	81
109	47
113	251
115	1431
116	337
117	126
119	77
121	51
127	93
128	223
129	355
130	122
131	293
132	391
133	197
135	140
140	99
145	94
147	1063
148	186
149	190
151	112
161	209
163	176
175	187
177	245
179	260
180	53
189	1613
190	338
191	288
192	103
193	135
203	278
204	1157
205	3322
206	691
207	222
209	45
219	79
279	418
280	127
281	61
293	1771
294	4235
295	1206
296	438
297	89
