Mass Spectrum: 3-.alpha.-Trimethylsilyloxycholanic acid, trimethylsilyl ester
Formula: C30 H56 O3 Si2
Molecular weight: 520
Origin: O A MAMER, MCGILL UNIVERSITY, MONTRE]
m/z	RELATIVE INTENSITY
26	123
27	138
29	267
39	153
40	99
41	905
43	505
45	436
47	266
53	228
54	115
55	2823
56	168
57	269
58	130
59	365
60	112
61	553
65	105
67	1686
68	381
69	1091
72	281
73	7912
74	780
75	9999
76	785
77	719
78	127
79	1395
80	304
81	2883
82	410
83	871
84	104
85	238
89	365
91	1193
92	322
93	2164
94	839
95	2456
96	241
97	381
101	264
103	218
104	114
105	1663
106	790
107	2248
108	902
109	1420
110	208
111	213
113	99
115	274
116	381
117	2132
118	390
119	1115
120	610
121	1393
122	557
123	601
124	114
125	135
127	110
128	120
129	2020
130	376
131	899
132	1026
133	1145
134	734
135	1319
136	282
137	221
141	130
142	350
143	233
144	132
145	1377
146	418
147	1549
148	362
149	833
150	157
151	110
155	357
157	267
159	934
160	423
161	1210
162	828
163	401
168	188
169	119
171	148
173	768
174	386
175	667
176	456
177	304
183	123
185	163
187	401
188	257
189	433
190	109
199	247
200	158
201	816
202	398
203	491
204	540
205	211
212	471
213	362
214	224
215	3104
216	1339
217	874
218	281
227	107
229	429
230	1380
231	411
241	110
243	150
245	276
246	100
255	203
256	188
257	4412
258	952
259	125
266	185
267	120
285	100
286	137
298	114
299	1039
300	252
320	188
321	158
322	107
323	201
325	127
373	102
375	119
376	247
415	813
416	299
430	2775
431	1008
432	294
505	952
506	414
507	157
520	252
521	110
