Mass Spectrum: 3-Trimethylsilyloxy-2-methyltrimethylsilylvalerate
Formula: C12 H28 O3 Si2
Molecular weight: 276
Origin: O A MAMER, MCGILL UNIVERSITY, MONTREY l Z
m/z	RELATIVE INTENSITY
15	38
16	94
17	44
18	1
26	45
27	82
28	82
29	106
39	68
41	293
42	53
43	224
44	208
45	757
46	55
47	256
53	36
55	165
56	339
57	139
58	124
59	439
60	60
61	192
66	345
67	107
69	451
70	60
71	45
72	266
73	9738
74	891
75	1764
76	122
77	79
81	651
82	164
85	114
86	56
87	48
91	39
94	46
95	683
96	236
97	68
99	83
101	57
103	36
115	947
116	117
117	281
119	46
123	76
129	105
130	154
131	9999
132	1222
133	803
134	86
135	44
143	121
146	83
147	5791
148	901
149	533
150	54
157	60
158	299
159	55
171	212
186	70
191	263
192	49
203	697
204	145
205	715
206	133
207	65
231	55
245	50
247	1009
248	214
249	91
261	1115
262	251
263	106
