Mass Spectrum: 7-Trimethylsilyloxyoctanoic acid, trimethylsilyl ester
Formula: C14 H32 O3 Si2
Molecular weight: 304
Origin: O A MAMER, MCGILL UNIVERSITY, MONTRE
m/z	RELATIVE INTENSITY
26	47
27	134
28	313
29	170
30	36
31	47
32	82
39	92
40	50
41	412
42	118
43	600
44	280
45	827
46	76
47	469
48	36
49	36
50	48
51	18
52	12
53	89
54	69
55	2606
56	161
57	95
58	174
59	392
60	101
61	531
62	45
63	36
67	200
68	68
69	378
70	71
71	24
72	288
73	8427
74	818
75	4850
76	348
77	209
78	6
79	128
80	48
81	614
82	129
83	516
84	54
85	91
86	44
87	84
88	40
89	91
91	61
95	131
96	40
97	691
98	83
99	98
101	231
102	52
103	125
105	55
107	154
109	7
111	139
113	76
115	174
116	191
117	9999
118	1120
119	456
120	39
123	95
124	59
125	462
126	56
127	45
129	473
130	118
131	2002
132	303
133	249
134	51
137	62
141	73
143	180
144	38
145	125
146	45
147	1623
148	289
149	515
150	100
151	60
155	45
157	110
159	70
171	155
172	84
173	19
177	60
181	50
191	20
199	895
200	158
201	65
203	39
204	106
205	77
213	100
214	91
215	38
217	1122
218	266
219	129
231	51
260	686
261	169
262	77
273	360
274	93
275	91
289	876
290	223
291	101
303	110
304	40
