Mass Spectrum: 1,4:3,6-Dianhydro-.alpha.-d-glucopyranose
Formula: C6 H8 O4
Molecular weight: 144
Origin: W.E. FRANKLIN, SOUTH. REG. RES. CENT., NEW ORLEANS, LA., USA
m/z	RELATIVE INTENSITY
14	58
15	381
19	264
26	200
27	1060
29	3841
30	349
31	1604
37	36
38	110
39	1021
40	276
41	2493
42	1253
43	1491
44	661
45	438
47	406
50	20
51	31
52	35
53	227
54	130
55	723
56	125
57	3787
58	435
59	145
60	967
61	149
67	87
68	403
69	9999
70	2423
71	1119
72	95
73	1061
74	30
81	206
83	19
84	160
85	1488
86	1338
87	108
88	15
97	341
98	1900
99	1247
100	64
101	24
109	8
114	586
115	94
127	435
128	19
143	24
144	948
145	191
146	6
