Mass Spectrum: 3-Hydroxy-3-(4'-hydroxy-3'-methoxyphenyl)propionic acid, tri-TMS
Formula: C19 H36 O5 Si3
Molecular weight: 428
Origin: B.R. PETTIT, QUEEN CHARLOTTE'S MAT. HOSP., LONDON, U.K.
m/z	RELATIVE INTENSITY
42	60
43	60
44	190
45	820
47	250
59	310
66	120
72	120
73	7100
74	690
75	1450
76	120
77	190
89	120
103	60
116	190
117	190
131	120
133	190
147	1130
148	190
149	250
177	60
179	60
191	120
192	500
193	310
194	380
195	60
205	60
207	190
209	250
221	60
222	60
223	250
224	60
265	190
266	60
267	190
279	60
281	60
295	60
297	9999
298	2510
299	1000
300	120
310	120
413	120
428	560
429	120
430	60
